CHEMBL3671107
     RDKit          3D

  0  0  0  0  0  0  0  0  0  0999 V3000
M  V30 BEGIN CTAB
M  V30 COUNTS 59 62 0 0 0
M  V30 BEGIN ATOM
M  V30 1 C 2.317807 -7.110549 4.804460 0
M  V30 2 N 2.085161 -5.783918 4.229931 0
M  V30 3 C 3.067414 -4.863036 4.004120 0
M  V30 4 C 2.423358 -3.767504 3.461328 0
M  V30 5 C 3.023767 -2.503395 3.038233 0
M  V30 6 C 4.380992 -2.282142 3.153574 0
M  V30 7 N 4.940391 -1.100475 2.757806 0
M  V30 8 C 4.184851 -0.113740 2.242392 0
M  V30 9 C 4.698301 1.098458 1.827274 0
M  V30 10 C 3.905480 2.110675 1.295873 0
M  V30 11 C 2.560358 1.827096 1.207696 0
M  V30 12 N 1.709164 2.831273 0.670738 0
M  V30 13 C 0.312261 2.608263 0.549822 0
M  V30 14 O -0.068725 1.481611 0.950372 0
M  V30 15 N -0.631609 3.515351 0.037724 0
M  V30 16 C -2.026792 3.528288 -0.222963 0
M  V30 17 C -2.587154 2.650435 -1.286154 0
M  V30 18 C -2.313077 1.218085 -1.097209 0
M  V30 19 C -2.996066 0.353145 -2.170456 0
M  V30 20 C -2.533841 0.704436 -3.550234 0
M  V30 21 C -4.471028 0.567303 -2.071753 0
M  V30 22 C -2.575364 -1.045488 -1.849678 0
M  V30 23 C -1.409825 -1.563021 -2.422486 0
M  V30 24 C -0.949525 -2.842874 -2.180545 0
M  V30 25 C -1.687012 -3.649877 -1.324262 0
M  V30 26 C -2.842943 -3.149834 -0.750418 0
M  V30 27 C -3.295925 -1.853818 -1.004408 0
M  V30 28 N 2.059195 0.647516 1.611412 0
M  V30 29 C 2.827688 -0.332745 2.126143 0
M  V30 30 N 2.285579 -1.501243 2.519173 0
M  V30 31 C 1.073065 -4.043003 3.369097 0
M  V30 32 N 0.896754 -5.289150 3.849039 0
M  V30 33 H 3.122107 -7.075324 5.552439 0
M  V30 34 H 1.376425 -7.388200 5.323953 0
M  V30 35 H 2.513255 -7.823722 3.977660 0
M  V30 36 H 4.119143 -4.917165 4.185202 0
M  V30 37 H 5.037062 -3.037945 3.560063 0
M  V30 38 H 5.764200 1.268368 1.919423 0
M  V30 39 H 4.374244 3.028250 0.993769 0
M  V30 40 H 2.080535 3.752248 0.352456 0
M  V30 41 H -0.122820 4.408358 -0.204884 0
M  V30 42 H -2.323134 4.572465 -0.497100 0
M  V30 43 H -2.611746 3.380975 0.755624 0
M  V30 44 H -2.107957 3.022991 -2.256736 0
M  V30 45 H -3.700847 2.830260 -1.405185 0
M  V30 46 H -2.595124 0.868100 -0.115547 0
M  V30 47 H -1.200539 1.068775 -1.255774 0
M  V30 48 H -3.227191 1.432771 -4.062064 0
M  V30 49 H -2.546090 -0.208577 -4.204453 0
M  V30 50 H -1.502752 1.080341 -3.602810 0
M  V30 51 H -4.805572 0.922654 -1.076917 0
M  V30 52 H -4.763218 1.349717 -2.817873 0
M  V30 53 H -5.012754 -0.361902 -2.398361 0
M  V30 54 H -0.814854 -0.945385 -3.098744 0
M  V30 55 H -0.041335 -3.215130 -2.640377 0
M  V30 56 H -1.366974 -4.668025 -1.100200 0
M  V30 57 H -3.384440 -3.798601 -0.097220 0
M  V30 58 H -4.202773 -1.463565 -0.553331 0
M  V30 59 H 0.249318 -3.443786 3.000896 0
M  V30 END ATOM
M  V30 BEGIN BOND
M  V30 1 1 1 2
M  V30 2 1 2 3
M  V30 3 2 3 4
M  V30 4 1 4 5
M  V30 5 2 5 6
M  V30 6 1 6 7
M  V30 7 2 7 8
M  V30 8 1 8 9
M  V30 9 2 9 10
M  V30 10 1 10 11
M  V30 11 1 11 12
M  V30 12 1 12 13
M  V30 13 2 13 14
M  V30 14 1 13 15
M  V30 15 1 15 16
M  V30 16 1 16 17
M  V30 17 1 17 18
M  V30 18 1 18 19
M  V30 19 1 19 20
M  V30 20 1 19 21
M  V30 21 1 19 22
M  V30 22 2 22 23
M  V30 23 1 23 24
M  V30 24 2 24 25
M  V30 25 1 25 26
M  V30 26 2 26 27
M  V30 27 2 11 28
M  V30 28 1 28 29
M  V30 29 2 29 30
M  V30 30 1 4 31
M  V30 31 2 31 32
M  V30 32 1 32 2
M  V30 33 1 30 5
M  V30 34 1 29 8
M  V30 35 1 27 22
M  V30 36 1 1 33
M  V30 37 1 1 34
M  V30 38 1 1 35
M  V30 39 1 3 36
M  V30 40 1 6 37
M  V30 41 1 9 38
M  V30 42 1 10 39
M  V30 43 1 12 40
M  V30 44 1 15 41
M  V30 45 1 16 42
M  V30 46 1 16 43
M  V30 47 1 17 44
M  V30 48 1 17 45
M  V30 49 1 18 46
M  V30 50 1 18 47
M  V30 51 1 20 48
M  V30 52 1 20 49
M  V30 53 1 20 50
M  V30 54 1 21 51
M  V30 55 1 21 52
M  V30 56 1 21 53
M  V30 57 1 23 54
M  V30 58 1 24 55
M  V30 59 1 25 56
M  V30 60 1 26 57
M  V30 61 1 27 58
M  V30 62 1 31 59
M  V30 END BOND
M  V30 END CTAB
M  END
>  <Dataset>  (1) 
ChEMBL_Kinases

>  <Ligand_Instance>  (1) 
nan

>  <PDB_ID>  (1) 
nan

>  <Standardized_SMILES>  (1) 
Cn1cc(-c2cnc3ccc(NC(=O)NCCCC(C)(C)c4ccccc4)nc3n2)cn1

>  <Name>  (1) 
nan

>  <Pocket>  (1) 
nan

>  <ATP_Site>  (1) 
nan

>  <Peripheral>  (1) 
nan

>  <Num_H_Atoms_ProtBoundConf>  (1) 
nan

>  <Num_Resolved_Atoms>  (1) 
nan

>  <Num_Not_Resolved_Atoms>  (1) 
nan

$$$$
CHEMBL3671108
     RDKit          3D

  0  0  0  0  0  0  0  0  0  0999 V3000
M  V30 BEGIN CTAB
M  V30 COUNTS 62 65 0 0 0
M  V30 BEGIN ATOM
M  V30 1 C 5.733090 -0.724580 1.786821 0
M  V30 2 C 6.178957 -0.640590 3.224262 0
M  V30 3 C 5.047951 -0.168442 4.138607 0
M  V30 4 N 4.581793 1.155881 3.738538 0
M  V30 5 C 3.579907 1.289926 2.835673 0
M  V30 6 C 3.422910 2.656128 2.716069 0
M  V30 7 C 2.437787 3.281681 1.835821 0
M  V30 8 C 2.314634 4.654945 1.746699 0
M  V30 9 N 1.370710 5.166427 0.901676 0
M  V30 10 C 0.576043 4.348800 0.170128 0
M  V30 11 C -0.393144 4.801645 -0.698624 0
M  V30 12 C -1.190168 3.940401 -1.433044 0
M  V30 13 C -1.033623 2.573468 -1.313576 0
M  V30 14 N -1.799882 1.587802 -2.022529 0
M  V30 15 C -1.543653 0.190302 -1.812700 0
M  V30 16 O -0.624366 -0.119388 -0.985257 0
M  V30 17 N -2.281507 -0.784710 -2.496226 0
M  V30 18 C -1.992373 -2.187024 -2.256327 0 CFG=2
M  V30 19 C -1.526948 -2.842390 -3.518307 0
M  V30 20 C -3.172807 -2.907916 -1.634774 0
M  V30 21 C -3.549105 -2.288585 -0.306235 0
M  V30 22 C -4.727592 -3.000092 0.322854 0
M  V30 23 C -4.472640 -4.430152 0.586356 0
M  V30 24 C -3.940020 -4.762291 1.812263 0
M  V30 25 C -3.685514 -6.100686 2.097659 0
M  V30 26 C -3.975260 -7.039676 1.145658 0
M  V30 27 C -4.512584 -6.721288 -0.095317 0
M  V30 28 C -4.769524 -5.379427 -0.385884 0
M  V30 29 N -0.079627 2.161662 -0.457874 0
M  V30 30 C 0.700259 2.977434 0.260272 0
M  V30 31 N 1.640938 2.479806 1.102515 0
M  V30 32 C 4.331752 3.281245 3.547196 0
M  V30 33 N 5.027532 2.335341 4.160343 0
M  V30 34 H 5.869515 0.291667 1.334661 0
M  V30 35 H 6.442767 -1.380091 1.237441 0
M  V30 36 H 4.708832 -1.084334 1.698434 0
M  V30 37 H 6.435629 -1.662821 3.541463 0
M  V30 38 H 7.064846 0.004061 3.349029 0
M  V30 39 H 5.545051 -0.020385 5.131981 0
M  V30 40 H 4.257758 -0.914219 4.220368 0
M  V30 41 H 3.037254 0.517466 2.332901 0
M  V30 42 H 2.950852 5.310429 2.332342 0
M  V30 43 H -0.535103 5.869181 -0.809736 0
M  V30 44 H -1.951467 4.289667 -2.115736 0
M  V30 45 H -2.539028 1.863264 -2.687291 0
M  V30 46 H -3.037583 -0.561566 -3.177305 0
M  V30 47 H -1.167000 -2.302418 -1.511410 0
M  V30 48 H -1.479726 -2.128866 -4.359040 0
M  V30 49 H -2.257227 -3.653610 -3.770853 0
M  V30 50 H -0.552533 -3.358023 -3.414305 0
M  V30 51 H -4.021348 -3.020070 -2.309382 0
M  V30 52 H -2.796321 -3.933688 -1.398104 0
M  V30 53 H -3.825042 -1.226466 -0.398578 0
M  V30 54 H -2.728162 -2.350800 0.423656 0
M  V30 55 H -5.589684 -2.894791 -0.366940 0
M  V30 56 H -5.028713 -2.503323 1.262435 0
M  V30 57 H -3.703577 -4.033454 2.579191 0
M  V30 58 H -3.264895 -6.458310 3.041895 0
M  V30 59 H -3.781836 -8.089779 1.354557 0
M  V30 60 H -4.739871 -7.480371 -0.847622 0
M  V30 61 H -5.184756 -5.059953 -1.325976 0
M  V30 62 H 4.396261 4.363706 3.622895 0
M  V30 END ATOM
M  V30 BEGIN BOND
M  V30 1 1 1 2
M  V30 2 1 2 3
M  V30 3 1 3 4
M  V30 4 1 4 5
M  V30 5 2 5 6
M  V30 6 1 6 7
M  V30 7 2 7 8
M  V30 8 1 8 9
M  V30 9 2 9 10
M  V30 10 1 10 11
M  V30 11 2 11 12
M  V30 12 1 12 13
M  V30 13 1 13 14
M  V30 14 1 14 15
M  V30 15 2 15 16
M  V30 16 1 15 17
M  V30 17 1 17 18
M  V30 18 1 18 19
M  V30 19 1 18 20
M  V30 20 1 20 21
M  V30 21 1 21 22
M  V30 22 1 22 23
M  V30 23 2 23 24
M  V30 24 1 24 25
M  V30 25 2 25 26
M  V30 26 1 26 27
M  V30 27 2 27 28
M  V30 28 2 13 29
M  V30 29 1 29 30
M  V30 30 2 30 31
M  V30 31 1 6 32
M  V30 32 2 32 33
M  V30 33 1 33 4
M  V30 34 1 31 7
M  V30 35 1 30 10
M  V30 36 1 28 23
M  V30 37 1 1 34
M  V30 38 1 1 35
M  V30 39 1 1 36
M  V30 40 1 2 37
M  V30 41 1 2 38
M  V30 42 1 3 39
M  V30 43 1 3 40
M  V30 44 1 5 41
M  V30 45 1 8 42
M  V30 46 1 11 43
M  V30 47 1 12 44
M  V30 48 1 14 45
M  V30 49 1 17 46
M  V30 50 1 18 47 CFG=1
M  V30 51 1 19 48
M  V30 52 1 19 49
M  V30 53 1 19 50
M  V30 54 1 20 51
M  V30 55 1 20 52
M  V30 56 1 21 53
M  V30 57 1 21 54
M  V30 58 1 22 55
M  V30 59 1 22 56
M  V30 60 1 24 57
M  V30 61 1 25 58
M  V30 62 1 26 59
M  V30 63 1 27 60
M  V30 64 1 28 61
M  V30 65 1 32 62
M  V30 END BOND
M  V30 END CTAB
M  END
>  <Dataset>  (2) 
ChEMBL_Kinases

>  <Ligand_Instance>  (2) 
nan

>  <PDB_ID>  (2) 
nan

>  <Standardized_SMILES>  (2) 
CCCn1cc(-c2cnc3ccc(NC(=O)N[C@H](C)CCCc4ccccc4)nc3n2)cn1

>  <Name>  (2) 
nan

>  <Pocket>  (2) 
nan

>  <ATP_Site>  (2) 
nan

>  <Peripheral>  (2) 
nan

>  <Num_H_Atoms_ProtBoundConf>  (2) 
nan

>  <Num_Resolved_Atoms>  (2) 
nan

>  <Num_Not_Resolved_Atoms>  (2) 
nan

$$$$
CHEMBL3671109
     RDKit          3D

  0  0  0  0  0  0  0  0  0  0999 V3000
M  V30 BEGIN CTAB
M  V30 COUNTS 53 56 0 0 0
M  V30 BEGIN ATOM
M  V30 1 C 0.964176 2.032954 2.524480 0
M  V30 2 C 1.067886 1.134512 1.335697 0 CFG=2
M  V30 3 C 1.767668 1.872984 0.212424 0
M  V30 4 C 3.166341 2.319902 0.579331 0
M  V30 5 C 3.771328 3.040316 -0.593806 0
M  V30 6 C 5.126614 3.522951 -0.362729 0
M  V30 7 C 6.151536 2.668461 -0.689151 0
M  V30 8 C 7.478614 3.047958 -0.501325 0
M  V30 9 C 7.766760 4.310307 0.024241 0
M  V30 10 C 6.772191 5.183064 0.358964 0
M  V30 11 C 5.478414 4.753287 0.151257 0
M  V30 12 N -0.251355 0.799602 0.773875 0
M  V30 13 C -0.722761 -0.508604 0.618556 0
M  V30 14 O -0.083405 -1.546747 0.937401 0
M  V30 15 N -2.003727 -0.684800 0.066451 0
M  V30 16 C -2.621590 -1.948458 -0.155590 0
M  V30 17 C -2.399145 -2.544521 -1.379410 0
M  V30 18 C -2.958528 -3.779917 -1.695942 0
M  V30 19 C -3.753037 -4.428179 -0.772037 0
M  V30 20 N -4.293623 -5.623142 -1.080503 0
M  V30 21 C -5.074023 -6.238922 -0.148849 0
M  V30 22 C -5.295911 -5.641905 1.074429 0
M  V30 23 C -6.130640 -6.292560 2.077608 0
M  V30 24 C -6.431687 -5.806550 3.332476 0
M  V30 25 N -7.230624 -6.734762 3.911808 0
M  V30 26 N -7.421972 -7.750970 3.065971 0
M  V30 27 C -6.756919 -7.512186 1.921520 0
M  V30 28 N -4.732226 -4.433265 1.350017 0
M  V30 29 C -3.957934 -3.798076 0.455798 0
M  V30 30 N -3.406219 -2.596597 0.746918 0
M  V30 31 H 1.169537 3.101730 2.311217 0
M  V30 32 H 1.744637 1.718982 3.260486 0
M  V30 33 H 0.003566 1.926743 3.074162 0
M  V30 34 H 1.608169 0.199523 1.603181 0
M  V30 35 H 1.771699 1.167813 -0.643998 0
M  V30 36 H 1.108574 2.709736 -0.061242 0
M  V30 37 H 3.747675 1.394911 0.782504 0
M  V30 38 H 3.145243 2.967374 1.471554 0
M  V30 39 H 3.719483 2.361579 -1.492243 0
M  V30 40 H 3.138209 3.909972 -0.866919 0
M  V30 41 H 5.970089 1.687797 -1.096517 0
M  V30 42 H 8.282722 2.369671 -0.760806 0
M  V30 43 H 8.825842 4.528600 0.139384 0
M  V30 44 H 7.008781 6.155707 0.764582 0
M  V30 45 H 4.676645 5.429888 0.410153 0
M  V30 46 H -0.830862 1.631932 0.489344 0
M  V30 47 H -2.616666 0.113767 -0.231510 0
M  V30 48 H -1.786166 -2.101040 -2.162454 0
M  V30 49 H -2.802014 -4.271512 -2.646826 0
M  V30 50 H -5.522613 -7.206567 -0.375226 0
M  V30 51 H -6.102498 -4.868620 3.783318 0
M  V30 52 H -7.969356 -8.638947 3.150289 0
M  V30 53 H -6.690831 -8.119161 1.025292 0
M  V30 END ATOM
M  V30 BEGIN BOND
M  V30 1 1 1 2
M  V30 2 1 2 3
M  V30 3 1 3 4
M  V30 4 1 4 5
M  V30 5 1 5 6
M  V30 6 2 6 7
M  V30 7 1 7 8
M  V30 8 2 8 9
M  V30 9 1 9 10
M  V30 10 2 10 11
M  V30 11 1 2 12
M  V30 12 1 12 13
M  V30 13 2 13 14
M  V30 14 1 13 15
M  V30 15 1 15 16
M  V30 16 2 16 17
M  V30 17 1 17 18
M  V30 18 2 18 19
M  V30 19 1 19 20
M  V30 20 2 20 21
M  V30 21 1 21 22
M  V30 22 1 22 23
M  V30 23 1 23 24
M  V30 24 2 24 25
M  V30 25 1 25 26
M  V30 26 1 26 27
M  V30 27 2 22 28
M  V30 28 1 28 29
M  V30 29 2 29 30
M  V30 30 1 11 6
M  V30 31 1 30 16
M  V30 32 1 29 19
M  V30 33 2 27 23
M  V30 34 1 1 31
M  V30 35 1 1 32
M  V30 36 1 1 33
M  V30 37 1 2 34 CFG=1
M  V30 38 1 3 35
M  V30 39 1 3 36
M  V30 40 1 4 37
M  V30 41 1 4 38
M  V30 42 1 5 39
M  V30 43 1 5 40
M  V30 44 1 7 41
M  V30 45 1 8 42
M  V30 46 1 9 43
M  V30 47 1 10 44
M  V30 48 1 11 45
M  V30 49 1 12 46
M  V30 50 1 15 47
M  V30 51 1 17 48
M  V30 52 1 18 49
M  V30 53 1 21 50
M  V30 54 1 24 51
M  V30 55 1 26 52
M  V30 56 1 27 53
M  V30 END BOND
M  V30 END CTAB
M  END
>  <Dataset>  (3) 
ChEMBL_Kinases

>  <Ligand_Instance>  (3) 
nan

>  <PDB_ID>  (3) 
nan

>  <Standardized_SMILES>  (3) 
C[C@H](CCCc1ccccc1)NC(=O)Nc1ccc2ncc(-c3cn[nH]c3)nc2n1

>  <Name>  (3) 
nan

>  <Pocket>  (3) 
nan

>  <ATP_Site>  (3) 
nan

>  <Peripheral>  (3) 
nan

>  <Num_H_Atoms_ProtBoundConf>  (3) 
nan

>  <Num_Resolved_Atoms>  (3) 
nan

>  <Num_Not_Resolved_Atoms>  (3) 
nan

$$$$
CHEMBL3671110
     RDKit          3D

  0  0  0  0  0  0  0  0  0  0999 V3000
M  V30 BEGIN CTAB
M  V30 COUNTS 55 58 0 0 0
M  V30 BEGIN ATOM
M  V30 1 O 0.584107 -0.935201 2.392832 0
M  V30 2 C 0.088778 0.227812 2.256092 0
M  V30 3 N 1.102669 1.240094 2.143382 0
M  V30 4 C 2.470066 0.717821 2.209504 0
M  V30 5 C 3.394599 1.909774 2.075774 0
M  V30 6 C 4.849957 1.497699 2.129190 0
M  V30 7 C 5.686819 2.751755 1.988084 0
M  V30 8 C 5.422311 3.443477 0.712972 0
M  V30 9 C 6.226925 3.041958 -0.326012 0
M  V30 10 C 6.065429 3.627898 -1.576134 0
M  V30 11 C 5.090384 4.594514 -1.702698 0
M  V30 12 C 4.288959 4.989021 -0.652206 0
M  V30 13 C 4.434596 4.419318 0.594335 0
M  V30 14 N -1.317411 0.475036 2.221302 0
M  V30 15 C -2.200972 -0.656364 2.348481 0
M  V30 16 C -2.688545 -1.142632 3.544375 0
M  V30 17 C -3.539814 -2.251693 3.513771 0
M  V30 18 C -3.905562 -2.871973 2.329779 0
M  V30 19 N -4.723536 -3.937893 2.299160 0
M  V30 20 C -5.068417 -4.528569 1.136382 0
M  V30 21 C -4.548805 -3.996450 -0.024435 0
M  V30 22 N -4.874736 -4.574833 -1.285313 0
M  V30 23 C -5.720437 -5.711286 -1.596186 0
M  V30 24 C -5.102711 -6.384644 -2.799746 0
M  V30 25 C -4.138317 -5.407095 -3.382092 0
M  V30 26 C -4.421042 -4.146957 -2.594603 0
M  V30 27 N -3.729008 -2.929153 -0.002203 0
M  V30 28 C -3.381008 -2.332493 1.176376 0
M  V30 29 N -2.553241 -1.257964 1.173882 0
M  V30 30 H 0.765087 2.235132 2.026988 0
M  V30 31 H 2.623449 0.171826 3.164945 0
M  V30 32 H 2.635027 -0.021517 1.376199 0
M  V30 33 H 3.147715 2.381702 1.108457 0
M  V30 34 H 3.129675 2.611506 2.877487 0
M  V30 35 H 5.102668 0.734956 1.395350 0
M  V30 36 H 5.028848 1.115436 3.176783 0
M  V30 37 H 6.781211 2.511585 2.107907 0
M  V30 38 H 5.401832 3.460882 2.793253 0
M  V30 39 H 6.989045 2.294338 -0.249886 0
M  V30 40 H 6.672535 3.347134 -2.424270 0
M  V30 41 H 4.943254 5.066319 -2.662455 0
M  V30 42 H 3.510998 5.744184 -0.706779 0
M  V30 43 H 3.869973 4.648072 1.476260 0
M  V30 44 H -1.501283 1.489814 2.103046 0
M  V30 45 H -2.388398 -0.642611 4.442855 0
M  V30 46 H -3.920695 -2.630727 4.453897 0
M  V30 47 H -5.728061 -5.387388 1.117899 0
M  V30 48 H -5.743025 -6.451589 -0.770054 0
M  V30 49 H -6.763525 -5.414052 -1.829113 0
M  V30 50 H -5.893384 -6.740706 -3.476837 0
M  V30 51 H -4.551163 -7.318588 -2.494354 0
M  V30 52 H -3.098619 -5.754226 -3.220911 0
M  V30 53 H -4.315262 -5.166194 -4.451367 0
M  V30 54 H -3.430215 -3.644305 -2.432363 0
M  V30 55 H -5.114646 -3.452893 -3.099732 0
M  V30 END ATOM
M  V30 BEGIN BOND
M  V30 1 2 1 2
M  V30 2 1 2 3
M  V30 3 1 3 4
M  V30 4 1 4 5
M  V30 5 1 5 6
M  V30 6 1 6 7
M  V30 7 1 7 8
M  V30 8 2 8 9
M  V30 9 1 9 10
M  V30 10 2 10 11
M  V30 11 1 11 12
M  V30 12 2 12 13
M  V30 13 1 2 14
M  V30 14 1 14 15
M  V30 15 2 15 16
M  V30 16 1 16 17
M  V30 17 2 17 18
M  V30 18 1 18 19
M  V30 19 2 19 20
M  V30 20 1 20 21
M  V30 21 1 21 22
M  V30 22 1 22 23
M  V30 23 1 23 24
M  V30 24 1 24 25
M  V30 25 1 25 26
M  V30 26 2 21 27
M  V30 27 1 27 28
M  V30 28 2 28 29
M  V30 29 1 13 8
M  V30 30 1 29 15
M  V30 31 1 28 18
M  V30 32 1 26 22
M  V30 33 1 3 30
M  V30 34 1 4 31
M  V30 35 1 4 32
M  V30 36 1 5 33
M  V30 37 1 5 34
M  V30 38 1 6 35
M  V30 39 1 6 36
M  V30 40 1 7 37
M  V30 41 1 7 38
M  V30 42 1 9 39
M  V30 43 1 10 40
M  V30 44 1 11 41
M  V30 45 1 12 42
M  V30 46 1 13 43
M  V30 47 1 14 44
M  V30 48 1 16 45
M  V30 49 1 17 46
M  V30 50 1 20 47
M  V30 51 1 23 48
M  V30 52 1 23 49
M  V30 53 1 24 50
M  V30 54 1 24 51
M  V30 55 1 25 52
M  V30 56 1 25 53
M  V30 57 1 26 54
M  V30 58 1 26 55
M  V30 END BOND
M  V30 END CTAB
M  END
>  <Dataset>  (4) 
ChEMBL_Kinases

>  <Ligand_Instance>  (4) 
nan

>  <PDB_ID>  (4) 
nan

>  <Standardized_SMILES>  (4) 
O=C(NCCCCc1ccccc1)Nc1ccc2ncc(N3CCCC3)nc2n1

>  <Name>  (4) 
nan

>  <Pocket>  (4) 
nan

>  <ATP_Site>  (4) 
nan

>  <Peripheral>  (4) 
nan

>  <Num_H_Atoms_ProtBoundConf>  (4) 
nan

>  <Num_Resolved_Atoms>  (4) 
nan

>  <Num_Not_Resolved_Atoms>  (4) 
nan

$$$$
CHEMBL3671111
     RDKit          3D

  0  0  0  0  0  0  0  0  0  0999 V3000
M  V30 BEGIN CTAB
M  V30 COUNTS 58 61 0 0 0
M  V30 BEGIN ATOM
M  V30 1 C 2.684160 0.442634 -1.079715 0
M  V30 2 C 2.296516 0.772726 0.376982 0 CFG=2
M  V30 3 C 3.607481 0.978412 1.080520 0
M  V30 4 C 3.359771 1.304543 2.518756 0
M  V30 5 C 4.647830 1.518985 3.296339 0
M  V30 6 C 5.447830 2.631905 2.711527 0
M  V30 7 C 5.358644 3.963275 3.031719 0
M  V30 8 C 6.161895 4.912778 2.420072 0
M  V30 9 C 7.047882 4.464787 1.487635 0
M  V30 10 C 7.197635 3.139617 1.111310 0
M  V30 11 C 6.372239 2.220202 1.747129 0
M  V30 12 N 1.684197 -0.430503 0.958742 0
M  V30 13 C 0.307100 -0.639728 1.203042 0
M  V30 14 O -0.529788 0.270433 0.902480 0
M  V30 15 N -0.116763 -1.879818 1.785358 0
M  V30 16 C -1.542843 -1.993473 1.949202 0
M  V30 17 C -2.386564 -1.639095 2.991920 0
M  V30 18 C -3.726974 -1.895933 2.801687 0
M  V30 19 C -4.211011 -2.472365 1.647058 0
M  V30 20 N -5.541047 -2.701227 1.524216 0
M  V30 21 C -5.957839 -3.268456 0.373432 0
M  V30 22 C -5.149808 -3.633198 -0.680397 0
M  V30 23 N -5.552867 -4.216583 -1.913915 0
M  V30 24 C -6.864720 -4.495628 -2.467227 0
M  V30 25 C -6.700743 -3.815032 -3.825535 0
M  V30 26 C -5.298587 -4.204536 -4.203689 0
M  V30 27 C -4.645368 -4.702523 -2.937443 0
M  V30 28 N -3.841646 -3.379043 -0.487553 0
M  V30 29 C -3.350979 -2.816448 0.627123 0
M  V30 30 N -2.035984 -2.559063 0.821354 0
M  V30 31 H 1.880029 0.760208 -1.765647 0
M  V30 32 H 3.571489 1.069536 -1.306819 0
M  V30 33 H 2.999635 -0.608050 -1.177706 0
M  V30 34 H 1.632237 1.623287 0.383056 0
M  V30 35 H 4.230823 1.760059 0.573398 0
M  V30 36 H 4.227657 0.038370 0.994478 0
M  V30 37 H 2.843212 0.451713 2.989448 0
M  V30 38 H 2.803678 2.255981 2.584351 0
M  V30 39 H 5.263913 0.605964 3.337074 0
M  V30 40 H 4.368330 1.761675 4.331873 0
M  V30 41 H 4.614102 4.200529 3.793000 0
M  V30 42 H 6.048354 5.945916 2.709613 0
M  V30 43 H 7.693269 5.187593 0.988246 0
M  V30 44 H 7.919108 2.856325 0.367215 0
M  V30 45 H 6.500597 1.176533 1.446286 0
M  V30 46 H 2.341761 -1.219094 1.218743 0
M  V30 47 H 0.569356 -2.642783 2.047107 0
M  V30 48 H -1.844972 -1.199033 3.812970 0
M  V30 49 H -4.337466 -1.597565 3.661506 0
M  V30 50 H -7.013406 -3.463437 0.251805 0
M  V30 51 H -7.672082 -4.016157 -1.888525 0
M  V30 52 H -7.022481 -5.567632 -2.682595 0
M  V30 53 H -6.698100 -2.705143 -3.615181 0
M  V30 54 H -7.473676 -4.107996 -4.540634 0
M  V30 55 H -4.753869 -3.352015 -4.664663 0
M  V30 56 H -5.331323 -4.990545 -4.999449 0
M  V30 57 H -4.727292 -5.813292 -2.929659 0
M  V30 58 H -3.607927 -4.326446 -2.804157 0
M  V30 END ATOM
M  V30 BEGIN BOND
M  V30 1 1 1 2
M  V30 2 1 2 3
M  V30 3 1 3 4
M  V30 4 1 4 5
M  V30 5 1 5 6
M  V30 6 2 6 7
M  V30 7 1 7 8
M  V30 8 2 8 9
M  V30 9 1 9 10
M  V30 10 2 10 11
M  V30 11 1 2 12
M  V30 12 1 12 13
M  V30 13 2 13 14
M  V30 14 1 13 15
M  V30 15 1 15 16
M  V30 16 2 16 17
M  V30 17 1 17 18
M  V30 18 2 18 19
M  V30 19 1 19 20
M  V30 20 2 20 21
M  V30 21 1 21 22
M  V30 22 1 22 23
M  V30 23 1 23 24
M  V30 24 1 24 25
M  V30 25 1 25 26
M  V30 26 1 26 27
M  V30 27 2 22 28
M  V30 28 1 28 29
M  V30 29 2 29 30
M  V30 30 1 11 6
M  V30 31 1 30 16
M  V30 32 1 29 19
M  V30 33 1 27 23
M  V30 34 1 1 31
M  V30 35 1 1 32
M  V30 36 1 1 33
M  V30 37 1 2 34 CFG=3
M  V30 38 1 3 35
M  V30 39 1 3 36
M  V30 40 1 4 37
M  V30 41 1 4 38
M  V30 42 1 5 39
M  V30 43 1 5 40
M  V30 44 1 7 41
M  V30 45 1 8 42
M  V30 46 1 9 43
M  V30 47 1 10 44
M  V30 48 1 11 45
M  V30 49 1 12 46
M  V30 50 1 15 47
M  V30 51 1 17 48
M  V30 52 1 18 49
M  V30 53 1 21 50
M  V30 54 1 24 51
M  V30 55 1 24 52
M  V30 56 1 25 53
M  V30 57 1 25 54
M  V30 58 1 26 55
M  V30 59 1 26 56
M  V30 60 1 27 57
M  V30 61 1 27 58
M  V30 END BOND
M  V30 END CTAB
M  END
>  <Dataset>  (5) 
ChEMBL_Kinases

>  <Ligand_Instance>  (5) 
nan

>  <PDB_ID>  (5) 
nan

>  <Standardized_SMILES>  (5) 
C[C@H](CCCc1ccccc1)NC(=O)Nc1ccc2ncc(N3CCCC3)nc2n1

>  <Name>  (5) 
nan

>  <Pocket>  (5) 
nan

>  <ATP_Site>  (5) 
nan

>  <Peripheral>  (5) 
nan

>  <Num_H_Atoms_ProtBoundConf>  (5) 
nan

>  <Num_Resolved_Atoms>  (5) 
nan

>  <Num_Not_Resolved_Atoms>  (5) 
nan

$$$$
CHEMBL3671112
     RDKit          3D

  0  0  0  0  0  0  0  0  0  0999 V3000
M  V30 BEGIN CTAB
M  V30 COUNTS 54 57 0 0 0
M  V30 BEGIN ATOM
M  V30 1 O -0.301514 -0.273052 2.839554 0
M  V30 2 C -0.835047 0.448146 3.716417 0
M  V30 3 N 0.017273 1.047373 4.665949 0
M  V30 4 C 1.413904 1.098694 4.926666 0
M  V30 5 C 2.313931 1.746350 3.949253 0
M  V30 6 C 2.369919 1.239011 2.562636 0
M  V30 7 C 3.441858 2.083367 1.820619 0
M  V30 8 C 3.540028 1.614387 0.417615 0
M  V30 9 C 4.413798 0.605117 0.013482 0
M  V30 10 C 4.403737 0.265964 -1.321168 0
M  V30 11 C 3.608725 0.832941 -2.294852 0
M  V30 12 C 2.750039 1.834794 -1.859492 0
M  V30 13 C 2.721414 2.211900 -0.532651 0
M  V30 14 N -2.246484 0.608643 3.691004 0
M  V30 15 C -2.976355 -0.060123 2.668757 0
M  V30 16 C -4.344216 0.106086 2.658287 0
M  V30 17 C -5.050675 -0.543818 1.665428 0
M  V30 18 C -4.431445 -1.330180 0.715763 0
M  V30 19 N -5.091080 -1.980041 -0.269023 0
M  V30 20 C -4.422660 -2.741670 -1.177075 0
M  V30 21 C -3.050308 -2.879407 -1.127634 0
M  V30 22 C -2.283362 -3.681611 -2.073315 0
M  V30 23 C -0.916237 -3.720994 -1.892787 0
M  V30 24 C -0.081506 -4.449022 -2.727300 0
M  V30 25 C -0.647998 -5.156657 -3.773645 0
M  V30 26 O 0.176139 -5.891206 -4.618718 0
M  V30 27 C -2.019595 -5.112296 -3.948255 0
M  V30 28 F -2.529147 -5.823129 -4.989160 0
M  V30 29 C -2.840473 -4.375471 -3.099574 0
M  V30 30 N -2.399285 -2.229900 -0.144796 0
M  V30 31 C -3.049932 -1.468952 0.765381 0
M  V30 32 N -2.364422 -0.823718 1.748397 0
M  V30 33 H -0.556737 1.612283 5.370117 0
M  V30 34 H 1.636266 1.427197 5.968612 0
M  V30 35 H 1.741639 -0.005880 4.942183 0
M  V30 36 H 3.378726 1.679288 4.350502 0
M  V30 37 H 2.159532 2.876669 3.940388 0
M  V30 38 H 1.424182 1.486590 2.027009 0
M  V30 39 H 2.691396 0.207902 2.502017 0
M  V30 40 H 3.181262 3.155224 1.868076 0
M  V30 41 H 4.416668 1.921787 2.302641 0
M  V30 42 H 5.045047 0.142998 0.741031 0
M  V30 43 H 5.073992 -0.517888 -1.668047 0
M  V30 44 H 3.637934 0.533126 -3.324269 0
M  V30 45 H 2.090166 2.338281 -2.542112 0
M  V30 46 H 2.039139 3.003868 -0.202244 0
M  V30 47 H -2.694676 1.198308 4.405943 0
M  V30 48 H -4.907424 0.707647 3.369490 0
M  V30 49 H -6.138899 -0.492605 1.548370 0
M  V30 50 H -4.974271 -3.243304 -1.944485 0
M  V30 51 H -0.406538 -3.187094 -1.089294 0
M  V30 52 H 0.991777 -4.471319 -2.574008 0
M  V30 53 H 0.662043 -6.736221 -4.298661 0
M  V30 54 H -3.889293 -4.361839 -3.260322 0
M  V30 END ATOM
M  V30 BEGIN BOND
M  V30 1 2 1 2
M  V30 2 1 2 3
M  V30 3 1 3 4
M  V30 4 1 4 5
M  V30 5 1 5 6
M  V30 6 1 6 7
M  V30 7 1 7 8
M  V30 8 2 8 9
M  V30 9 1 9 10
M  V30 10 2 10 11
M  V30 11 1 11 12
M  V30 12 2 12 13
M  V30 13 1 2 14
M  V30 14 1 14 15
M  V30 15 2 15 16
M  V30 16 1 16 17
M  V30 17 2 17 18
M  V30 18 1 18 19
M  V30 19 2 19 20
M  V30 20 1 20 21
M  V30 21 1 21 22
M  V30 22 2 22 23
M  V30 23 1 23 24
M  V30 24 2 24 25
M  V30 25 1 25 26
M  V30 26 1 25 27
M  V30 27 1 27 28
M  V30 28 2 27 29
M  V30 29 2 21 30
M  V30 30 1 30 31
M  V30 31 2 31 32
M  V30 32 1 13 8
M  V30 33 1 32 15
M  V30 34 1 31 18
M  V30 35 1 29 22
M  V30 36 1 3 33
M  V30 37 1 4 34
M  V30 38 1 4 35
M  V30 39 1 5 36
M  V30 40 1 5 37
M  V30 41 1 6 38
M  V30 42 1 6 39
M  V30 43 1 7 40
M  V30 44 1 7 41
M  V30 45 1 9 42
M  V30 46 1 10 43
M  V30 47 1 11 44
M  V30 48 1 12 45
M  V30 49 1 13 46
M  V30 50 1 14 47
M  V30 51 1 16 48
M  V30 52 1 17 49
M  V30 53 1 20 50
M  V30 54 1 23 51
M  V30 55 1 24 52
M  V30 56 1 26 53
M  V30 57 1 29 54
M  V30 END BOND
M  V30 END CTAB
M  END
>  <Dataset>  (6) 
ChEMBL_Kinases

>  <Ligand_Instance>  (6) 
nan

>  <PDB_ID>  (6) 
nan

>  <Standardized_SMILES>  (6) 
O=C(NCCCCc1ccccc1)Nc1ccc2ncc(-c3ccc(O)c(F)c3)nc2n1

>  <Name>  (6) 
nan

>  <Pocket>  (6) 
nan

>  <ATP_Site>  (6) 
nan

>  <Peripheral>  (6) 
nan

>  <Num_H_Atoms_ProtBoundConf>  (6) 
nan

>  <Num_Resolved_Atoms>  (6) 
nan

>  <Num_Not_Resolved_Atoms>  (6) 
nan

$$$$
CHEMBL3671122
     RDKit          3D

  0  0  0  0  0  0  0  0  0  0999 V3000
M  V30 BEGIN CTAB
M  V30 COUNTS 67 70 0 0 0
M  V30 BEGIN ATOM
M  V30 1 C 2.545212 5.803310 2.977710 0
M  V30 2 C 1.938377 5.008373 1.871422 0 CFG=2
M  V30 3 C 0.399613 5.077198 2.163298 0
M  V30 4 C -0.436156 4.398928 1.152377 0
M  V30 5 C -1.940588 4.575700 1.471839 0
M  V30 6 C -2.695062 3.872848 0.397497 0
M  V30 7 C -3.089723 2.531425 0.387095 0
M  V30 8 C -3.795232 2.064587 -0.725104 0
M  V30 9 C -4.108394 2.886297 -1.803424 0
M  V30 10 C -3.717619 4.202302 -1.786327 0
M  V30 11 C -3.013713 4.697989 -0.692428 0
M  V30 12 N 2.352072 3.641405 1.831928 0
M  V30 13 C 2.682886 2.295324 1.733406 0
M  V30 14 O 1.805512 1.828474 0.992202 0
M  V30 15 N 3.744634 1.542487 2.305143 0
M  V30 16 C 3.807831 0.140254 2.085985 0
M  V30 17 C 5.039192 -0.432736 2.471125 0
M  V30 18 C 5.023324 -1.799812 2.289834 0
M  V30 19 C 4.001854 -2.576521 1.811545 0
M  V30 20 N 4.125830 -3.909324 1.710926 0
M  V30 21 C 3.104285 -4.659084 1.261097 0
M  V30 22 C 1.926621 -4.025092 0.907807 0
M  V30 23 C 0.759973 -4.767639 0.462956 0
M  V30 24 C -0.409481 -4.122826 0.169739 0
M  V30 25 C -1.605168 -4.737889 -0.239196 0
M  V30 26 C -1.537242 -6.128910 -0.337363 0
M  V30 27 C -2.834356 -6.736667 -0.730423 0
M  V30 28 C -3.067734 -6.835027 -2.195985 0 CFG=2
M  V30 29 N -4.387296 -7.452416 -2.378648 0
M  V30 30 C -2.061526 -7.672153 -2.894332 0
M  V30 31 O -0.844251 -7.357776 -2.829334 0
M  V30 32 O -2.249123 -8.837046 -3.672151 0
M  V30 33 C -0.390930 -6.861705 -0.060474 0
M  V30 34 C 0.710120 -6.135107 0.329239 0
M  V30 35 N 1.831539 -2.689399 1.016489 0
M  V30 36 C 2.845793 -1.925451 1.462961 0
M  V30 37 N 2.760920 -0.562263 1.604707 0
M  V30 38 H 3.338488 6.476641 2.632044 0
M  V30 39 H 1.756307 6.292525 3.574255 0
M  V30 40 H 2.991592 5.051136 3.721527 0
M  V30 41 H 2.043013 5.481862 0.869680 0
M  V30 42 H 0.245054 4.598522 3.158893 0
M  V30 43 H 0.232788 6.157045 2.289982 0
M  V30 44 H -0.316507 3.298524 1.205389 0
M  V30 45 H -0.203083 4.813987 0.157045 0
M  V30 46 H -2.141498 4.063895 2.415086 0
M  V30 47 H -2.197669 5.635744 1.550443 0
M  V30 48 H -2.803749 1.961289 1.254438 0
M  V30 49 H -4.073436 1.012623 -0.683848 0
M  V30 50 H -4.664782 2.400100 -2.619836 0
M  V30 51 H -3.989237 4.805235 -2.661983 0
M  V30 52 H -2.752236 5.731220 -0.777597 0
M  V30 53 H 3.182564 3.948715 2.463851 0
M  V30 54 H 4.423550 2.050323 2.901710 0
M  V30 55 H 5.862192 0.147338 2.848645 0
M  V30 56 H 5.942638 -2.339674 2.565068 0
M  V30 57 H 3.235404 -5.731813 1.190038 0
M  V30 58 H -0.444802 -3.032349 0.254107 0
M  V30 59 H -2.489870 -4.162933 -0.453004 0
M  V30 60 H -2.963028 -7.779872 -0.304706 0
M  V30 61 H -3.700837 -6.172019 -0.272535 0
M  V30 62 H -3.141234 -5.818318 -2.641668 0
M  V30 63 H -4.860200 -7.113247 -3.238529 0
M  V30 64 H -4.980965 -7.130737 -1.565326 0
M  V30 65 H -1.920477 -8.838380 -4.634873 0
M  V30 66 H -0.411115 -7.935349 -0.157761 0
M  V30 67 H 1.589899 -6.714308 0.541099 0
M  V30 END ATOM
M  V30 BEGIN BOND
M  V30 1 1 1 2
M  V30 2 1 2 3
M  V30 3 1 3 4
M  V30 4 1 4 5
M  V30 5 1 5 6
M  V30 6 2 6 7
M  V30 7 1 7 8
M  V30 8 2 8 9
M  V30 9 1 9 10
M  V30 10 2 10 11
M  V30 11 1 2 12
M  V30 12 1 12 13
M  V30 13 2 13 14
M  V30 14 1 13 15
M  V30 15 1 15 16
M  V30 16 2 16 17
M  V30 17 1 17 18
M  V30 18 2 18 19
M  V30 19 1 19 20
M  V30 20 2 20 21
M  V30 21 1 21 22
M  V30 22 1 22 23
M  V30 23 2 23 24
M  V30 24 1 24 25
M  V30 25 2 25 26
M  V30 26 1 26 27
M  V30 27 1 27 28
M  V30 28 1 28 29
M  V30 29 1 28 30
M  V30 30 2 30 31
M  V30 31 1 30 32
M  V30 32 1 26 33
M  V30 33 2 33 34
M  V30 34 2 22 35
M  V30 35 1 35 36
M  V30 36 2 36 37
M  V30 37 1 11 6
M  V30 38 1 37 16
M  V30 39 1 36 19
M  V30 40 1 34 23
M  V30 41 1 1 38
M  V30 42 1 1 39
M  V30 43 1 1 40
M  V30 44 1 2 41 CFG=3
M  V30 45 1 3 42
M  V30 46 1 3 43
M  V30 47 1 4 44
M  V30 48 1 4 45
M  V30 49 1 5 46
M  V30 50 1 5 47
M  V30 51 1 7 48
M  V30 52 1 8 49
M  V30 53 1 9 50
M  V30 54 1 10 51
M  V30 55 1 11 52
M  V30 56 1 12 53
M  V30 57 1 15 54
M  V30 58 1 17 55
M  V30 59 1 18 56
M  V30 60 1 21 57
M  V30 61 1 24 58
M  V30 62 1 25 59
M  V30 63 1 27 60
M  V30 64 1 27 61
M  V30 65 1 28 62 CFG=3
M  V30 66 1 29 63
M  V30 67 1 29 64
M  V30 68 1 32 65
M  V30 69 1 33 66
M  V30 70 1 34 67
M  V30 END BOND
M  V30 END CTAB
M  END
>  <Dataset>  (7) 
ChEMBL_Kinases

>  <Ligand_Instance>  (7) 
nan

>  <PDB_ID>  (7) 
nan

>  <Standardized_SMILES>  (7) 
C[C@H](CCCc1ccccc1)NC(=O)Nc1ccc2ncc(-c3ccc(C[C@H](N)C(=O)O)cc3)nc2n1

>  <Name>  (7) 
nan

>  <Pocket>  (7) 
nan

>  <ATP_Site>  (7) 
nan

>  <Peripheral>  (7) 
nan

>  <Num_H_Atoms_ProtBoundConf>  (7) 
nan

>  <Num_Resolved_Atoms>  (7) 
nan

>  <Num_Not_Resolved_Atoms>  (7) 
nan

$$$$
CHEMBL3671114
     RDKit          3D

  0  0  0  0  0  0  0  0  0  0999 V3000
M  V30 BEGIN CTAB
M  V30 COUNTS 56 59 0 0 0
M  V30 BEGIN ATOM
M  V30 1 O 0.311732 -1.247735 2.006171 0
M  V30 2 C 0.483278 -0.762785 3.152760 0
M  V30 3 N 1.760228 -0.745638 3.731341 0
M  V30 4 C 2.982586 -1.248036 3.134781 0
M  V30 5 C 3.202504 -0.466028 1.850192 0
M  V30 6 C 3.323123 0.980637 2.199445 0
M  V30 7 C 3.546146 1.865622 0.992241 0
M  V30 8 C 4.773637 1.538403 0.245073 0
M  V30 9 C 6.007349 2.093801 0.492191 0
M  V30 10 C 7.074136 1.695813 -0.285415 0
M  V30 11 C 6.997672 0.776614 -1.299397 0
M  V30 12 C 5.776943 0.197449 -1.577336 0
M  V30 13 C 4.694786 0.600197 -0.789627 0
M  V30 14 N -0.685646 -0.257594 3.776691 0
M  V30 15 C -1.957640 -0.303231 3.137156 0
M  V30 16 C -3.060655 0.203598 3.792922 0
M  V30 17 C -4.285007 0.147477 3.150354 0
M  V30 18 C -4.398866 -0.405637 1.876968 0
M  V30 19 N -5.581080 -0.482610 1.206062 0
M  V30 20 C -5.640288 -1.025342 -0.021184 0
M  V30 21 C -4.516200 -1.523101 -0.647942 0
M  V30 22 N -4.463153 -2.116715 -1.940442 0
M  V30 23 C -3.231730 -2.626284 -2.547500 0
M  V30 24 C -3.361900 -4.145016 -2.625533 0
M  V30 25 O -4.703112 -4.530400 -2.725938 0
M  V30 26 C -5.421056 -3.616340 -3.525894 0
M  V30 27 C -5.589314 -2.298213 -2.819665 0
M  V30 28 N -3.345126 -1.448102 0.013882 0
M  V30 29 C -3.264924 -0.901635 1.258286 0
M  V30 30 N -2.093322 -0.827756 1.917863 0
M  V30 31 H 1.758694 -0.308359 4.700321 0
M  V30 32 H 3.801662 -1.087176 3.853869 0
M  V30 33 H 2.920599 -2.336005 2.915590 0
M  V30 34 H 2.396408 -0.686553 1.123084 0
M  V30 35 H 4.146098 -0.861494 1.374126 0
M  V30 36 H 4.157568 1.125059 2.885132 0
M  V30 37 H 2.354840 1.295739 2.633657 0
M  V30 38 H 3.617261 2.907304 1.367652 0
M  V30 39 H 2.700731 1.782194 0.282817 0
M  V30 40 H 6.078852 2.818582 1.288250 0
M  V30 41 H 8.050398 2.145471 -0.078386 0
M  V30 42 H 7.832036 0.463271 -1.909920 0
M  V30 43 H 5.574276 -0.545115 -2.353092 0
M  V30 44 H 3.718516 0.149899 -0.997369 0
M  V30 45 H -0.580246 0.149531 4.722912 0
M  V30 46 H -3.022079 0.647247 4.791964 0
M  V30 47 H -5.194157 0.520797 3.592453 0
M  V30 48 H -6.562753 -1.097675 -0.571860 0
M  V30 49 H -2.996520 -2.171831 -3.510449 0
M  V30 50 H -2.356802 -2.444683 -1.868016 0
M  V30 51 H -2.939843 -4.647070 -1.748178 0
M  V30 52 H -2.791467 -4.456191 -3.530826 0
M  V30 53 H -6.428789 -4.063812 -3.672792 0
M  V30 54 H -4.831615 -3.551118 -4.465690 0
M  V30 55 H -6.557289 -2.238089 -2.284819 0
M  V30 56 H -5.557973 -1.437201 -3.546094 0
M  V30 END ATOM
M  V30 BEGIN BOND
M  V30 1 2 1 2
M  V30 2 1 2 3
M  V30 3 1 3 4
M  V30 4 1 4 5
M  V30 5 1 5 6
M  V30 6 1 6 7
M  V30 7 1 7 8
M  V30 8 2 8 9
M  V30 9 1 9 10
M  V30 10 2 10 11
M  V30 11 1 11 12
M  V30 12 2 12 13
M  V30 13 1 2 14
M  V30 14 1 14 15
M  V30 15 2 15 16
M  V30 16 1 16 17
M  V30 17 2 17 18
M  V30 18 1 18 19
M  V30 19 2 19 20
M  V30 20 1 20 21
M  V30 21 1 21 22
M  V30 22 1 22 23
M  V30 23 1 23 24
M  V30 24 1 24 25
M  V30 25 1 25 26
M  V30 26 1 26 27
M  V30 27 2 21 28
M  V30 28 1 28 29
M  V30 29 2 29 30
M  V30 30 1 13 8
M  V30 31 1 30 15
M  V30 32 1 29 18
M  V30 33 1 27 22
M  V30 34 1 3 31
M  V30 35 1 4 32
M  V30 36 1 4 33
M  V30 37 1 5 34
M  V30 38 1 5 35
M  V30 39 1 6 36
M  V30 40 1 6 37
M  V30 41 1 7 38
M  V30 42 1 7 39
M  V30 43 1 9 40
M  V30 44 1 10 41
M  V30 45 1 11 42
M  V30 46 1 12 43
M  V30 47 1 13 44
M  V30 48 1 14 45
M  V30 49 1 16 46
M  V30 50 1 17 47
M  V30 51 1 20 48
M  V30 52 1 23 49
M  V30 53 1 23 50
M  V30 54 1 24 51
M  V30 55 1 24 52
M  V30 56 1 26 53
M  V30 57 1 26 54
M  V30 58 1 27 55
M  V30 59 1 27 56
M  V30 END BOND
M  V30 END CTAB
M  END
>  <Dataset>  (8) 
ChEMBL_Kinases

>  <Ligand_Instance>  (8) 
nan

>  <PDB_ID>  (8) 
nan

>  <Standardized_SMILES>  (8) 
O=C(NCCCCc1ccccc1)Nc1ccc2ncc(N3CCOCC3)nc2n1

>  <Name>  (8) 
nan

>  <Pocket>  (8) 
nan

>  <ATP_Site>  (8) 
nan

>  <Peripheral>  (8) 
nan

>  <Num_H_Atoms_ProtBoundConf>  (8) 
nan

>  <Num_Resolved_Atoms>  (8) 
nan

>  <Num_Not_Resolved_Atoms>  (8) 
nan

$$$$
CHEMBL3671115
     RDKit          3D

  0  0  0  0  0  0  0  0  0  0999 V3000
M  V30 BEGIN CTAB
M  V30 COUNTS 59 62 0 0 0
M  V30 BEGIN ATOM
M  V30 1 C 6.169438 -0.559071 1.059020 0
M  V30 2 C 6.336641 -0.416862 -0.423429 0
M  V30 3 N 7.165237 -1.285209 -1.039140 0
M  V30 4 N 7.172426 -0.991629 -2.351615 0
M  V30 5 C 6.355651 0.055295 -2.569871 0
M  V30 6 C 5.962559 0.825915 -3.775986 0
M  V30 7 C 5.802065 0.458269 -1.385885 0
M  V30 8 C 4.887250 1.441495 -0.815300 0
M  V30 9 C 5.225356 2.694469 -0.344741 0
M  V30 10 N 4.223146 3.469276 0.174355 0
M  V30 11 C 2.943047 3.051632 0.236989 0
M  V30 12 C 1.961477 3.879359 0.793670 0
M  V30 13 C 0.632125 3.452615 0.878605 0
M  V30 14 C 0.356224 2.168652 0.382317 0
M  V30 15 N -0.995225 1.675200 0.486852 0
M  V30 16 C -1.316940 0.395073 -0.097842 0
M  V30 17 O -0.431140 -0.221391 -0.711076 0
M  V30 18 N -2.670635 -0.028507 0.104264 0
M  V30 19 C -3.207341 -1.266367 -0.412545 0 CFG=2
M  V30 20 C -4.540762 -1.133379 -1.059315 0
M  V30 21 C -3.165829 -2.286395 0.723094 0
M  V30 22 C -3.701840 -3.614875 0.300394 0
M  V30 23 C -3.614099 -4.593771 1.421946 0
M  V30 24 C -4.359429 -4.201799 2.615308 0
M  V30 25 C -3.888376 -3.484745 3.682746 0
M  V30 26 C -4.569083 -3.117776 4.814104 0
M  V30 27 C -5.904736 -3.526785 4.880319 0
M  V30 28 C -6.484549 -4.266436 3.834811 0
M  V30 29 C -5.697933 -4.590276 2.720785 0
M  V30 30 N 1.323210 1.433374 -0.132089 0
M  V30 31 C 2.613939 1.779028 -0.245565 0
M  V30 32 N 3.602352 1.032151 -0.750219 0
M  V30 33 H 5.803694 -1.576764 1.300235 0
M  V30 34 H 5.386699 0.142581 1.435345 0
M  V30 35 H 7.159068 -0.389364 1.521760 0
M  V30 36 H 7.699207 -1.453069 -3.126210 0
M  V30 37 H 4.876039 0.883129 -3.951014 0
M  V30 38 H 6.392057 0.317818 -4.672751 0
M  V30 39 H 6.468019 1.833128 -3.785355 0
M  V30 40 H 6.265572 2.973643 -0.422647 0
M  V30 41 H 2.250474 4.868604 1.167381 0
M  V30 42 H -0.133907 4.105682 1.313118 0
M  V30 43 H -1.698217 2.229925 1.000181 0
M  V30 44 H -3.364816 0.532547 0.645197 0
M  V30 45 H -2.465841 -1.608248 -1.206902 0
M  V30 46 H -5.340953 -0.768015 -0.419538 0
M  V30 47 H -4.416173 -0.389464 -1.894166 0
M  V30 48 H -4.800215 -2.097116 -1.562377 0
M  V30 49 H -2.114224 -2.318352 1.054289 0
M  V30 50 H -3.774699 -1.936111 1.579983 0
M  V30 51 H -4.787856 -3.531607 0.001090 0
M  V30 52 H -3.210196 -4.040659 -0.599786 0
M  V30 53 H -3.951490 -5.603788 1.066589 0
M  V30 54 H -2.518824 -4.674145 1.692729 0
M  V30 55 H -2.843082 -3.164351 3.643044 0
M  V30 56 H -4.203892 -2.554147 5.669478 0
M  V30 57 H -6.502036 -3.267106 5.762724 0
M  V30 58 H -7.514198 -4.596122 3.859835 0
M  V30 59 H -6.175568 -5.160094 1.942352 0
M  V30 END ATOM
M  V30 BEGIN BOND
M  V30 1 1 1 2
M  V30 2 2 2 3
M  V30 3 1 3 4
M  V30 4 1 4 5
M  V30 5 1 5 6
M  V30 6 2 5 7
M  V30 7 1 7 8
M  V30 8 2 8 9
M  V30 9 1 9 10
M  V30 10 2 10 11
M  V30 11 1 11 12
M  V30 12 2 12 13
M  V30 13 1 13 14
M  V30 14 1 14 15
M  V30 15 1 15 16
M  V30 16 2 16 17
M  V30 17 1 16 18
M  V30 18 1 18 19
M  V30 19 1 19 20
M  V30 20 1 19 21
M  V30 21 1 21 22
M  V30 22 1 22 23
M  V30 23 1 23 24
M  V30 24 2 24 25
M  V30 25 1 25 26
M  V30 26 2 26 27
M  V30 27 1 27 28
M  V30 28 2 28 29
M  V30 29 2 14 30
M  V30 30 1 30 31
M  V30 31 2 31 32
M  V30 32 1 7 2
M  V30 33 1 32 8
M  V30 34 1 31 11
M  V30 35 1 29 24
M  V30 36 1 1 33
M  V30 37 1 1 34
M  V30 38 1 1 35
M  V30 39 1 4 36
M  V30 40 1 6 37
M  V30 41 1 6 38
M  V30 42 1 6 39
M  V30 43 1 9 40
M  V30 44 1 12 41
M  V30 45 1 13 42
M  V30 46 1 15 43
M  V30 47 1 18 44
M  V30 48 1 19 45 CFG=3
M  V30 49 1 20 46
M  V30 50 1 20 47
M  V30 51 1 20 48
M  V30 52 1 21 49
M  V30 53 1 21 50
M  V30 54 1 22 51
M  V30 55 1 22 52
M  V30 56 1 23 53
M  V30 57 1 23 54
M  V30 58 1 25 55
M  V30 59 1 26 56
M  V30 60 1 27 57
M  V30 61 1 28 58
M  V30 62 1 29 59
M  V30 END BOND
M  V30 END CTAB
M  END
>  <Dataset>  (9) 
ChEMBL_Kinases

>  <Ligand_Instance>  (9) 
nan

>  <PDB_ID>  (9) 
nan

>  <Standardized_SMILES>  (9) 
Cc1n[nH]c(C)c1-c1cnc2ccc(NC(=O)N[C@H](C)CCCc3ccccc3)nc2n1

>  <Name>  (9) 
nan

>  <Pocket>  (9) 
nan

>  <ATP_Site>  (9) 
nan

>  <Peripheral>  (9) 
nan

>  <Num_H_Atoms_ProtBoundConf>  (9) 
nan

>  <Num_Resolved_Atoms>  (9) 
nan

>  <Num_Not_Resolved_Atoms>  (9) 
nan

$$$$
CHEMBL3671116
     RDKit          3D

  0  0  0  0  0  0  0  0  0  0999 V3000
M  V30 BEGIN CTAB
M  V30 COUNTS 61 64 0 0 0
M  V30 BEGIN ATOM
M  V30 1 C 4.365984 -4.692996 5.707506 0
M  V30 2 O 3.123305 -4.398906 5.103108 0
M  V30 3 C 3.079247 -3.329928 4.206775 0
M  V30 4 C 4.248661 -2.614175 3.955347 0
M  V30 5 C 4.169966 -1.564524 3.064771 0
M  V30 6 C 3.056171 -1.161435 2.407474 0
M  V30 7 C 3.012733 -0.042656 1.477008 0
M  V30 8 C 4.127062 0.715053 1.194762 0
M  V30 9 N 4.131252 1.773649 0.336658 0
M  V30 10 C 2.964378 2.111233 -0.285978 0
M  V30 11 C 3.013643 3.187873 -1.141945 0
M  V30 12 C 1.832470 3.528637 -1.768273 0
M  V30 13 C 0.698131 2.790956 -1.508781 0
M  V30 14 N -0.486239 3.196457 -2.177394 0
M  V30 15 C -1.662660 2.437868 -1.961586 0
M  V30 16 O -1.601696 1.443208 -1.203400 0
M  V30 17 N -2.915643 2.678557 -2.511929 0
M  V30 18 C -4.239748 2.143341 -2.538722 0
M  V30 19 C -4.396865 0.800589 -3.150402 0
M  V30 20 C -3.694007 -0.359429 -2.564261 0
M  V30 21 C -4.033038 -0.667754 -1.126474 0
M  V30 22 C -3.247026 -1.870571 -0.742491 0
M  V30 23 C -3.829559 -3.126835 -0.960611 0
M  V30 24 C -3.265452 -4.353860 -0.675446 0
M  V30 25 C -2.016201 -4.326266 -0.127096 0
M  V30 26 C -1.389310 -3.124335 0.112248 0
M  V30 27 C -1.986588 -1.938361 -0.186106 0
M  V30 28 N 0.726051 1.753847 -0.661885 0
M  V30 29 C 1.839746 1.363303 -0.015053 0
M  V30 30 N 1.870963 0.323283 0.838570 0
M  V30 31 C 1.908106 -1.880528 2.667829 0
M  V30 32 C 1.906591 -2.957210 3.557559 0
M  V30 33 O 0.818393 -3.721639 3.873525 0
M  V30 34 C -0.484342 -3.596029 3.392897 0
M  V30 35 H 4.276156 -5.558547 6.400077 0
M  V30 36 H 5.156377 -4.876068 4.937729 0
M  V30 37 H 4.725984 -3.818400 6.311964 0
M  V30 38 H 5.168003 -2.892230 4.452568 0
M  V30 39 H 5.110767 -1.053859 2.916460 0
M  V30 40 H 5.090001 0.517298 1.642933 0
M  V30 41 H 3.937115 3.727747 -1.304266 0
M  V30 42 H 1.839057 4.373626 -2.449648 0
M  V30 43 H -0.541590 4.008809 -2.801003 0
M  V30 44 H -2.856476 3.564484 -3.119648 0
M  V30 45 H -4.964283 2.827448 -3.044638 0
M  V30 46 H -4.654950 2.064897 -1.470391 0
M  V30 47 H -3.982806 0.903712 -4.210856 0
M  V30 48 H -5.485097 0.592451 -3.346796 0
M  V30 49 H -4.107547 -1.271935 -3.129930 0
M  V30 50 H -2.638237 -0.369147 -2.819407 0
M  V30 51 H -5.102589 -0.941352 -1.088031 0
M  V30 52 H -3.907195 0.173364 -0.433703 0
M  V30 53 H -4.837769 -3.150778 -1.403027 0
M  V30 54 H -3.803513 -5.253371 -0.884771 0
M  V30 55 H -1.545809 -5.278236 0.108519 0
M  V30 56 H -0.394041 -3.077470 0.547037 0
M  V30 57 H -1.517215 -0.999174 -0.005570 0
M  V30 58 H 0.967793 -1.634051 2.190203 0
M  V30 59 H -0.678135 -2.626541 2.886804 0
M  V30 60 H -1.190988 -3.708374 4.265116 0
M  V30 61 H -0.735304 -4.425337 2.699504 0
M  V30 END ATOM
M  V30 BEGIN BOND
M  V30 1 1 1 2
M  V30 2 1 2 3
M  V30 3 2 3 4
M  V30 4 1 4 5
M  V30 5 2 5 6
M  V30 6 1 6 7
M  V30 7 2 7 8
M  V30 8 1 8 9
M  V30 9 2 9 10
M  V30 10 1 10 11
M  V30 11 2 11 12
M  V30 12 1 12 13
M  V30 13 1 13 14
M  V30 14 1 14 15
M  V30 15 2 15 16
M  V30 16 1 15 17
M  V30 17 1 17 18
M  V30 18 1 18 19
M  V30 19 1 19 20
M  V30 20 1 20 21
M  V30 21 1 21 22
M  V30 22 2 22 23
M  V30 23 1 23 24
M  V30 24 2 24 25
M  V30 25 1 25 26
M  V30 26 2 26 27
M  V30 27 2 13 28
M  V30 28 1 28 29
M  V30 29 2 29 30
M  V30 30 1 6 31
M  V30 31 2 31 32
M  V30 32 1 32 33
M  V30 33 1 33 34
M  V30 34 1 32 3
M  V30 35 1 30 7
M  V30 36 1 29 10
M  V30 37 1 27 22
M  V30 38 1 1 35
M  V30 39 1 1 36
M  V30 40 1 1 37
M  V30 41 1 4 38
M  V30 42 1 5 39
M  V30 43 1 8 40
M  V30 44 1 11 41
M  V30 45 1 12 42
M  V30 46 1 14 43
M  V30 47 1 17 44
M  V30 48 1 18 45
M  V30 49 1 18 46
M  V30 50 1 19 47
M  V30 51 1 19 48
M  V30 52 1 20 49
M  V30 53 1 20 50
M  V30 54 1 21 51
M  V30 55 1 21 52
M  V30 56 1 23 53
M  V30 57 1 24 54
M  V30 58 1 25 55
M  V30 59 1 26 56
M  V30 60 1 27 57
M  V30 61 1 31 58
M  V30 62 1 34 59
M  V30 63 1 34 60
M  V30 64 1 34 61
M  V30 END BOND
M  V30 END CTAB
M  END
>  <Dataset>  (10) 
ChEMBL_Kinases

>  <Ligand_Instance>  (10) 
nan

>  <PDB_ID>  (10) 
nan

>  <Standardized_SMILES>  (10) 
COc1ccc(-c2cnc3ccc(NC(=O)NCCCCc4ccccc4)nc3n2)cc1OC

>  <Name>  (10) 
nan

>  <Pocket>  (10) 
nan

>  <ATP_Site>  (10) 
nan

>  <Peripheral>  (10) 
nan

>  <Num_H_Atoms_ProtBoundConf>  (10) 
nan

>  <Num_Resolved_Atoms>  (10) 
nan

>  <Num_Not_Resolved_Atoms>  (10) 
nan

$$$$
CHEMBL3671117
     RDKit          3D

  0  0  0  0  0  0  0  0  0  0999 V3000
M  V30 BEGIN CTAB
M  V30 COUNTS 60 63 0 0 0
M  V30 BEGIN ATOM
M  V30 1 C 8.805192 2.051515 -1.163124 0
M  V30 2 O 7.457835 1.805819 -0.854016 0
M  V30 3 C 7.045742 0.655631 -0.215651 0
M  V30 4 C 8.021847 -0.257632 0.113183 0
M  V30 5 C 7.652277 -1.421299 0.752844 0
M  V30 6 C 6.317688 -1.605875 1.029049 0
M  V30 7 C 5.370468 -0.665253 0.682273 0
M  V30 8 C 5.706925 0.511970 0.040321 0
M  V30 9 C 4.629732 1.425910 -0.276307 0
M  V30 10 C 4.687345 2.642396 -0.900277 0
M  V30 11 N 3.615108 3.411059 -1.145687 0
M  V30 12 C 2.384980 3.015229 -0.779901 0
M  V30 13 C 1.240459 3.747177 -0.997797 0
M  V30 14 C 0.016585 3.259658 -0.587341 0
M  V30 15 C -0.058028 2.036232 0.042464 0
M  V30 16 N -1.231631 1.391283 0.524998 0
M  V30 17 C -1.866489 0.534381 -0.436255 0
M  V30 18 O -1.512550 0.292274 -1.630343 0
M  V30 19 N -3.049678 -0.130419 0.012721 0
M  V30 20 C -3.981054 -1.057046 -0.601173 0 CFG=2
M  V30 21 C -5.389286 -0.534592 -0.643469 0
M  V30 22 C -3.978293 -2.393486 0.100587 0
M  V30 23 C -4.921152 -3.398127 -0.486437 0
M  V30 24 C -4.825032 -4.668589 0.292286 0
M  V30 25 C -5.155327 -4.570950 1.714168 0
M  V30 26 C -4.233284 -4.291361 2.707143 0
M  V30 27 C -4.603991 -4.209574 4.049392 0
M  V30 28 C -5.938159 -4.413844 4.408742 0
M  V30 29 C -6.857264 -4.693902 3.407097 0
M  V30 30 C -6.454503 -4.767042 2.089978 0
M  V30 31 N 1.079425 1.333555 0.246522 0
M  V30 32 C 2.278858 1.796783 -0.148297 0
M  V30 33 N 3.383787 1.065585 0.073661 0
M  V30 34 H 9.335939 2.194754 -0.202294 0
M  V30 35 H 9.289869 1.211147 -1.719882 0
M  V30 36 H 8.863350 2.951363 -1.821713 0
M  V30 37 H 9.058241 -0.064087 -0.126806 0
M  V30 38 H 8.420836 -2.136503 1.009195 0
M  V30 39 H 6.045115 -2.513979 1.526226 0
M  V30 40 H 4.342721 -0.934387 0.957997 0
M  V30 41 H 5.643299 3.010005 -1.214894 0
M  V30 42 H 1.309880 4.705570 -1.492467 0
M  V30 43 H -0.904628 3.771970 -0.723758 0
M  V30 44 H -1.554855 1.567851 1.509146 0
M  V30 45 H -3.432305 0.001693 0.991602 0
M  V30 46 H -3.604131 -1.221791 -1.638577 0
M  V30 47 H -5.471229 0.550179 -0.480676 0
M  V30 48 H -5.803504 -0.728265 -1.660311 0
M  V30 49 H -6.044295 -1.086782 0.061107 0
M  V30 50 H -4.116344 -2.272910 1.195636 0
M  V30 51 H -2.950909 -2.801506 -0.032260 0
M  V30 52 H -5.944694 -3.024496 -0.621430 0
M  V30 53 H -4.549824 -3.634962 -1.514345 0
M  V30 54 H -5.392893 -5.473580 -0.234193 0
M  V30 55 H -3.762970 -5.001029 0.229098 0
M  V30 56 H -3.210024 -4.135851 2.424521 0
M  V30 57 H -3.901069 -3.993049 4.839026 0
M  V30 58 H -6.232567 -4.353221 5.439133 0
M  V30 59 H -7.876868 -4.841460 3.758123 0
M  V30 60 H -7.238000 -4.989105 1.386314 0
M  V30 END ATOM
M  V30 BEGIN BOND
M  V30 1 1 1 2
M  V30 2 1 2 3
M  V30 3 2 3 4
M  V30 4 1 4 5
M  V30 5 2 5 6
M  V30 6 1 6 7
M  V30 7 2 7 8
M  V30 8 1 8 9
M  V30 9 2 9 10
M  V30 10 1 10 11
M  V30 11 2 11 12
M  V30 12 1 12 13
M  V30 13 2 13 14
M  V30 14 1 14 15
M  V30 15 1 15 16
M  V30 16 1 16 17
M  V30 17 2 17 18
M  V30 18 1 17 19
M  V30 19 1 19 20
M  V30 20 1 20 21
M  V30 21 1 20 22
M  V30 22 1 22 23
M  V30 23 1 23 24
M  V30 24 1 24 25
M  V30 25 2 25 26
M  V30 26 1 26 27
M  V30 27 2 27 28
M  V30 28 1 28 29
M  V30 29 2 29 30
M  V30 30 2 15 31
M  V30 31 1 31 32
M  V30 32 2 32 33
M  V30 33 1 8 3
M  V30 34 1 33 9
M  V30 35 1 32 12
M  V30 36 1 30 25
M  V30 37 1 1 34
M  V30 38 1 1 35
M  V30 39 1 1 36
M  V30 40 1 4 37
M  V30 41 1 5 38
M  V30 42 1 6 39
M  V30 43 1 7 40
M  V30 44 1 10 41
M  V30 45 1 13 42
M  V30 46 1 14 43
M  V30 47 1 16 44
M  V30 48 1 19 45
M  V30 49 1 20 46 CFG=3
M  V30 50 1 21 47
M  V30 51 1 21 48
M  V30 52 1 21 49
M  V30 53 1 22 50
M  V30 54 1 22 51
M  V30 55 1 23 52
M  V30 56 1 23 53
M  V30 57 1 24 54
M  V30 58 1 24 55
M  V30 59 1 26 56
M  V30 60 1 27 57
M  V30 61 1 28 58
M  V30 62 1 29 59
M  V30 63 1 30 60
M  V30 END BOND
M  V30 END CTAB
M  END
>  <Dataset>  (11) 
ChEMBL_Kinases

>  <Ligand_Instance>  (11) 
nan

>  <PDB_ID>  (11) 
nan

>  <Standardized_SMILES>  (11) 
COc1ccccc1-c1cnc2ccc(NC(=O)N[C@H](C)CCCc3ccccc3)nc2n1

>  <Name>  (11) 
nan

>  <Pocket>  (11) 
nan

>  <ATP_Site>  (11) 
nan

>  <Peripheral>  (11) 
nan

>  <Num_H_Atoms_ProtBoundConf>  (11) 
nan

>  <Num_Resolved_Atoms>  (11) 
nan

>  <Num_Not_Resolved_Atoms>  (11) 
nan

$$$$
CHEMBL3671118
     RDKit          3D

  0  0  0  0  0  0  0  0  0  0999 V3000
M  V30 BEGIN CTAB
M  V30 COUNTS 56 59 0 0 0
M  V30 BEGIN ATOM
M  V30 1 C 0.849463 0.132273 5.294024 0
M  V30 2 C 1.558526 0.417857 3.932438 0 CFG=2
M  V30 3 C 2.807394 1.167377 4.152415 0
M  V30 4 C 3.653878 1.573049 3.034818 0
M  V30 5 C 4.332728 0.637688 2.138523 0
M  V30 6 C 3.478240 -0.250578 1.377665 0
M  V30 7 C 2.904061 0.290523 0.216354 0
M  V30 8 C 2.110540 -0.380580 -0.682197 0
M  V30 9 C 1.837248 -1.708160 -0.445716 0
M  V30 10 C 2.362727 -2.315358 0.673287 0
M  V30 11 C 3.145018 -1.602850 1.533707 0
M  V30 12 N 0.566382 1.189308 3.171297 0
M  V30 13 C -0.268389 0.858779 2.093977 0
M  V30 14 O -0.179793 -0.321750 1.670654 0
M  V30 15 N -1.125989 1.871614 1.585210 0
M  V30 16 C -1.956703 1.498859 0.491650 0
M  V30 17 C -2.824755 2.409491 -0.071215 0
M  V30 18 C -3.653324 2.081284 -1.143488 0
M  V30 19 C -3.613480 0.802112 -1.670639 0
M  V30 20 N -4.365591 0.362708 -2.707497 0
M  V30 21 C -4.252014 -0.913587 -3.151154 0
M  V30 22 C -3.379202 -1.813425 -2.578275 0
M  V30 23 C -3.278613 -3.179847 -3.077818 0
M  V30 24 C -3.950292 -3.805871 -4.107714 0
M  V30 25 N -3.471007 -5.081378 -4.144699 0
M  V30 26 N -2.569613 -5.262263 -3.220174 0
M  V30 27 C -1.797826 -6.451763 -2.893371 0
M  V30 28 C -2.401890 -4.118675 -2.520436 0
M  V30 29 N -2.638100 -1.355795 -1.545616 0
M  V30 30 C -2.737561 -0.092959 -1.092021 0
M  V30 31 N -1.959008 0.273185 -0.058622 0
M  V30 32 H 1.319040 -0.791278 5.717184 0
M  V30 33 H 1.012294 0.950894 5.993573 0
M  V30 34 H -0.202997 -0.083156 5.042279 0
M  V30 35 H 1.621622 -0.569594 3.493563 0
M  V30 36 H 2.569826 2.086568 4.771604 0
M  V30 37 H 3.461716 0.546314 4.858603 0
M  V30 38 H 3.076671 2.366936 2.452545 0
M  V30 39 H 4.490879 2.240622 3.474673 0
M  V30 40 H 4.954211 1.207275 1.359527 0
M  V30 41 H 5.165089 0.068573 2.670562 0
M  V30 42 H 3.074555 1.347306 -0.044811 0
M  V30 43 H 1.701648 0.101220 -1.557090 0
M  V30 44 H 1.228140 -2.329158 -1.082957 0
M  V30 45 H 2.198442 -3.369462 0.942866 0
M  V30 46 H 3.599178 -2.007792 2.441440 0
M  V30 47 H 0.549312 2.164052 3.587275 0
M  V30 48 H -1.176376 2.830627 1.953371 0
M  V30 49 H -2.902086 3.420605 0.294216 0
M  V30 50 H -4.341738 2.771338 -1.604102 0
M  V30 51 H -4.867234 -1.226008 -3.978431 0
M  V30 52 H -4.694959 -3.305686 -4.714396 0
M  V30 53 H -1.839503 -7.106708 -3.797734 0
M  V30 54 H -0.720906 -6.149600 -2.759742 0
M  V30 55 H -2.115223 -6.945219 -1.967626 0
M  V30 56 H -1.721154 -3.935797 -1.678914 0
M  V30 END ATOM
M  V30 BEGIN BOND
M  V30 1 1 1 2
M  V30 2 1 2 3
M  V30 3 1 3 4
M  V30 4 1 4 5
M  V30 5 1 5 6
M  V30 6 2 6 7
M  V30 7 1 7 8
M  V30 8 2 8 9
M  V30 9 1 9 10
M  V30 10 2 10 11
M  V30 11 1 2 12
M  V30 12 1 12 13
M  V30 13 2 13 14
M  V30 14 1 13 15
M  V30 15 1 15 16
M  V30 16 2 16 17
M  V30 17 1 17 18
M  V30 18 2 18 19
M  V30 19 1 19 20
M  V30 20 2 20 21
M  V30 21 1 21 22
M  V30 22 1 22 23
M  V30 23 1 23 24
M  V30 24 2 24 25
M  V30 25 1 25 26
M  V30 26 1 26 27
M  V30 27 1 26 28
M  V30 28 2 22 29
M  V30 29 1 29 30
M  V30 30 2 30 31
M  V30 31 1 11 6
M  V30 32 1 31 16
M  V30 33 1 30 19
M  V30 34 2 28 23
M  V30 35 1 1 32
M  V30 36 1 1 33
M  V30 37 1 1 34
M  V30 38 1 2 35 CFG=3
M  V30 39 1 3 36
M  V30 40 1 3 37
M  V30 41 1 4 38
M  V30 42 1 4 39
M  V30 43 1 5 40
M  V30 44 1 5 41
M  V30 45 1 7 42
M  V30 46 1 8 43
M  V30 47 1 9 44
M  V30 48 1 10 45
M  V30 49 1 11 46
M  V30 50 1 12 47
M  V30 51 1 15 48
M  V30 52 1 17 49
M  V30 53 1 18 50
M  V30 54 1 21 51
M  V30 55 1 24 52
M  V30 56 1 27 53
M  V30 57 1 27 54
M  V30 58 1 27 55
M  V30 59 1 28 56
M  V30 END BOND
M  V30 END CTAB
M  END
>  <Dataset>  (12) 
ChEMBL_Kinases

>  <Ligand_Instance>  (12) 
nan

>  <PDB_ID>  (12) 
nan

>  <Standardized_SMILES>  (12) 
C[C@H](CCCc1ccccc1)NC(=O)Nc1ccc2ncc(-c3cnn(C)c3)nc2n1

>  <Name>  (12) 
nan

>  <Pocket>  (12) 
nan

>  <ATP_Site>  (12) 
nan

>  <Peripheral>  (12) 
nan

>  <Num_H_Atoms_ProtBoundConf>  (12) 
nan

>  <Num_Resolved_Atoms>  (12) 
nan

>  <Num_Not_Resolved_Atoms>  (12) 
nan

$$$$
CHEMBL3671119
     RDKit          3D

  0  0  0  0  0  0  0  0  0  0999 V3000
M  V30 BEGIN CTAB
M  V30 COUNTS 60 63 0 0 0
M  V30 BEGIN ATOM
M  V30 1 C 3.019016 2.510038 2.313491 0
M  V30 2 C 2.424902 1.328999 1.666332 0 CFG=2
M  V30 3 C 3.170482 0.572688 0.641945 0
M  V30 4 C 4.460797 -0.039693 0.990720 0
M  V30 5 C 5.633932 0.807068 1.302048 0
M  V30 6 C 6.133411 1.622382 0.165762 0
M  V30 7 C 5.989179 2.878944 -0.344721 0
M  V30 8 C 6.602503 3.340115 -1.476659 0
M  V30 9 C 7.445838 2.540804 -2.216685 0
M  V30 10 C 7.639006 1.257051 -1.759275 0
M  V30 11 C 7.000905 0.828918 -0.611380 0
M  V30 12 N 1.088124 1.636781 1.107463 0
M  V30 13 C -0.127307 1.044183 1.601056 0
M  V30 14 O -0.002686 0.232383 2.551549 0
M  V30 15 N -1.339195 1.452864 0.946527 0
M  V30 16 C -2.529568 0.851789 1.453462 0
M  V30 17 C -3.321462 1.342412 2.472732 0
M  V30 18 C -4.443711 0.636899 2.843784 0
M  V30 19 C -4.753803 -0.539783 2.194036 0
M  V30 20 N -5.836844 -1.268072 2.516093 0
M  V30 21 C -6.137741 -2.425844 1.873579 0
M  V30 22 C -5.338432 -2.905446 0.856675 0
M  V30 23 C -5.621569 -4.141216 0.139789 0
M  V30 24 C -6.702109 -4.960406 0.390152 0
M  V30 25 C -6.883310 -6.114617 -0.347449 0
M  V30 26 C -6.019208 -6.505794 -1.349799 0
M  V30 27 C -4.929519 -5.682612 -1.604517 0
M  V30 28 C -3.960896 -6.050939 -2.674978 0
M  V30 29 O -2.928525 -6.839418 -2.179643 0
M  V30 30 C -4.784361 -4.551678 -0.855471 0
M  V30 31 N -4.258330 -2.166180 0.545482 0
M  V30 32 C -3.952211 -1.016774 1.177324 0
M  V30 33 N -2.864829 -0.307625 0.837371 0
M  V30 34 H 2.139886 3.163070 2.667522 0
M  V30 35 H 3.529438 2.189157 3.273965 0
M  V30 36 H 3.613978 3.186324 1.703439 0
M  V30 37 H 2.179501 0.578547 2.489222 0
M  V30 38 H 3.324525 1.149757 -0.309684 0
M  V30 39 H 2.487870 -0.271002 0.315167 0
M  V30 40 H 4.331118 -0.739550 1.861733 0
M  V30 41 H 4.786390 -0.717674 0.135691 0
M  V30 42 H 5.471754 1.506068 2.158598 0
M  V30 43 H 6.432612 0.111018 1.698220 0
M  V30 44 H 5.331676 3.459813 0.272678 0
M  V30 45 H 6.345625 4.366626 -1.697180 0
M  V30 46 H 7.846402 3.048361 -3.073365 0
M  V30 47 H 8.307048 0.670098 -2.371525 0
M  V30 48 H 7.286248 -0.220148 -0.417985 0
M  V30 49 H 1.054473 2.325189 0.311673 0
M  V30 50 H -1.392465 2.140447 0.149502 0
M  V30 51 H -2.996837 2.271196 2.920750 0
M  V30 52 H -5.062928 1.018733 3.639556 0
M  V30 53 H -7.016740 -2.962072 2.177015 0
M  V30 54 H -7.396058 -4.684279 1.166010 0
M  V30 55 H -7.744715 -6.768418 -0.148421 0
M  V30 56 H -6.155485 -7.401475 -1.925697 0
M  V30 57 H -4.470591 -6.528631 -3.538934 0
M  V30 58 H -3.498946 -5.096767 -3.036847 0
M  V30 59 H -2.733555 -6.585049 -1.244085 0
M  V30 60 H -3.916028 -3.922525 -1.078942 0
M  V30 END ATOM
M  V30 BEGIN BOND
M  V30 1 1 1 2
M  V30 2 1 2 3
M  V30 3 1 3 4
M  V30 4 1 4 5
M  V30 5 1 5 6
M  V30 6 2 6 7
M  V30 7 1 7 8
M  V30 8 2 8 9
M  V30 9 1 9 10
M  V30 10 2 10 11
M  V30 11 1 2 12
M  V30 12 1 12 13
M  V30 13 2 13 14
M  V30 14 1 13 15
M  V30 15 1 15 16
M  V30 16 2 16 17
M  V30 17 1 17 18
M  V30 18 2 18 19
M  V30 19 1 19 20
M  V30 20 2 20 21
M  V30 21 1 21 22
M  V30 22 1 22 23
M  V30 23 2 23 24
M  V30 24 1 24 25
M  V30 25 2 25 26
M  V30 26 1 26 27
M  V30 27 1 27 28
M  V30 28 1 28 29
M  V30 29 2 27 30
M  V30 30 2 22 31
M  V30 31 1 31 32
M  V30 32 2 32 33
M  V30 33 1 11 6
M  V30 34 1 33 16
M  V30 35 1 32 19
M  V30 36 1 30 23
M  V30 37 1 1 34
M  V30 38 1 1 35
M  V30 39 1 1 36
M  V30 40 1 2 37 CFG=1
M  V30 41 1 3 38
M  V30 42 1 3 39
M  V30 43 1 4 40
M  V30 44 1 4 41
M  V30 45 1 5 42
M  V30 46 1 5 43
M  V30 47 1 7 44
M  V30 48 1 8 45
M  V30 49 1 9 46
M  V30 50 1 10 47
M  V30 51 1 11 48
M  V30 52 1 12 49
M  V30 53 1 15 50
M  V30 54 1 17 51
M  V30 55 1 18 52
M  V30 56 1 21 53
M  V30 57 1 24 54
M  V30 58 1 25 55
M  V30 59 1 26 56
M  V30 60 1 28 57
M  V30 61 1 28 58
M  V30 62 1 29 59
M  V30 63 1 30 60
M  V30 END BOND
M  V30 END CTAB
M  END
>  <Dataset>  (13) 
ChEMBL_Kinases

>  <Ligand_Instance>  (13) 
nan

>  <PDB_ID>  (13) 
nan

>  <Standardized_SMILES>  (13) 
C[C@H](CCCc1ccccc1)NC(=O)Nc1ccc2ncc(-c3cccc(CO)c3)nc2n1

>  <Name>  (13) 
nan

>  <Pocket>  (13) 
nan

>  <ATP_Site>  (13) 
nan

>  <Peripheral>  (13) 
nan

>  <Num_H_Atoms_ProtBoundConf>  (13) 
nan

>  <Num_Resolved_Atoms>  (13) 
nan

>  <Num_Not_Resolved_Atoms>  (13) 
nan

$$$$
CHEMBL3671120
     RDKit          3D

  0  0  0  0  0  0  0  0  0  0999 V3000
M  V30 BEGIN CTAB
M  V30 COUNTS 57 60 0 0 0
M  V30 BEGIN ATOM
M  V30 1 O 1.336817 -0.560290 1.730685 0
M  V30 2 C 0.625426 0.083231 2.560857 0
M  V30 3 N 1.170630 0.612445 3.763304 0
M  V30 4 C 2.550852 0.456325 4.117269 0
M  V30 5 C 3.507307 1.061347 3.110296 0
M  V30 6 C 3.298699 2.529932 2.936203 0
M  V30 7 C 4.280038 3.072061 1.922316 0
M  V30 8 C 4.098860 4.528069 1.726931 0
M  V30 9 C 3.223094 4.971127 0.754152 0
M  V30 10 C 2.981912 6.311339 0.491471 0
M  V30 11 C 3.645371 7.266002 1.233949 0
M  V30 12 C 4.525573 6.846680 2.211766 0
M  V30 13 C 4.761620 5.507668 2.468737 0
M  V30 14 N -0.738037 0.221330 2.182273 0
M  V30 15 C -1.246990 -0.330361 0.955982 0
M  V30 16 C -1.217461 0.450995 -0.186848 0
M  V30 17 C -1.708411 -0.075030 -1.380060 0
M  V30 18 C -2.214127 -1.360479 -1.404457 0
M  V30 19 N -2.698949 -1.899004 -2.551986 0
M  V30 20 C -3.202116 -3.150728 -2.620553 0
M  V30 21 C -3.204411 -3.879989 -1.448716 0
M  V30 22 C -3.737247 -5.239217 -1.466914 0
M  V30 23 C -3.821684 -6.113537 -0.402478 0
M  V30 24 N -4.377782 -7.270349 -0.845538 0
M  V30 25 N -4.643402 -7.156710 -2.136251 0
M  V30 26 C -5.233493 -8.099583 -3.067275 0
M  V30 27 C -4.113689 -8.931392 -3.698763 0
M  V30 28 O -3.408502 -9.630083 -2.726398 0
M  V30 29 C -4.260119 -5.914193 -2.552028 0
M  V30 30 N -2.733661 -3.385796 -0.287974 0
M  V30 31 C -2.227986 -2.118812 -0.233658 0
M  V30 32 N -1.747423 -1.583787 0.901710 0
M  V30 33 H 0.465595 1.115589 4.343916 0
M  V30 34 H 2.757927 -0.614169 4.277478 0
M  V30 35 H 2.708050 0.936379 5.115758 0
M  V30 36 H 3.361701 0.531040 2.145033 0
M  V30 37 H 4.529648 0.834588 3.439081 0
M  V30 38 H 3.548069 3.037566 3.903570 0
M  V30 39 H 2.271934 2.786125 2.677618 0
M  V30 40 H 5.304273 2.893787 2.358524 0
M  V30 41 H 4.185521 2.537591 0.936915 0
M  V30 42 H 2.694706 4.243876 0.162943 0
M  V30 43 H 2.272889 6.567521 -0.296525 0
M  V30 44 H 3.483104 8.308929 1.057827 0
M  V30 45 H 5.061499 7.578154 2.811363 0
M  V30 46 H 5.439742 5.128701 3.221819 0
M  V30 47 H -1.365650 0.742006 2.830097 0
M  V30 48 H -0.817694 1.471858 -0.175291 0
M  V30 49 H -1.698834 0.510701 -2.289073 0
M  V30 50 H -3.575717 -3.530331 -3.562129 0
M  V30 51 H -3.503111 -5.934217 0.634374 0
M  V30 52 H -5.861644 -8.846628 -2.510882 0
M  V30 53 H -5.806098 -7.613157 -3.855765 0
M  V30 54 H -4.498286 -9.587595 -4.481613 0
M  V30 55 H -3.361290 -8.239577 -4.177522 0
M  V30 56 H -2.668191 -9.094746 -2.386868 0
M  V30 57 H -4.336838 -5.496956 -3.547561 0
M  V30 END ATOM
M  V30 BEGIN BOND
M  V30 1 2 1 2
M  V30 2 1 2 3
M  V30 3 1 3 4
M  V30 4 1 4 5
M  V30 5 1 5 6
M  V30 6 1 6 7
M  V30 7 1 7 8
M  V30 8 2 8 9
M  V30 9 1 9 10
M  V30 10 2 10 11
M  V30 11 1 11 12
M  V30 12 2 12 13
M  V30 13 1 2 14
M  V30 14 1 14 15
M  V30 15 2 15 16
M  V30 16 1 16 17
M  V30 17 2 17 18
M  V30 18 1 18 19
M  V30 19 2 19 20
M  V30 20 1 20 21
M  V30 21 1 21 22
M  V30 22 1 22 23
M  V30 23 2 23 24
M  V30 24 1 24 25
M  V30 25 1 25 26
M  V30 26 1 26 27
M  V30 27 1 27 28
M  V30 28 1 25 29
M  V30 29 2 21 30
M  V30 30 1 30 31
M  V30 31 2 31 32
M  V30 32 1 13 8
M  V30 33 1 32 15
M  V30 34 1 31 18
M  V30 35 2 29 22
M  V30 36 1 3 33
M  V30 37 1 4 34
M  V30 38 1 4 35
M  V30 39 1 5 36
M  V30 40 1 5 37
M  V30 41 1 6 38
M  V30 42 1 6 39
M  V30 43 1 7 40
M  V30 44 1 7 41
M  V30 45 1 9 42
M  V30 46 1 10 43
M  V30 47 1 11 44
M  V30 48 1 12 45
M  V30 49 1 13 46
M  V30 50 1 14 47
M  V30 51 1 16 48
M  V30 52 1 17 49
M  V30 53 1 20 50
M  V30 54 1 23 51
M  V30 55 1 26 52
M  V30 56 1 26 53
M  V30 57 1 27 54
M  V30 58 1 27 55
M  V30 59 1 28 56
M  V30 60 1 29 57
M  V30 END BOND
M  V30 END CTAB
M  END
>  <Dataset>  (14) 
ChEMBL_Kinases

>  <Ligand_Instance>  (14) 
nan

>  <PDB_ID>  (14) 
nan

>  <Standardized_SMILES>  (14) 
O=C(NCCCCc1ccccc1)Nc1ccc2ncc(-c3cnn(CCO)c3)nc2n1

>  <Name>  (14) 
nan

>  <Pocket>  (14) 
nan

>  <ATP_Site>  (14) 
nan

>  <Peripheral>  (14) 
nan

>  <Num_H_Atoms_ProtBoundConf>  (14) 
nan

>  <Num_Resolved_Atoms>  (14) 
nan

>  <Num_Not_Resolved_Atoms>  (14) 
nan

$$$$
CHEMBL3671121
     RDKit          3D

  0  0  0  0  0  0  0  0  0  0999 V3000
M  V30 BEGIN CTAB
M  V30 COUNTS 60 63 0 0 0
M  V30 BEGIN ATOM
M  V30 1 C -1.264934 -1.222439 3.912318 0
M  V30 2 O -0.226115 -1.312561 4.845670 0
M  V30 3 C 1.076479 -0.894119 4.599134 0
M  V30 4 C 1.463238 -0.343168 3.388351 0
M  V30 5 C 2.757546 0.070616 3.148708 0
M  V30 6 C 3.037665 0.634630 1.832245 0
M  V30 7 C 4.266997 1.098651 1.415639 0
M  V30 8 N 4.465879 1.610177 0.185137 0
M  V30 9 C 3.464189 1.690183 -0.696196 0
M  V30 10 C 3.574546 2.197538 -1.974521 0
M  V30 11 C 2.508925 2.260425 -2.852794 0
M  V30 12 C 1.311778 1.792529 -2.404422 0
M  V30 13 N 0.190344 1.837822 -3.273197 0
M  V30 14 C -1.069514 1.357240 -2.833517 0
M  V30 15 O -1.110458 0.914963 -1.681714 0
M  V30 16 N -2.236083 1.347816 -3.587968 0
M  V30 17 C -3.581369 0.913810 -3.441706 0
M  V30 18 C -3.725239 -0.561500 -3.348781 0
M  V30 19 C -3.032206 -1.304841 -2.278544 0
M  V30 20 C -3.404920 -2.814748 -2.334307 0
M  V30 21 C -2.701019 -3.530414 -1.257788 0
M  V30 22 C -1.457423 -4.024290 -1.599753 0
M  V30 23 C -0.695627 -4.719802 -0.664864 0
M  V30 24 C -1.198051 -4.911064 0.611293 0
M  V30 25 C -2.434245 -4.412860 0.930056 0
M  V30 26 C -3.214137 -3.718245 0.023695 0
M  V30 27 N 1.184459 1.294201 -1.161440 0
M  V30 28 C 2.222389 1.231279 -0.301560 0
M  V30 29 N 2.037549 0.720705 0.935779 0
M  V30 30 C 3.727038 -0.051820 4.121871 0
M  V30 31 C 3.370532 -0.597154 5.337851 0
M  V30 32 C 2.069374 -1.002796 5.551251 0
M  V30 33 C 1.683720 -1.580355 6.833835 0
M  V30 34 O 0.501088 -1.950179 7.030735 0
M  V30 35 O 2.549168 -1.763845 7.900595 0
M  V30 36 H -1.064201 -1.770646 2.980483 0
M  V30 37 H -2.163445 -1.685759 4.365015 0
M  V30 38 H -1.537504 -0.151917 3.719073 0
M  V30 39 H 0.669749 -0.261020 2.639995 0
M  V30 40 H 5.084172 1.047487 2.097040 0
M  V30 41 H 4.564437 2.555706 -2.268692 0
M  V30 42 H 2.623302 2.663341 -3.850152 0
M  V30 43 H 0.258271 2.215550 -4.234677 0
M  V30 44 H -2.060943 1.790020 -4.538471 0
M  V30 45 H -4.242011 1.273832 -4.269815 0
M  V30 46 H -3.986277 1.377440 -2.482170 0
M  V30 47 H -3.433199 -1.013764 -4.359781 0
M  V30 48 H -4.839587 -0.794282 -3.210620 0
M  V30 49 H -3.199422 -0.982833 -1.254754 0
M  V30 50 H -1.915270 -1.356262 -2.462654 0
M  V30 51 H -4.493244 -2.946558 -2.186077 0
M  V30 52 H -3.148057 -3.194292 -3.323078 0
M  V30 53 H -1.015847 -3.905857 -2.576701 0
M  V30 54 H 0.287933 -5.126535 -0.888343 0
M  V30 55 H -0.626805 -5.444850 1.347956 0
M  V30 56 H -2.845092 -4.556231 1.935670 0
M  V30 57 H -4.188000 -3.304158 0.211935 0
M  V30 58 H 4.734682 0.267105 3.943883 0
M  V30 59 H 4.082584 -0.727071 6.159245 0
M  V30 60 H 2.298887 -1.569792 8.859469 0
M  V30 END ATOM
M  V30 BEGIN BOND
M  V30 1 1 1 2
M  V30 2 1 2 3
M  V30 3 2 3 4
M  V30 4 1 4 5
M  V30 5 1 5 6
M  V30 6 2 6 7
M  V30 7 1 7 8
M  V30 8 2 8 9
M  V30 9 1 9 10
M  V30 10 2 10 11
M  V30 11 1 11 12
M  V30 12 1 12 13
M  V30 13 1 13 14
M  V30 14 2 14 15
M  V30 15 1 14 16
M  V30 16 1 16 17
M  V30 17 1 17 18
M  V30 18 1 18 19
M  V30 19 1 19 20
M  V30 20 1 20 21
M  V30 21 2 21 22
M  V30 22 1 22 23
M  V30 23 2 23 24
M  V30 24 1 24 25
M  V30 25 2 25 26
M  V30 26 2 12 27
M  V30 27 1 27 28
M  V30 28 2 28 29
M  V30 29 2 5 30
M  V30 30 1 30 31
M  V30 31 2 31 32
M  V30 32 1 32 33
M  V30 33 2 33 34
M  V30 34 1 33 35
M  V30 35 1 32 3
M  V30 36 1 29 6
M  V30 37 1 28 9
M  V30 38 1 26 21
M  V30 39 1 1 36
M  V30 40 1 1 37
M  V30 41 1 1 38
M  V30 42 1 4 39
M  V30 43 1 7 40
M  V30 44 1 10 41
M  V30 45 1 11 42
M  V30 46 1 13 43
M  V30 47 1 16 44
M  V30 48 1 17 45
M  V30 49 1 17 46
M  V30 50 1 18 47
M  V30 51 1 18 48
M  V30 52 1 19 49
M  V30 53 1 19 50
M  V30 54 1 20 51
M  V30 55 1 20 52
M  V30 56 1 22 53
M  V30 57 1 23 54
M  V30 58 1 24 55
M  V30 59 1 25 56
M  V30 60 1 26 57
M  V30 61 1 30 58
M  V30 62 1 31 59
M  V30 63 1 35 60
M  V30 END BOND
M  V30 END CTAB
M  END
>  <Dataset>  (15) 
ChEMBL_Kinases

>  <Ligand_Instance>  (15) 
nan

>  <PDB_ID>  (15) 
nan

>  <Standardized_SMILES>  (15) 
COc1cc(-c2cnc3ccc(NC(=O)NCCCCc4ccccc4)nc3n2)ccc1C(=O)O

>  <Name>  (15) 
nan

>  <Pocket>  (15) 
nan

>  <ATP_Site>  (15) 
nan

>  <Peripheral>  (15) 
nan

>  <Num_H_Atoms_ProtBoundConf>  (15) 
nan

>  <Num_Resolved_Atoms>  (15) 
nan

>  <Num_Not_Resolved_Atoms>  (15) 
nan

$$$$
CHEMBL3671113
     RDKit          3D

  0  0  0  0  0  0  0  0  0  0999 V3000
M  V30 BEGIN CTAB
M  V30 COUNTS 57 60 0 0 0
M  V30 BEGIN ATOM
M  V30 1 O 1.054834 -0.214192 2.329470 0
M  V30 2 C 0.458757 -0.213359 3.429428 0
M  V30 3 N 1.225783 -0.104376 4.583575 0
M  V30 4 C 2.613669 0.045853 4.897319 0
M  V30 5 C 3.294361 1.291651 4.479812 0
M  V30 6 C 3.326970 1.661376 3.049905 0
M  V30 7 C 4.150216 2.962567 2.869784 0
M  V30 8 C 4.185500 3.333431 1.452758 0
M  V30 9 C 5.235139 2.809458 0.722473 0
M  V30 10 C 5.335339 3.116696 -0.627953 0
M  V30 11 C 4.418113 3.930995 -1.267528 0
M  V30 12 C 3.386883 4.434235 -0.508659 0
M  V30 13 C 3.265571 4.143465 0.835203 0
M  V30 14 N -0.956499 -0.324788 3.392219 0
M  V30 15 C -1.612758 -0.429560 2.132578 0
M  V30 16 C -2.021189 0.715537 1.475415 0
M  V30 17 C -2.663783 0.730673 0.254219 0
M  V30 18 C -2.903727 -0.490666 -0.330401 0
M  V30 19 N -3.520703 -0.623328 -1.518413 0
M  V30 20 C -3.754916 -1.830525 -2.090706 0
M  V30 21 C -3.353858 -2.982887 -1.448332 0
M  V30 22 C -3.553776 -4.329863 -1.969980 0
M  V30 23 C -3.105929 -5.385874 -1.228327 0
M  V30 24 C -3.266244 -6.703508 -1.671544 0
M  V30 25 C -3.879925 -6.963998 -2.866803 0
M  V30 26 C -4.336021 -5.906450 -3.623997 0
M  V30 27 C -5.007468 -6.128297 -4.925126 0
M  V30 28 O -4.107556 -6.144671 -5.987556 0
M  V30 29 C -4.169467 -4.611909 -3.171323 0
M  V30 30 N -2.735046 -2.871472 -0.259055 0
M  V30 31 C -2.501006 -1.653462 0.314042 0
M  V30 32 N -1.873705 -1.614370 1.511826 0
M  V30 33 H 0.598137 -0.143989 5.448300 0
M  V30 34 H 3.190945 -0.798251 4.371556 0
M  V30 35 H 2.812544 -0.114937 5.980166 0
M  V30 36 H 4.375331 1.179253 4.825760 0
M  V30 37 H 2.925723 2.120427 5.137587 0
M  V30 38 H 2.295928 2.022520 2.728466 0
M  V30 39 H 3.709150 0.950889 2.337943 0
M  V30 40 H 3.665993 3.783794 3.447742 0
M  V30 41 H 5.155610 2.746206 3.272324 0
M  V30 42 H 6.026464 2.155220 1.101199 0
M  V30 43 H 6.151684 2.718650 -1.229801 0
M  V30 44 H 4.547771 4.134679 -2.319961 0
M  V30 45 H 2.648590 5.075002 -0.970868 0
M  V30 46 H 2.448785 4.545000 1.425721 0
M  V30 47 H -1.484991 -0.327042 4.298039 0
M  V30 48 H -1.847814 1.709550 1.909525 0
M  V30 49 H -2.971822 1.644176 -0.236191 0
M  V30 50 H -4.248675 -1.914210 -3.039089 0
M  V30 51 H -2.609547 -5.275961 -0.272107 0
M  V30 52 H -2.894016 -7.533470 -1.050119 0
M  V30 53 H -4.005182 -7.988901 -3.212625 0
M  V30 54 H -5.464202 -7.124599 -4.877868 0
M  V30 55 H -5.798606 -5.363021 -5.120236 0
M  V30 56 H -3.261148 -6.570673 -5.722913 0
M  V30 57 H -4.532196 -3.792444 -3.775782 0
M  V30 END ATOM
M  V30 BEGIN BOND
M  V30 1 2 1 2
M  V30 2 1 2 3
M  V30 3 1 3 4
M  V30 4 1 4 5
M  V30 5 1 5 6
M  V30 6 1 6 7
M  V30 7 1 7 8
M  V30 8 2 8 9
M  V30 9 1 9 10
M  V30 10 2 10 11
M  V30 11 1 11 12
M  V30 12 2 12 13
M  V30 13 1 2 14
M  V30 14 1 14 15
M  V30 15 2 15 16
M  V30 16 1 16 17
M  V30 17 2 17 18
M  V30 18 1 18 19
M  V30 19 2 19 20
M  V30 20 1 20 21
M  V30 21 1 21 22
M  V30 22 2 22 23
M  V30 23 1 23 24
M  V30 24 2 24 25
M  V30 25 1 25 26
M  V30 26 1 26 27
M  V30 27 1 27 28
M  V30 28 2 26 29
M  V30 29 2 21 30
M  V30 30 1 30 31
M  V30 31 2 31 32
M  V30 32 1 13 8
M  V30 33 1 32 15
M  V30 34 1 31 18
M  V30 35 1 29 22
M  V30 36 1 3 33
M  V30 37 1 4 34
M  V30 38 1 4 35
M  V30 39 1 5 36
M  V30 40 1 5 37
M  V30 41 1 6 38
M  V30 42 1 6 39
M  V30 43 1 7 40
M  V30 44 1 7 41
M  V30 45 1 9 42
M  V30 46 1 10 43
M  V30 47 1 11 44
M  V30 48 1 12 45
M  V30 49 1 13 46
M  V30 50 1 14 47
M  V30 51 1 16 48
M  V30 52 1 17 49
M  V30 53 1 20 50
M  V30 54 1 23 51
M  V30 55 1 24 52
M  V30 56 1 25 53
M  V30 57 1 27 54
M  V30 58 1 27 55
M  V30 59 1 28 56
M  V30 60 1 29 57
M  V30 END BOND
M  V30 END CTAB
M  END
>  <Dataset>  (16) 
ChEMBL_Kinases

>  <Ligand_Instance>  (16) 
nan

>  <PDB_ID>  (16) 
nan

>  <Standardized_SMILES>  (16) 
O=C(NCCCCc1ccccc1)Nc1ccc2ncc(-c3cccc(CO)c3)nc2n1

>  <Name>  (16) 
nan

>  <Pocket>  (16) 
nan

>  <ATP_Site>  (16) 
nan

>  <Peripheral>  (16) 
nan

>  <Num_H_Atoms_ProtBoundConf>  (16) 
nan

>  <Num_Resolved_Atoms>  (16) 
nan

>  <Num_Not_Resolved_Atoms>  (16) 
nan

$$$$
CHEMBL3672547
     RDKit          3D

  0  0  0  0  0  0  0  0  0  0999 V3000
M  V30 BEGIN CTAB
M  V30 COUNTS 66 72 0 0 0
M  V30 BEGIN ATOM
M  V30 1 N 6.990529 -1.722550 2.424142 0
M  V30 2 C 5.789196 -2.052947 3.173186 0
M  V30 3 C 4.509480 -1.767637 2.461403 0
M  V30 4 C 4.386415 -0.538728 1.846690 0
M  V30 5 C 3.243994 -0.172544 1.161332 0
M  V30 6 C 2.184064 -1.053646 1.080530 0
M  V30 7 C 0.896680 -0.884568 0.419712 0
M  V30 8 N 0.187307 0.156152 0.947356 0
M  V30 9 C -1.043362 0.466245 0.456230 0
M  V30 10 C -1.952434 1.452804 0.805937 0
M  V30 11 C -1.968603 2.447130 1.730693 0
M  V30 12 C -3.048912 3.306873 1.851955 0
M  V30 13 C -4.098968 3.092329 0.982235 0
M  V30 14 C -4.135606 2.105139 0.030584 0
M  V30 15 C -5.322444 1.998660 -0.824214 0
M  V30 16 C -5.194065 1.813534 -2.185478 0
M  V30 17 C -6.329146 1.713459 -2.991980 0
M  V30 18 C -7.593144 1.798739 -2.435304 0
M  V30 19 C -8.827332 1.698399 -3.248642 0
M  V30 20 O -9.290919 0.388535 -3.374306 0
M  V30 21 C -7.719233 1.984349 -1.070592 0
M  V30 22 C -6.593059 2.086875 -0.246496 0
M  V30 23 C -3.036167 1.288054 -0.038389 0
M  V30 24 N -2.791957 0.242613 -0.866352 0
M  V30 25 N -1.587277 -0.247190 -0.560767 0
M  V30 26 C -0.903757 -1.278025 -1.095566 0
M  V30 27 C 0.346345 -1.612796 -0.615308 0
M  V30 28 C 1.206497 -2.692866 -1.084982 0
M  V30 29 C 0.917114 -4.053452 -1.067431 0
M  V30 30 C 1.874041 -4.926021 -1.563532 0
M  V30 31 C 3.075800 -4.463243 -2.059472 0
M  V30 32 C 3.356445 -3.111543 -2.073845 0
M  V30 33 C 2.417116 -2.214899 -1.583616 0
M  V30 34 C 2.306804 -2.284982 1.696135 0
M  V30 35 C 3.454119 -2.675491 2.394827 0
M  V30 36 C 5.886115 -3.395308 3.837762 0
M  V30 37 C 5.204576 -2.777338 5.037988 0
M  V30 38 C 5.788043 -1.438042 4.566400 0
M  V30 39 H 7.787506 -2.231627 2.858657 0
M  V30 40 H 7.184748 -0.708795 2.613180 0
M  V30 41 H 5.188278 0.215521 1.867856 0
M  V30 42 H 3.060364 0.763161 0.652506 0
M  V30 43 H -1.137499 2.584872 2.388924 0
M  V30 44 H -3.061975 4.105182 2.594348 0
M  V30 45 H -4.939548 3.788875 1.102745 0
M  V30 46 H -4.216983 1.743140 -2.648135 0
M  V30 47 H -6.203209 1.569472 -4.049344 0
M  V30 48 H -8.718491 2.131985 -4.255037 0
M  V30 49 H -9.642068 2.267064 -2.742663 0
M  V30 50 H -8.865771 -0.222202 -2.695610 0
M  V30 51 H -8.709610 2.052173 -0.627103 0
M  V30 52 H -6.737282 2.231969 0.816758 0
M  V30 53 H -1.267692 -1.896181 -1.908467 0
M  V30 54 H -0.050641 -4.312651 -0.658770 0
M  V30 55 H 1.566535 -5.970335 -1.512053 0
M  V30 56 H 3.776438 -5.200038 -2.430876 0
M  V30 57 H 4.328149 -2.786962 -2.478981 0
M  V30 58 H 2.711209 -1.187567 -1.630461 0
M  V30 59 H 1.530983 -3.066985 1.699365 0
M  V30 60 H 3.552771 -3.618976 2.868268 0
M  V30 61 H 6.945419 -3.611701 4.083831 0
M  V30 62 H 5.423883 -4.255451 3.370102 0
M  V30 63 H 5.614437 -3.026352 6.026980 0
M  V30 64 H 4.107442 -2.789134 5.049133 0
M  V30 65 H 4.986102 -0.648250 4.657282 0
M  V30 66 H 6.758996 -1.170582 4.985976 0
M  V30 END ATOM
M  V30 BEGIN BOND
M  V30 1 1 1 2
M  V30 2 1 2 3
M  V30 3 2 3 4
M  V30 4 1 4 5
M  V30 5 2 5 6
M  V30 6 1 6 7
M  V30 7 2 7 8
M  V30 8 1 8 9
M  V30 9 2 9 10
M  V30 10 1 10 11
M  V30 11 2 11 12
M  V30 12 1 12 13
M  V30 13 2 13 14
M  V30 14 1 14 15
M  V30 15 2 15 16
M  V30 16 1 16 17
M  V30 17 2 17 18
M  V30 18 1 18 19
M  V30 19 1 19 20
M  V30 20 1 18 21
M  V30 21 2 21 22
M  V30 22 1 14 23
M  V30 23 2 23 24
M  V30 24 1 24 25
M  V30 25 1 25 26
M  V30 26 2 26 27
M  V30 27 1 27 28
M  V30 28 2 28 29
M  V30 29 1 29 30
M  V30 30 2 30 31
M  V30 31 1 31 32
M  V30 32 2 32 33
M  V30 33 1 6 34
M  V30 34 2 34 35
M  V30 35 1 2 36
M  V30 36 1 36 37
M  V30 37 1 37 38
M  V30 38 1 38 2
M  V30 39 1 35 3
M  V30 40 1 27 7
M  V30 41 1 33 28
M  V30 42 1 25 9
M  V30 43 1 23 10
M  V30 44 1 22 15
M  V30 45 1 1 39
M  V30 46 1 1 40
M  V30 47 1 4 41
M  V30 48 1 5 42
M  V30 49 1 11 43
M  V30 50 1 12 44
M  V30 51 1 13 45
M  V30 52 1 16 46
M  V30 53 1 17 47
M  V30 54 1 19 48
M  V30 55 1 19 49
M  V30 56 1 20 50
M  V30 57 1 21 51
M  V30 58 1 22 52
M  V30 59 1 26 53
M  V30 60 1 29 54
M  V30 61 1 30 55
M  V30 62 1 31 56
M  V30 63 1 32 57
M  V30 64 1 33 58
M  V30 65 1 34 59
M  V30 66 1 35 60
M  V30 67 1 36 61
M  V30 68 1 36 62
M  V30 69 1 37 63
M  V30 70 1 37 64
M  V30 71 1 38 65
M  V30 72 1 38 66
M  V30 END BOND
M  V30 END CTAB
M  END
>  <Dataset>  (17) 
ChEMBL_Kinases

>  <Ligand_Instance>  (17) 
nan

>  <PDB_ID>  (17) 
nan

>  <Standardized_SMILES>  (17) 
NC1(c2ccc(-c3nc4c5cccc(-c6ccc(CO)cc6)c5nn4cc3-c3ccccc3)cc2)CCC1

>  <Name>  (17) 
nan

>  <Pocket>  (17) 
nan

>  <ATP_Site>  (17) 
nan

>  <Peripheral>  (17) 
nan

>  <Num_H_Atoms_ProtBoundConf>  (17) 
nan

>  <Num_Resolved_Atoms>  (17) 
nan

>  <Num_Not_Resolved_Atoms>  (17) 
nan

$$$$
CHEMBL3672546
     RDKit          3D

  0  0  0  0  0  0  0  0  0  0999 V3000
M  V30 BEGIN CTAB
M  V30 COUNTS 62 68 0 0 0
M  V30 BEGIN ATOM
M  V30 1 N 4.820546 -2.670194 4.029321 0
M  V30 2 C 3.497362 -3.191399 4.376479 0
M  V30 3 C 2.496486 -2.590432 3.475498 0
M  V30 4 C 2.871797 -2.643002 2.129933 0
M  V30 5 C 2.042505 -2.120605 1.149733 0
M  V30 6 C 0.843151 -1.549075 1.525362 0
M  V30 7 C -0.007912 -1.006429 0.461887 0
M  V30 8 N -0.145430 0.342580 0.634469 0
M  V30 9 C -0.899217 1.074505 -0.240214 0
M  V30 10 C -1.236623 2.415075 -0.356329 0
M  V30 11 C -0.882216 3.502143 0.445162 0
M  V30 12 C -1.372521 4.742022 0.083674 0
M  V30 13 C -2.182514 4.911186 -1.024903 0
M  V30 14 C -2.523069 3.815917 -1.808544 0
M  V30 15 C -3.372978 3.877954 -3.002288 0
M  V30 16 C -4.382996 2.938835 -3.198545 0
M  V30 17 C -5.209355 2.946301 -4.296510 0
M  V30 18 C -5.016132 3.925539 -5.225393 0
M  V30 19 F -5.760939 4.042067 -6.347246 0
M  V30 20 C -4.013006 4.886658 -5.064961 0
M  V30 21 C -3.181097 4.880065 -3.960575 0
M  V30 22 C -2.050638 2.551439 -1.479448 0
M  V30 23 N -2.168483 1.323170 -1.981963 0
M  V30 24 N -1.494175 0.432430 -1.263568 0
M  V30 25 C -1.381224 -0.913010 -1.469859 0
M  V30 26 C -0.622710 -1.661852 -0.593303 0
M  V30 27 C -0.366530 -3.071929 -0.613891 0
M  V30 28 C -0.834965 -3.747230 0.489512 0
M  V30 29 C -0.702178 -5.105188 0.684639 0
M  V30 30 C -0.046160 -5.839536 -0.309689 0
M  V30 31 C 0.441124 -5.184425 -1.441973 0
M  V30 32 C 0.280197 -3.820083 -1.586291 0
M  V30 33 C 0.445858 -1.484390 2.861656 0
M  V30 34 C 1.301709 -2.013676 3.775541 0
M  V30 35 C 3.196412 -3.199597 5.836640 0
M  V30 36 C 2.580516 -4.584244 5.634900 0
M  V30 37 C 3.427098 -4.695105 4.367448 0
M  V30 38 H 4.704213 -1.663014 3.780060 0
M  V30 39 H 5.457763 -2.728145 4.865264 0
M  V30 40 H 3.793249 -3.073831 1.767309 0
M  V30 41 H 2.317261 -2.151559 0.088968 0
M  V30 42 H -0.251008 3.341527 1.301280 0
M  V30 43 H -1.117385 5.601919 0.681902 0
M  V30 44 H -2.579271 5.870019 -1.328852 0
M  V30 45 H -4.477396 2.181300 -2.407203 0
M  V30 46 H -5.986995 2.206300 -4.426686 0
M  V30 47 H -3.836108 5.686580 -5.798253 0
M  V30 48 H -2.408195 5.622011 -3.838363 0
M  V30 49 H -1.830519 -1.459537 -2.259536 0
M  V30 50 H -1.364748 -3.274114 1.331488 0
M  V30 51 H -1.062297 -5.651030 1.539946 0
M  V30 52 H 0.112390 -6.909180 -0.256022 0
M  V30 53 H 0.956384 -5.733906 -2.232983 0
M  V30 54 H 0.629795 -3.244089 -2.432839 0
M  V30 55 H -0.491561 -1.037003 3.148468 0
M  V30 56 H 1.061477 -2.000170 4.829887 0
M  V30 57 H 4.099650 -3.207846 6.479819 0
M  V30 58 H 2.446078 -2.516494 6.232265 0
M  V30 59 H 2.859835 -5.307701 6.432113 0
M  V30 60 H 1.487680 -4.540460 5.410376 0
M  V30 61 H 4.397501 -5.210288 4.573232 0
M  V30 62 H 2.889335 -5.140014 3.505707 0
M  V30 END ATOM
M  V30 BEGIN BOND
M  V30 1 1 1 2
M  V30 2 1 2 3
M  V30 3 2 3 4
M  V30 4 1 4 5
M  V30 5 2 5 6
M  V30 6 1 6 7
M  V30 7 2 7 8
M  V30 8 1 8 9
M  V30 9 2 9 10
M  V30 10 1 10 11
M  V30 11 2 11 12
M  V30 12 1 12 13
M  V30 13 2 13 14
M  V30 14 1 14 15
M  V30 15 2 15 16
M  V30 16 1 16 17
M  V30 17 2 17 18
M  V30 18 1 18 19
M  V30 19 1 18 20
M  V30 20 2 20 21
M  V30 21 1 14 22
M  V30 22 2 22 23
M  V30 23 1 23 24
M  V30 24 1 24 25
M  V30 25 2 25 26
M  V30 26 1 26 27
M  V30 27 2 27 28
M  V30 28 1 28 29
M  V30 29 2 29 30
M  V30 30 1 30 31
M  V30 31 2 31 32
M  V30 32 1 6 33
M  V30 33 2 33 34
M  V30 34 1 2 35
M  V30 35 1 35 36
M  V30 36 1 36 37
M  V30 37 1 37 2
M  V30 38 1 34 3
M  V30 39 1 26 7
M  V30 40 1 32 27
M  V30 41 1 24 9
M  V30 42 1 22 10
M  V30 43 1 21 15
M  V30 44 1 1 38
M  V30 45 1 1 39
M  V30 46 1 4 40
M  V30 47 1 5 41
M  V30 48 1 11 42
M  V30 49 1 12 43
M  V30 50 1 13 44
M  V30 51 1 16 45
M  V30 52 1 17 46
M  V30 53 1 20 47
M  V30 54 1 21 48
M  V30 55 1 25 49
M  V30 56 1 28 50
M  V30 57 1 29 51
M  V30 58 1 30 52
M  V30 59 1 31 53
M  V30 60 1 32 54
M  V30 61 1 33 55
M  V30 62 1 34 56
M  V30 63 1 35 57
M  V30 64 1 35 58
M  V30 65 1 36 59
M  V30 66 1 36 60
M  V30 67 1 37 61
M  V30 68 1 37 62
M  V30 END BOND
M  V30 END CTAB
M  END
>  <Dataset>  (18) 
ChEMBL_Kinases

>  <Ligand_Instance>  (18) 
nan

>  <PDB_ID>  (18) 
nan

>  <Standardized_SMILES>  (18) 
NC1(c2ccc(-c3nc4c5cccc(-c6ccc(F)cc6)c5nn4cc3-c3ccccc3)cc2)CCC1

>  <Name>  (18) 
nan

>  <Pocket>  (18) 
nan

>  <ATP_Site>  (18) 
nan

>  <Peripheral>  (18) 
nan

>  <Num_H_Atoms_ProtBoundConf>  (18) 
nan

>  <Num_Resolved_Atoms>  (18) 
nan

>  <Num_Not_Resolved_Atoms>  (18) 
nan

$$$$
CHEMBL3672545
     RDKit          3D

  0  0  0  0  0  0  0  0  0  0999 V3000
M  V30 BEGIN CTAB
M  V30 COUNTS 52 57 0 0 0
M  V30 BEGIN ATOM
M  V30 1 N -2.156283 -3.797038 4.228861 0
M  V30 2 C -2.817069 -3.278291 3.047109 0
M  V30 3 C -2.027933 -2.288889 2.319078 0
M  V30 4 C -2.278268 -1.008991 1.878949 0
M  V30 5 C -1.345728 -0.275678 1.203191 0
M  V30 6 C -0.089137 -0.777219 0.919573 0
M  V30 7 C 0.806399 0.113403 0.191546 0
M  V30 8 N 1.137496 1.296750 0.774929 0
M  V30 9 C 1.970203 2.176682 0.147102 0
M  V30 10 C 2.463090 3.427554 0.504251 0
M  V30 11 C 2.272356 4.207765 1.628704 0
M  V30 12 C 2.947422 5.429742 1.626855 0
M  V30 13 C 3.748156 5.832259 0.579205 0
M  V30 14 C 3.917784 5.029699 -0.529409 0
M  V30 15 Br 5.029273 5.620918 -1.952434 0
M  V30 16 C 3.258428 3.805952 -0.557796 0
M  V30 17 N 3.239834 2.825218 -1.503787 0
M  V30 18 N 2.448913 1.834268 -1.061618 0
M  V30 19 C 2.184755 0.694147 -1.722977 0
M  V30 20 C 1.330573 -0.185198 -1.055709 0
M  V30 21 C 0.966285 -1.460326 -1.669891 0
M  V30 22 C 2.098433 -2.257675 -1.882349 0
M  V30 23 C 1.998273 -3.507628 -2.451777 0
M  V30 24 C 0.764942 -3.977660 -2.816712 0
M  V30 25 C -0.355715 -3.193759 -2.608836 0
M  V30 26 C -0.276178 -1.938341 -2.039521 0
M  V30 27 C 0.196975 -2.048808 1.342125 0
M  V30 28 C -0.758880 -2.801893 2.035371 0
M  V30 29 C -4.194520 -2.765296 3.390089 0
M  V30 30 C -4.641299 -3.322289 2.037803 0
M  V30 31 C -3.495544 -4.330941 2.197324 0
M  V30 32 H -2.867791 -4.070187 4.963009 0
M  V30 33 H -1.549105 -3.002354 4.576016 0
M  V30 34 H -3.273039 -0.686787 2.134108 0
M  V30 35 H -1.704423 0.727169 0.922278 0
M  V30 36 H 1.641901 3.871390 2.434422 0
M  V30 37 H 2.803936 6.055239 2.511308 0
M  V30 38 H 4.266738 6.786407 0.593373 0
M  V30 39 H 2.598217 0.474232 -2.691748 0
M  V30 40 H 3.128477 -1.987571 -1.632048 0
M  V30 41 H 2.846405 -4.155011 -2.633269 0
M  V30 42 H 0.672582 -4.960679 -3.266238 0
M  V30 43 H -1.351853 -3.512704 -2.876638 0
M  V30 44 H -1.060630 -1.247729 -1.830639 0
M  V30 45 H 1.189682 -2.395022 1.096918 0
M  V30 46 H -0.361098 -3.775726 2.288504 0
M  V30 47 H -4.688914 -3.298978 4.231713 0
M  V30 48 H -4.313040 -1.693993 3.529939 0
M  V30 49 H -4.482947 -2.561427 1.263084 0
M  V30 50 H -5.649878 -3.770992 2.054946 0
M  V30 51 H -3.846315 -5.172959 2.842859 0
M  V30 52 H -2.977600 -4.597301 1.272541 0
M  V30 END ATOM
M  V30 BEGIN BOND
M  V30 1 1 1 2
M  V30 2 1 2 3
M  V30 3 2 3 4
M  V30 4 1 4 5
M  V30 5 2 5 6
M  V30 6 1 6 7
M  V30 7 2 7 8
M  V30 8 1 8 9
M  V30 9 2 9 10
M  V30 10 1 10 11
M  V30 11 2 11 12
M  V30 12 1 12 13
M  V30 13 2 13 14
M  V30 14 1 14 15
M  V30 15 1 14 16
M  V30 16 2 16 17
M  V30 17 1 17 18
M  V30 18 1 18 19
M  V30 19 2 19 20
M  V30 20 1 20 21
M  V30 21 2 21 22
M  V30 22 1 22 23
M  V30 23 2 23 24
M  V30 24 1 24 25
M  V30 25 2 25 26
M  V30 26 1 6 27
M  V30 27 2 27 28
M  V30 28 1 2 29
M  V30 29 1 29 30
M  V30 30 1 30 31
M  V30 31 1 31 2
M  V30 32 1 28 3
M  V30 33 1 20 7
M  V30 34 1 26 21
M  V30 35 1 18 9
M  V30 36 1 16 10
M  V30 37 1 1 32
M  V30 38 1 1 33
M  V30 39 1 4 34
M  V30 40 1 5 35
M  V30 41 1 11 36
M  V30 42 1 12 37
M  V30 43 1 13 38
M  V30 44 1 19 39
M  V30 45 1 22 40
M  V30 46 1 23 41
M  V30 47 1 24 42
M  V30 48 1 25 43
M  V30 49 1 26 44
M  V30 50 1 27 45
M  V30 51 1 28 46
M  V30 52 1 29 47
M  V30 53 1 29 48
M  V30 54 1 30 49
M  V30 55 1 30 50
M  V30 56 1 31 51
M  V30 57 1 31 52
M  V30 END BOND
M  V30 END CTAB
M  END
>  <Dataset>  (19) 
ChEMBL_Kinases

>  <Ligand_Instance>  (19) 
nan

>  <PDB_ID>  (19) 
nan

>  <Standardized_SMILES>  (19) 
NC1(c2ccc(-c3nc4c5cccc(Br)c5nn4cc3-c3ccccc3)cc2)CCC1

>  <Name>  (19) 
nan

>  <Pocket>  (19) 
nan

>  <ATP_Site>  (19) 
nan

>  <Peripheral>  (19) 
nan

>  <Num_H_Atoms_ProtBoundConf>  (19) 
nan

>  <Num_Resolved_Atoms>  (19) 
nan

>  <Num_Not_Resolved_Atoms>  (19) 
nan

$$$$
CHEMBL3672544
     RDKit          3D

  0  0  0  0  0  0  0  0  0  0999 V3000
M  V30 BEGIN CTAB
M  V30 COUNTS 63 69 0 0 0
M  V30 BEGIN ATOM
M  V30 1 N 3.923992 -1.047822 8.004455 0
M  V30 2 C 4.300052 -0.308855 7.172964 0
M  V30 3 C 4.751997 0.622132 6.155172 0
M  V30 4 C 6.082299 1.050535 6.217432 0
M  V30 5 C 6.524015 1.939201 5.249443 0
M  V30 6 C 5.699025 2.402211 4.245754 0
M  V30 7 C 4.391667 1.949801 4.226287 0
M  V30 8 C 3.450875 2.379076 3.212720 0
M  V30 9 C 3.346118 3.712339 2.841671 0
M  V30 10 C 2.461419 4.181737 1.875566 0
M  V30 11 C 1.648148 3.226128 1.266104 0
M  V30 12 C 1.731274 1.895372 1.615456 0
M  V30 13 C 2.626595 1.467473 2.583656 0
M  V30 14 N 2.492659 0.121298 2.721997 0
M  V30 15 N 1.542429 -0.296320 1.869509 0
M  V30 16 C 1.121717 -1.565049 1.709970 0
M  V30 17 C 0.127181 -1.747580 0.767072 0
M  V30 18 C -0.357393 -3.107624 0.561639 0
M  V30 19 C -1.647167 -3.465784 0.800846 0
M  V30 20 C -2.033921 -4.769946 0.584946 0
M  V30 21 C -1.144508 -5.721950 0.131799 0
M  V30 22 C 0.178748 -5.379300 -0.119583 0
M  V30 23 C 0.560905 -4.056876 0.101863 0
M  V30 24 C -0.406539 -0.706495 0.032227 0
M  V30 25 C -1.456265 -0.956513 -0.950232 0
M  V30 26 C -2.665043 -0.330617 -0.717704 0
M  V30 27 C -3.747133 -0.474044 -1.560672 0
M  V30 28 C -3.659694 -1.263198 -2.688659 0
M  V30 29 C -4.637732 -1.579991 -3.732912 0
M  V30 30 N -4.583944 -2.956302 -4.197977 0
M  V30 31 C -4.634384 -0.632684 -4.926365 0
M  V30 32 C -6.142183 -0.916068 -5.013407 0
M  V30 33 C -6.061094 -1.130308 -3.491686 0
M  V30 34 C -2.446145 -1.891171 -2.921575 0
M  V30 35 C -1.344610 -1.754731 -2.077685 0
M  V30 36 N 0.094171 0.537975 0.275359 0
M  V30 37 C 1.066628 0.761869 1.188200 0
M  V30 38 C 3.896025 1.063241 5.165839 0
M  V30 39 H 6.769941 0.713237 6.989856 0
M  V30 40 H 7.532536 2.329412 5.210043 0
M  V30 41 H 6.040983 3.096014 3.488236 0
M  V30 42 H 3.963180 4.463248 3.299078 0
M  V30 43 H 2.420426 5.232206 1.624135 0
M  V30 44 H 0.932270 3.551474 0.495064 0
M  V30 45 H 1.530632 -2.395532 2.279151 0
M  V30 46 H -2.328037 -2.708747 1.154441 0
M  V30 47 H -3.086090 -5.024159 0.789365 0
M  V30 48 H -1.570944 -6.707431 0.002353 0
M  V30 49 H 0.838441 -6.152700 -0.471632 0
M  V30 50 H 1.595918 -3.873241 -0.115108 0
M  V30 51 H -2.912377 0.325064 0.118120 0
M  V30 52 H -4.718723 -0.016941 -1.441496 0
M  V30 53 H -5.522314 -3.344821 -4.387166 0
M  V30 54 H -3.926035 -3.021135 -5.007175 0
M  V30 55 H -4.141932 -0.999471 -5.829470 0
M  V30 56 H -4.477300 0.420565 -4.671654 0
M  V30 57 H -6.382578 -1.872929 -5.500293 0
M  V30 58 H -6.732075 -0.043532 -5.308728 0
M  V30 59 H -6.069414 -0.182189 -2.928194 0
M  V30 60 H -6.717562 -1.934782 -3.117428 0
M  V30 61 H -2.200880 -2.542028 -3.750859 0
M  V30 62 H -0.394767 -2.212809 -2.209481 0
M  V30 63 H 2.851047 0.717503 5.129650 0
M  V30 END ATOM
M  V30 BEGIN BOND
M  V30 1 3 1 2
M  V30 2 1 2 3
M  V30 3 2 3 4
M  V30 4 1 4 5
M  V30 5 2 5 6
M  V30 6 1 6 7
M  V30 7 1 7 8
M  V30 8 2 8 9
M  V30 9 1 9 10
M  V30 10 2 10 11
M  V30 11 1 11 12
M  V30 12 1 12 13
M  V30 13 2 13 14
M  V30 14 1 14 15
M  V30 15 1 15 16
M  V30 16 2 16 17
M  V30 17 1 17 18
M  V30 18 2 18 19
M  V30 19 1 19 20
M  V30 20 2 20 21
M  V30 21 1 21 22
M  V30 22 2 22 23
M  V30 23 1 17 24
M  V30 24 1 24 25
M  V30 25 2 25 26
M  V30 26 1 26 27
M  V30 27 2 27 28
M  V30 28 1 28 29
M  V30 29 1 29 30
M  V30 30 1 29 31
M  V30 31 1 31 32
M  V30 32 1 32 33
M  V30 33 1 28 34
M  V30 34 2 34 35
M  V30 35 2 24 36
M  V30 36 1 36 37
M  V30 37 2 7 38
M  V30 38 1 38 3
M  V30 39 1 13 8
M  V30 40 1 37 15
M  V30 41 2 37 12
M  V30 42 1 23 18
M  V30 43 1 35 25
M  V30 44 1 33 29
M  V30 45 1 4 39
M  V30 46 1 5 40
M  V30 47 1 6 41
M  V30 48 1 9 42
M  V30 49 1 10 43
M  V30 50 1 11 44
M  V30 51 1 16 45
M  V30 52 1 19 46
M  V30 53 1 20 47
M  V30 54 1 21 48
M  V30 55 1 22 49
M  V30 56 1 23 50
M  V30 57 1 26 51
M  V30 58 1 27 52
M  V30 59 1 30 53
M  V30 60 1 30 54
M  V30 61 1 31 55
M  V30 62 1 31 56
M  V30 63 1 32 57
M  V30 64 1 32 58
M  V30 65 1 33 59
M  V30 66 1 33 60
M  V30 67 1 34 61
M  V30 68 1 35 62
M  V30 69 1 38 63
M  V30 END BOND
M  V30 END CTAB
M  END
>  <Dataset>  (20) 
ChEMBL_Kinases

>  <Ligand_Instance>  (20) 
nan

>  <PDB_ID>  (20) 
nan

>  <Standardized_SMILES>  (20) 
N#Cc1cccc(-c2cccc3c2nn2cc(-c4ccccc4)c(-c4ccc(C5(N)CCC5)cc4)nc32)c1

>  <Name>  (20) 
nan

>  <Pocket>  (20) 
nan

>  <ATP_Site>  (20) 
nan

>  <Peripheral>  (20) 
nan

>  <Num_H_Atoms_ProtBoundConf>  (20) 
nan

>  <Num_Resolved_Atoms>  (20) 
nan

>  <Num_Not_Resolved_Atoms>  (20) 
nan

$$$$
CHEMBL3672543
     RDKit          3D

  0  0  0  0  0  0  0  0  0  0999 V3000
M  V30 BEGIN CTAB
M  V30 COUNTS 63 69 0 0 0
M  V30 BEGIN ATOM
M  V30 1 N 4.424920 -4.735582 1.660863 0
M  V30 2 C 4.219069 -3.618498 1.636593 0
M  V30 3 C 3.957380 -2.207513 1.620538 0
M  V30 4 C 4.738429 -1.350520 0.853171 0
M  V30 5 C 4.496584 0.020887 0.827643 0
M  V30 6 C 3.464646 0.578983 1.569921 0
M  V30 7 C 3.293735 2.014533 1.498380 0
M  V30 8 C 4.456470 2.734623 1.763495 0
M  V30 9 C 4.379760 4.111942 1.738817 0
M  V30 10 C 3.245777 4.851042 1.473145 0
M  V30 11 C 2.122855 4.090330 1.216689 0
M  V30 12 N 0.858319 4.411571 0.915996 0
M  V30 13 N 0.125638 3.311135 0.747091 0
M  V30 14 C -1.169935 3.139968 0.436526 0
M  V30 15 C -1.721229 1.877380 0.306394 0
M  V30 16 C -3.115660 1.636244 -0.031652 0
M  V30 17 C -4.178560 1.126250 0.671138 0
M  V30 18 C -5.410612 1.012258 0.066570 0
M  V30 19 C -5.625864 1.396199 -1.239016 0
M  V30 20 C -4.574011 1.912079 -1.967461 0
M  V30 21 C -3.319256 2.029762 -1.357147 0
M  V30 22 C -0.933011 0.762578 0.497580 0
M  V30 23 C -1.285274 -0.647534 0.417486 0
M  V30 24 C -2.037266 -1.483148 1.213784 0
M  V30 25 C -2.200015 -2.805323 0.865962 0
M  V30 26 C -1.629208 -3.359087 -0.279407 0
M  V30 27 C -1.962394 -4.786853 -0.406950 0
M  V30 28 N -3.378977 -5.100628 -0.320212 0
M  V30 29 C -1.359597 -5.404423 -1.633820 0
M  V30 30 C -1.125533 -6.668642 -0.801739 0
M  V30 31 C -1.132502 -5.749261 0.414617 0
M  V30 32 C -0.874559 -2.529025 -1.082420 0
M  V30 33 C -0.711157 -1.202223 -0.733715 0
M  V30 34 N 0.366685 0.956934 0.809451 0
M  V30 35 C 0.875586 2.196169 0.929583 0
M  V30 36 C 2.126249 2.693492 1.224228 0
M  V30 37 C 2.724261 -0.315233 2.311289 0
M  V30 38 C 2.927949 -1.676543 2.365556 0
M  V30 39 H 5.541706 -1.829139 0.283390 0
M  V30 40 H 5.147837 0.615613 0.206824 0
M  V30 41 H 5.430031 2.276954 1.991157 0
M  V30 42 H 5.284830 4.700474 1.944833 0
M  V30 43 H 3.235083 5.930615 1.465489 0
M  V30 44 H -1.838746 3.964645 0.274833 0
M  V30 45 H -3.884571 0.869974 1.672491 0
M  V30 46 H -6.190677 0.600788 0.691238 0
M  V30 47 H -6.606284 1.294533 -1.685114 0
M  V30 48 H -4.800201 2.195358 -2.984943 0
M  V30 49 H -2.603760 2.454182 -2.070273 0
M  V30 50 H -2.422062 -0.951894 2.066387 0
M  V30 51 H -2.823638 -3.326062 1.603923 0
M  V30 52 H -3.540186 -6.012034 0.171754 0
M  V30 53 H -3.891039 -4.310283 0.140273 0
M  V30 54 H -0.384288 -5.038974 -1.975292 0
M  V30 55 H -2.106562 -5.566613 -2.440007 0
M  V30 56 H -0.176445 -7.163214 -0.998505 0
M  V30 57 H -1.990659 -7.331887 -0.879586 0
M  V30 58 H -0.094814 -5.409163 0.615893 0
M  V30 59 H -1.662682 -6.195085 1.267492 0
M  V30 60 H -0.473314 -3.020291 -1.935613 0
M  V30 61 H -0.081905 -0.697643 -1.486928 0
M  V30 62 H 1.920417 0.091557 2.907860 0
M  V30 63 H 2.296768 -2.299302 2.973749 0
M  V30 END ATOM
M  V30 BEGIN BOND
M  V30 1 3 1 2
M  V30 2 1 2 3
M  V30 3 2 3 4
M  V30 4 1 4 5
M  V30 5 2 5 6
M  V30 6 1 6 7
M  V30 7 2 7 8
M  V30 8 1 8 9
M  V30 9 2 9 10
M  V30 10 1 10 11
M  V30 11 2 11 12
M  V30 12 1 12 13
M  V30 13 1 13 14
M  V30 14 2 14 15
M  V30 15 1 15 16
M  V30 16 2 16 17
M  V30 17 1 17 18
M  V30 18 2 18 19
M  V30 19 1 19 20
M  V30 20 2 20 21
M  V30 21 1 15 22
M  V30 22 1 22 23
M  V30 23 2 23 24
M  V30 24 1 24 25
M  V30 25 2 25 26
M  V30 26 1 26 27
M  V30 27 1 27 28
M  V30 28 1 27 29
M  V30 29 1 29 30
M  V30 30 1 30 31
M  V30 31 1 26 32
M  V30 32 2 32 33
M  V30 33 2 22 34
M  V30 34 1 34 35
M  V30 35 2 35 36
M  V30 36 1 6 37
M  V30 37 2 37 38
M  V30 38 1 38 3
M  V30 39 1 36 7
M  V30 40 1 36 11
M  V30 41 1 35 13
M  V30 42 1 21 16
M  V30 43 1 33 23
M  V30 44 1 31 27
M  V30 45 1 4 39
M  V30 46 1 5 40
M  V30 47 1 8 41
M  V30 48 1 9 42
M  V30 49 1 10 43
M  V30 50 1 14 44
M  V30 51 1 17 45
M  V30 52 1 18 46
M  V30 53 1 19 47
M  V30 54 1 20 48
M  V30 55 1 21 49
M  V30 56 1 24 50
M  V30 57 1 25 51
M  V30 58 1 28 52
M  V30 59 1 28 53
M  V30 60 1 29 54
M  V30 61 1 29 55
M  V30 62 1 30 56
M  V30 63 1 30 57
M  V30 64 1 31 58
M  V30 65 1 31 59
M  V30 66 1 32 60
M  V30 67 1 33 61
M  V30 68 1 37 62
M  V30 69 1 38 63
M  V30 END BOND
M  V30 END CTAB
M  END
>  <Dataset>  (21) 
ChEMBL_Kinases

>  <Ligand_Instance>  (21) 
nan

>  <PDB_ID>  (21) 
nan

>  <Standardized_SMILES>  (21) 
N#Cc1ccc(-c2cccc3nn4cc(-c5ccccc5)c(-c5ccc(C6(N)CCC6)cc5)nc4c23)cc1

>  <Name>  (21) 
nan

>  <Pocket>  (21) 
nan

>  <ATP_Site>  (21) 
nan

>  <Peripheral>  (21) 
nan

>  <Num_H_Atoms_ProtBoundConf>  (21) 
nan

>  <Num_Resolved_Atoms>  (21) 
nan

>  <Num_Not_Resolved_Atoms>  (21) 
nan

$$$$
CHEMBL3672542
     RDKit          3D

  0  0  0  0  0  0  0  0  0  0999 V3000
M  V30 BEGIN CTAB
M  V30 COUNTS 59 65 0 0 0
M  V30 BEGIN ATOM
M  V30 1 N 2.690952 -4.246297 4.134662 0
M  V30 2 C 3.084380 -4.024790 2.751699 0
M  V30 3 C 2.083801 -3.221660 2.015571 0
M  V30 4 C 2.401301 -2.313831 0.997888 0
M  V30 5 C 1.340509 -1.645623 0.417928 0
M  V30 6 C 0.020754 -1.830065 0.788754 0
M  V30 7 C -0.886904 -0.997562 0.011838 0
M  V30 8 N -0.745588 0.345555 0.055155 0
M  V30 9 C -1.535493 1.198788 -0.629070 0
M  V30 10 C -1.618323 2.575443 -0.769616 0
M  V30 11 C -0.834250 3.572671 -0.189324 0
M  V30 12 C -1.140650 4.897120 -0.509185 0
M  V30 13 C -0.339975 5.995370 0.078331 0
M  V30 14 C -0.065542 7.231703 -0.516964 0
M  V30 15 N 0.690307 7.937163 0.344001 0
M  V30 16 N 0.897448 7.202998 1.439109 0
M  V30 17 C 0.282934 6.010635 1.312307 0
M  V30 18 C -2.179840 5.194763 -1.366331 0
M  V30 19 C -2.950740 4.178118 -1.934914 0
M  V30 20 C -2.673949 2.839774 -1.638125 0
M  V30 21 N -3.219435 1.651787 -2.016019 0
M  V30 22 N -2.521570 0.684606 -1.399534 0
M  V30 23 C -2.727073 -0.651046 -1.494956 0
M  V30 24 C -1.908954 -1.517811 -0.787313 0
M  V30 25 C -2.069838 -2.954842 -0.843001 0
M  V30 26 C -3.297373 -3.405861 -0.360357 0
M  V30 27 C -3.645384 -4.742083 -0.328234 0
M  V30 28 C -2.739534 -5.669001 -0.793603 0
M  V30 29 C -1.520985 -5.249944 -1.275224 0
M  V30 30 C -1.170227 -3.913840 -1.308455 0
M  V30 31 C -0.269684 -2.721596 1.785395 0
M  V30 32 C 0.765325 -3.408046 2.388253 0
M  V30 33 C 3.329655 -5.336433 2.045002 0
M  V30 34 C 4.739005 -4.891619 1.743375 0
M  V30 35 C 4.509052 -3.688337 2.631343 0
M  V30 36 H 2.139440 -5.132736 4.150982 0
M  V30 37 H 2.070314 -3.424118 4.396346 0
M  V30 38 H 3.431650 -2.192718 0.732864 0
M  V30 39 H 1.693821 -0.958276 -0.367902 0
M  V30 40 H -0.023495 3.314400 0.480845 0
M  V30 41 H -0.453908 7.466190 -1.513246 0
M  V30 42 H 1.461312 7.546432 2.250388 0
M  V30 43 H 0.265740 5.189959 2.038814 0
M  V30 44 H -2.423145 6.221621 -1.619490 0
M  V30 45 H -3.764560 4.351108 -2.602582 0
M  V30 46 H -3.511070 -1.088477 -2.105566 0
M  V30 47 H -4.085352 -2.746179 0.032296 0
M  V30 48 H -4.598800 -5.090968 0.046943 0
M  V30 49 H -2.906198 -6.733206 -0.815295 0
M  V30 50 H -0.775722 -5.947825 -1.652161 0
M  V30 51 H -0.240925 -3.491400 -1.666750 0
M  V30 52 H -1.323485 -2.804408 2.011936 0
M  V30 53 H 0.492063 -4.103463 3.171526 0
M  V30 54 H 2.753926 -5.456837 1.107513 0
M  V30 55 H 3.328858 -6.222729 2.712463 0
M  V30 56 H 4.915186 -4.657836 0.671893 0
M  V30 57 H 5.537232 -5.577248 2.096515 0
M  V30 58 H 4.828000 -2.779159 2.095786 0
M  V30 59 H 5.083874 -3.783272 3.575041 0
M  V30 END ATOM
M  V30 BEGIN BOND
M  V30 1 1 1 2
M  V30 2 1 2 3
M  V30 3 2 3 4
M  V30 4 1 4 5
M  V30 5 2 5 6
M  V30 6 1 6 7
M  V30 7 2 7 8
M  V30 8 1 8 9
M  V30 9 2 9 10
M  V30 10 1 10 11
M  V30 11 2 11 12
M  V30 12 1 12 13
M  V30 13 1 13 14
M  V30 14 2 14 15
M  V30 15 1 15 16
M  V30 16 1 16 17
M  V30 17 1 12 18
M  V30 18 2 18 19
M  V30 19 1 19 20
M  V30 20 2 20 21
M  V30 21 1 21 22
M  V30 22 1 22 23
M  V30 23 2 23 24
M  V30 24 1 24 25
M  V30 25 2 25 26
M  V30 26 1 26 27
M  V30 27 2 27 28
M  V30 28 1 28 29
M  V30 29 2 29 30
M  V30 30 1 6 31
M  V30 31 2 31 32
M  V30 32 1 2 33
M  V30 33 1 33 34
M  V30 34 1 34 35
M  V30 35 1 35 2
M  V30 36 1 32 3
M  V30 37 1 24 7
M  V30 38 1 30 25
M  V30 39 1 22 9
M  V30 40 1 20 10
M  V30 41 2 17 13
M  V30 42 1 1 36
M  V30 43 1 1 37
M  V30 44 1 4 38
M  V30 45 1 5 39
M  V30 46 1 11 40
M  V30 47 1 14 41
M  V30 48 1 16 42
M  V30 49 1 17 43
M  V30 50 1 18 44
M  V30 51 1 19 45
M  V30 52 1 23 46
M  V30 53 1 26 47
M  V30 54 1 27 48
M  V30 55 1 28 49
M  V30 56 1 29 50
M  V30 57 1 30 51
M  V30 58 1 31 52
M  V30 59 1 32 53
M  V30 60 1 33 54
M  V30 61 1 33 55
M  V30 62 1 34 56
M  V30 63 1 34 57
M  V30 64 1 35 58
M  V30 65 1 35 59
M  V30 END BOND
M  V30 END CTAB
M  END
>  <Dataset>  (22) 
ChEMBL_Kinases

>  <Ligand_Instance>  (22) 
nan

>  <PDB_ID>  (22) 
nan

>  <Standardized_SMILES>  (22) 
NC1(c2ccc(-c3nc4c5cc(-c6cn[nH]c6)ccc5nn4cc3-c3ccccc3)cc2)CCC1

>  <Name>  (22) 
nan

>  <Pocket>  (22) 
nan

>  <ATP_Site>  (22) 
nan

>  <Peripheral>  (22) 
nan

>  <Num_H_Atoms_ProtBoundConf>  (22) 
nan

>  <Num_Resolved_Atoms>  (22) 
nan

>  <Num_Not_Resolved_Atoms>  (22) 
nan

$$$$
CHEMBL3672541
     RDKit          3D

  0  0  0  0  0  0  0  0  0  0999 V3000
M  V30 BEGIN CTAB
M  V30 COUNTS 66 72 0 0 0
M  V30 BEGIN ATOM
M  V30 1 N 4.945054 0.135677 4.367664 0
M  V30 2 C 3.623494 0.605883 4.099310 0
M  V30 3 C 3.072818 0.301281 2.751490 0
M  V30 4 C 2.328172 1.116592 1.924865 0
M  V30 5 C 1.891886 0.607476 0.718378 0
M  V30 6 C 2.175551 -0.700011 0.301607 0
M  V30 7 C 1.574848 -0.966339 -1.000439 0
M  V30 8 N 0.211100 -1.008953 -0.899570 0
M  V30 9 C -0.612758 -1.235595 -1.910080 0
M  V30 10 C -1.999492 -1.318733 -2.014309 0
M  V30 11 C -2.943814 -1.177188 -1.019598 0
M  V30 12 C -4.279828 -1.300592 -1.343530 0
M  V30 13 C -5.206622 -1.132984 -0.232987 0
M  V30 14 C -4.843761 -0.248377 0.791525 0
M  V30 15 C -5.611711 0.000236 1.896460 0
M  V30 16 C -6.821141 -0.629118 2.061431 0
M  V30 17 F -7.602695 -0.411110 3.134111 0
M  V30 18 C -7.192540 -1.511687 1.047495 0
M  V30 19 C -8.505678 -2.213572 1.212768 0
M  V30 20 O -9.543923 -1.333462 0.937797 0
M  V30 21 C -6.422554 -1.764312 -0.065839 0
M  V30 22 C -4.599657 -1.561839 -2.659201 0
M  V30 23 C -3.621030 -1.696364 -3.625425 0
M  V30 24 C -2.282240 -1.579173 -3.336440 0
M  V30 25 N -1.094903 -1.645668 -3.981547 0
M  V30 26 N -0.099730 -1.441686 -3.136945 0
M  V30 27 C 1.235386 -1.412988 -3.307034 0
M  V30 28 C 2.096317 -1.178057 -2.257596 0
M  V30 29 C 3.549247 -1.113968 -2.260618 0
M  V30 30 C 4.077241 0.064721 -2.786654 0
M  V30 31 C 5.455157 0.276854 -2.859536 0
M  V30 32 C 6.332247 -0.676771 -2.411748 0
M  V30 33 C 5.814224 -1.848650 -1.888469 0
M  V30 34 C 4.445788 -2.058829 -1.816353 0
M  V30 35 C 2.923134 -1.495626 1.145662 0
M  V30 36 C 3.356082 -0.982800 2.349432 0
M  V30 37 C 2.647369 0.069219 5.160247 0
M  V30 38 C 1.924186 1.414450 5.037082 0
M  V30 39 C 3.265635 1.976161 4.620740 0
M  V30 40 H 5.233402 0.501518 5.300180 0
M  V30 41 H 4.936486 -0.906768 4.439955 0
M  V30 42 H 2.150798 2.098070 2.290607 0
M  V30 43 H 1.313174 1.357726 0.160121 0
M  V30 44 H -2.618588 -0.975134 -0.014819 0
M  V30 45 H -3.918051 0.334258 0.814374 0
M  V30 46 H -5.347238 0.679890 2.696015 0
M  V30 47 H -8.542340 -3.079091 0.500900 0
M  V30 48 H -8.614011 -2.583435 2.241033 0
M  V30 49 H -9.163786 -0.407685 0.874024 0
M  V30 50 H -6.705939 -2.441709 -0.844474 0
M  V30 51 H -5.651155 -1.652411 -2.876889 0
M  V30 52 H -3.888976 -1.902038 -4.654230 0
M  V30 53 H 1.716357 -1.566783 -4.251114 0
M  V30 54 H 3.450537 0.849416 -3.154304 0
M  V30 55 H 5.844549 1.195505 -3.269703 0
M  V30 56 H 7.396605 -0.554671 -2.448592 0
M  V30 57 H 6.434181 -2.646987 -1.515981 0
M  V30 58 H 3.999850 -2.954939 -1.419546 0
M  V30 59 H 3.075713 -2.472827 0.727826 0
M  V30 60 H 3.931637 -1.755309 2.883885 0
M  V30 61 H 1.995683 -0.729629 4.797177 0
M  V30 62 H 3.087871 -0.079949 6.154050 0
M  V30 63 H 1.125841 1.388899 4.296674 0
M  V30 64 H 1.523976 1.770205 5.996398 0
M  V30 65 H 3.854760 2.224939 5.526248 0
M  V30 66 H 3.274591 2.810542 3.923283 0
M  V30 END ATOM
M  V30 BEGIN BOND
M  V30 1 1 1 2
M  V30 2 1 2 3
M  V30 3 2 3 4
M  V30 4 1 4 5
M  V30 5 2 5 6
M  V30 6 1 6 7
M  V30 7 2 7 8
M  V30 8 1 8 9
M  V30 9 2 9 10
M  V30 10 1 10 11
M  V30 11 2 11 12
M  V30 12 1 12 13
M  V30 13 2 13 14
M  V30 14 1 14 15
M  V30 15 2 15 16
M  V30 16 1 16 17
M  V30 17 1 16 18
M  V30 18 1 18 19
M  V30 19 1 19 20
M  V30 20 2 18 21
M  V30 21 1 12 22
M  V30 22 2 22 23
M  V30 23 1 23 24
M  V30 24 2 24 25
M  V30 25 1 25 26
M  V30 26 1 26 27
M  V30 27 2 27 28
M  V30 28 1 28 29
M  V30 29 2 29 30
M  V30 30 1 30 31
M  V30 31 2 31 32
M  V30 32 1 32 33
M  V30 33 2 33 34
M  V30 34 1 6 35
M  V30 35 2 35 36
M  V30 36 1 2 37
M  V30 37 1 37 38
M  V30 38 1 38 39
M  V30 39 1 39 2
M  V30 40 1 36 3
M  V30 41 1 28 7
M  V30 42 1 34 29
M  V30 43 1 26 9
M  V30 44 1 24 10
M  V30 45 1 21 13
M  V30 46 1 1 40
M  V30 47 1 1 41
M  V30 48 1 4 42
M  V30 49 1 5 43
M  V30 50 1 11 44
M  V30 51 1 14 45
M  V30 52 1 15 46
M  V30 53 1 19 47
M  V30 54 1 19 48
M  V30 55 1 20 49
M  V30 56 1 21 50
M  V30 57 1 22 51
M  V30 58 1 23 52
M  V30 59 1 27 53
M  V30 60 1 30 54
M  V30 61 1 31 55
M  V30 62 1 32 56
M  V30 63 1 33 57
M  V30 64 1 34 58
M  V30 65 1 35 59
M  V30 66 1 36 60
M  V30 67 1 37 61
M  V30 68 1 37 62
M  V30 69 1 38 63
M  V30 70 1 38 64
M  V30 71 1 39 65
M  V30 72 1 39 66
M  V30 END BOND
M  V30 END CTAB
M  END
>  <Dataset>  (23) 
ChEMBL_Kinases

>  <Ligand_Instance>  (23) 
nan

>  <PDB_ID>  (23) 
nan

>  <Standardized_SMILES>  (23) 
NC1(c2ccc(-c3nc4c5cc(-c6ccc(F)c(CO)c6)ccc5nn4cc3-c3ccccc3)cc2)CCC1

>  <Name>  (23) 
nan

>  <Pocket>  (23) 
nan

>  <ATP_Site>  (23) 
nan

>  <Peripheral>  (23) 
nan

>  <Num_H_Atoms_ProtBoundConf>  (23) 
nan

>  <Num_Resolved_Atoms>  (23) 
nan

>  <Num_Not_Resolved_Atoms>  (23) 
nan

$$$$
CHEMBL3672540
     RDKit          3D

  0  0  0  0  0  0  0  0  0  0999 V3000
M  V30 BEGIN CTAB
M  V30 COUNTS 67 73 0 0 0
M  V30 BEGIN ATOM
M  V30 1 N 5.187676 -1.564550 3.944597 0
M  V30 2 C 4.023117 -0.715228 3.726846 0
M  V30 3 C 3.332838 -0.886302 2.434513 0
M  V30 4 C 2.719838 0.107921 1.732618 0
M  V30 5 C 2.097559 -0.179499 0.523628 0
M  V30 6 C 2.067097 -1.472687 -0.026092 0
M  V30 7 C 1.337853 -1.447215 -1.283523 0
M  V30 8 N 0.025601 -1.150356 -1.118441 0
M  V30 9 C -0.827142 -1.060259 -2.147698 0
M  V30 10 C -2.177695 -0.767401 -2.189892 0
M  V30 11 C -3.069943 -0.484366 -1.197509 0
M  V30 12 C -4.430553 -0.201331 -1.375302 0
M  V30 13 C -5.242001 0.062332 -0.189509 0
M  V30 14 C -4.843355 -0.652611 0.950837 0
M  V30 15 C -5.581480 -0.432748 2.124313 0
M  V30 16 C -6.672699 0.444708 2.217063 0
M  V30 17 S -7.465242 0.587252 3.769965 0
M  V30 18 N -6.690841 1.809489 4.714665 0
M  V30 19 O -8.884187 1.070467 3.524451 0
M  V30 20 O -7.498703 -0.730863 4.482889 0
M  V30 21 C -7.003976 1.110101 1.057113 0
M  V30 22 C -6.311468 0.929358 -0.121907 0
M  V30 23 C -4.840918 -0.225607 -2.685502 0
M  V30 24 C -3.953959 -0.509433 -3.702638 0
M  V30 25 C -2.618664 -0.784739 -3.493924 0
M  V30 26 N -1.525032 -1.089340 -4.212509 0
M  V30 27 N -0.463626 -1.252342 -3.413383 0
M  V30 28 C 0.831962 -1.549504 -3.610754 0
M  V30 29 C 1.742537 -1.652443 -2.582178 0
M  V30 30 C 3.150083 -1.977820 -2.743545 0
M  V30 31 C 3.899914 -0.927718 -3.289715 0
M  V30 32 C 5.272421 -1.093802 -3.513013 0
M  V30 33 C 5.924738 -2.262970 -3.213390 0
M  V30 34 C 5.175081 -3.286557 -2.677348 0
M  V30 35 C 3.829416 -3.143718 -2.451535 0
M  V30 36 C 2.693980 -2.458763 0.702276 0
M  V30 37 C 3.306182 -2.159868 1.898569 0
M  V30 38 C 3.026124 -0.908016 4.875000 0
M  V30 39 C 2.963759 0.595143 5.090330 0
M  V30 40 C 4.225579 0.674957 4.228465 0
M  V30 41 H 5.105052 -2.102302 4.847414 0
M  V30 42 H 6.012105 -0.930894 4.108901 0
M  V30 43 H 2.754806 1.079750 2.169095 0
M  V30 44 H 1.654684 0.722796 0.088883 0
M  V30 45 H -2.690853 -0.472818 -0.165496 0
M  V30 46 H -4.032000 -1.364661 1.044405 0
M  V30 47 H -5.292561 -0.980227 3.031766 0
M  V30 48 H -6.313197 2.573453 4.145503 0
M  V30 49 H -6.008202 1.410108 5.396370 0
M  V30 50 H -7.841781 1.783560 1.134860 0
M  V30 51 H -6.579054 1.453006 -1.018631 0
M  V30 52 H -5.887934 -0.009441 -2.847022 0
M  V30 53 H -4.305747 -0.522151 -4.739296 0
M  V30 54 H 1.193018 -1.720022 -4.613233 0
M  V30 55 H 3.501256 0.055305 -3.573274 0
M  V30 56 H 5.862206 -0.270315 -3.941997 0
M  V30 57 H 6.965548 -2.466450 -3.353812 0
M  V30 58 H 5.622075 -4.251566 -2.411151 0
M  V30 59 H 3.203653 -3.909919 -2.043938 0
M  V30 60 H 2.607407 -3.406548 0.195730 0
M  V30 61 H 3.752627 -3.022932 2.355051 0
M  V30 62 H 2.085366 -1.361650 4.565027 0
M  V30 63 H 3.428766 -1.450673 5.751940 0
M  V30 64 H 2.085070 1.085977 4.616133 0
M  V30 65 H 3.114003 0.935058 6.139328 0
M  V30 66 H 5.111480 0.767071 4.922338 0
M  V30 67 H 4.171096 1.512600 3.541052 0
M  V30 END ATOM
M  V30 BEGIN BOND
M  V30 1 1 1 2
M  V30 2 1 2 3
M  V30 3 2 3 4
M  V30 4 1 4 5
M  V30 5 2 5 6
M  V30 6 1 6 7
M  V30 7 2 7 8
M  V30 8 1 8 9
M  V30 9 2 9 10
M  V30 10 1 10 11
M  V30 11 2 11 12
M  V30 12 1 12 13
M  V30 13 2 13 14
M  V30 14 1 14 15
M  V30 15 2 15 16
M  V30 16 1 16 17
M  V30 17 1 17 18
M  V30 18 2 17 19
M  V30 19 2 17 20
M  V30 20 1 16 21
M  V30 21 2 21 22
M  V30 22 1 12 23
M  V30 23 2 23 24
M  V30 24 1 24 25
M  V30 25 2 25 26
M  V30 26 1 26 27
M  V30 27 1 27 28
M  V30 28 2 28 29
M  V30 29 1 29 30
M  V30 30 2 30 31
M  V30 31 1 31 32
M  V30 32 2 32 33
M  V30 33 1 33 34
M  V30 34 2 34 35
M  V30 35 1 6 36
M  V30 36 2 36 37
M  V30 37 1 2 38
M  V30 38 1 38 39
M  V30 39 1 39 40
M  V30 40 1 40 2
M  V30 41 1 37 3
M  V30 42 1 29 7
M  V30 43 1 35 30
M  V30 44 1 27 9
M  V30 45 1 25 10
M  V30 46 1 22 13
M  V30 47 1 1 41
M  V30 48 1 1 42
M  V30 49 1 4 43
M  V30 50 1 5 44
M  V30 51 1 11 45
M  V30 52 1 14 46
M  V30 53 1 15 47
M  V30 54 1 18 48
M  V30 55 1 18 49
M  V30 56 1 21 50
M  V30 57 1 22 51
M  V30 58 1 23 52
M  V30 59 1 24 53
M  V30 60 1 28 54
M  V30 61 1 31 55
M  V30 62 1 32 56
M  V30 63 1 33 57
M  V30 64 1 34 58
M  V30 65 1 35 59
M  V30 66 1 36 60
M  V30 67 1 37 61
M  V30 68 1 38 62
M  V30 69 1 38 63
M  V30 70 1 39 64
M  V30 71 1 39 65
M  V30 72 1 40 66
M  V30 73 1 40 67
M  V30 END BOND
M  V30 END CTAB
M  END
>  <Dataset>  (24) 
ChEMBL_Kinases

>  <Ligand_Instance>  (24) 
nan

>  <PDB_ID>  (24) 
nan

>  <Standardized_SMILES>  (24) 
NC1(c2ccc(-c3nc4c5cc(-c6ccc(S(N)(=O)=O)cc6)ccc5nn4cc3-c3ccccc3)cc2)CCC1

>  <Name>  (24) 
nan

>  <Pocket>  (24) 
nan

>  <ATP_Site>  (24) 
nan

>  <Peripheral>  (24) 
nan

>  <Num_H_Atoms_ProtBoundConf>  (24) 
nan

>  <Num_Resolved_Atoms>  (24) 
nan

>  <Num_Not_Resolved_Atoms>  (24) 
nan

$$$$
CHEMBL3672539
     RDKit          3D

  0  0  0  0  0  0  0  0  0  0999 V3000
M  V30 BEGIN CTAB
M  V30 COUNTS 66 72 0 0 0
M  V30 BEGIN ATOM
M  V30 1 N 6.047804 -1.047998 3.335605 0
M  V30 2 C 5.050230 -0.062578 2.925584 0
M  V30 3 C 3.928777 -0.592568 2.121683 0
M  V30 4 C 3.336529 0.036016 1.045338 0
M  V30 5 C 2.288970 -0.585500 0.385660 0
M  V30 6 C 1.817238 -1.838782 0.787132 0
M  V30 7 C 0.716046 -2.276338 -0.061900 0
M  V30 8 N -0.371804 -1.451539 -0.041962 0
M  V30 9 C -1.412494 -1.832605 -0.823899 0
M  V30 10 C -2.650990 -1.268160 -1.057820 0
M  V30 11 C -3.266847 -0.124202 -0.583808 0
M  V30 12 C -4.541834 0.198907 -1.001808 0
M  V30 13 C -5.283388 1.378047 -0.566996 0
M  V30 14 C -6.650344 1.440030 -0.443455 0
M  V30 15 C -7.313224 2.577954 -0.027687 0
M  V30 16 C -6.592514 3.734112 0.289035 0
M  V30 17 C -7.287594 4.964068 0.737073 0
M  V30 18 O -7.603834 5.756370 -0.386621 0
M  V30 19 C -5.218449 3.689228 0.170382 0
M  V30 20 C -4.561093 2.533658 -0.250615 0
M  V30 21 C -5.197199 -0.633598 -1.899867 0
M  V30 22 C -4.622465 -1.801813 -2.411097 0
M  V30 23 C -3.342798 -2.064228 -1.949244 0
M  V30 24 N -2.520114 -3.089492 -2.238967 0
M  V30 25 N -1.379240 -2.959996 -1.578918 0
M  V30 26 C -0.294080 -3.760131 -1.583285 0
M  V30 27 C 0.809889 -3.433331 -0.806859 0
M  V30 28 C 1.990560 -4.267304 -0.786098 0
M  V30 29 C 1.766659 -5.567021 -0.329238 0
M  V30 30 C 2.822080 -6.452090 -0.266382 0
M  V30 31 C 4.102823 -6.129068 -0.631693 0
M  V30 32 C 4.311114 -4.840347 -1.081871 0
M  V30 33 C 3.287475 -3.922631 -1.161593 0
M  V30 34 C 2.416128 -2.458324 1.864014 0
M  V30 35 C 3.458188 -1.829294 2.512596 0
M  V30 36 C 4.575357 0.772586 4.119630 0
M  V30 37 C 4.775318 2.028372 3.305582 0
M  V30 38 C 5.704635 1.199724 2.415603 0
M  V30 39 H 5.687175 -1.711191 4.050029 0
M  V30 40 H 6.828926 -0.504458 3.768462 0
M  V30 41 H 3.730360 1.000485 0.769244 0
M  V30 42 H 1.910931 0.010028 -0.440869 0
M  V30 43 H -2.777839 0.539342 0.115326 0
M  V30 44 H -7.204480 0.539716 -0.690415 0
M  V30 45 H -8.394424 2.612173 0.065498 0
M  V30 46 H -6.633398 5.560337 1.430457 0
M  V30 47 H -8.231383 4.791217 1.261382 0
M  V30 48 H -7.988123 5.170480 -1.085565 0
M  V30 49 H -4.705904 4.593709 0.422022 0
M  V30 50 H -3.485826 2.581930 -0.316395 0
M  V30 51 H -6.208648 -0.434619 -2.270518 0
M  V30 52 H -5.134855 -2.441894 -3.105812 0
M  V30 53 H -0.302149 -4.649883 -2.196178 0
M  V30 54 H 0.814096 -5.992274 0.000746 0
M  V30 55 H 2.707901 -7.489688 0.084752 0
M  V30 56 H 4.945676 -6.810998 -0.589338 0
M  V30 57 H 5.266893 -4.449058 -1.401686 0
M  V30 58 H 3.378313 -2.896281 -1.504597 0
M  V30 59 H 1.971314 -3.412765 2.079440 0
M  V30 60 H 3.870360 -2.400063 3.357175 0
M  V30 61 H 3.539756 0.558079 4.424535 0
M  V30 62 H 5.256729 0.718941 4.990182 0
M  V30 63 H 5.306474 2.859278 3.831919 0
M  V30 64 H 3.904009 2.386039 2.728001 0
M  V30 65 H 5.640963 1.411768 1.350117 0
M  V30 66 H 6.768422 1.265214 2.746087 0
M  V30 END ATOM
M  V30 BEGIN BOND
M  V30 1 1 1 2
M  V30 2 1 2 3
M  V30 3 2 3 4
M  V30 4 1 4 5
M  V30 5 2 5 6
M  V30 6 1 6 7
M  V30 7 2 7 8
M  V30 8 1 8 9
M  V30 9 2 9 10
M  V30 10 1 10 11
M  V30 11 2 11 12
M  V30 12 1 12 13
M  V30 13 2 13 14
M  V30 14 1 14 15
M  V30 15 2 15 16
M  V30 16 1 16 17
M  V30 17 1 17 18
M  V30 18 1 16 19
M  V30 19 2 19 20
M  V30 20 1 12 21
M  V30 21 2 21 22
M  V30 22 1 22 23
M  V30 23 2 23 24
M  V30 24 1 24 25
M  V30 25 1 25 26
M  V30 26 2 26 27
M  V30 27 1 27 28
M  V30 28 2 28 29
M  V30 29 1 29 30
M  V30 30 2 30 31
M  V30 31 1 31 32
M  V30 32 2 32 33
M  V30 33 1 6 34
M  V30 34 2 34 35
M  V30 35 1 2 36
M  V30 36 1 36 37
M  V30 37 1 37 38
M  V30 38 1 38 2
M  V30 39 1 35 3
M  V30 40 1 27 7
M  V30 41 1 33 28
M  V30 42 1 25 9
M  V30 43 1 23 10
M  V30 44 1 20 13
M  V30 45 1 1 39
M  V30 46 1 1 40
M  V30 47 1 4 41
M  V30 48 1 5 42
M  V30 49 1 11 43
M  V30 50 1 14 44
M  V30 51 1 15 45
M  V30 52 1 17 46
M  V30 53 1 17 47
M  V30 54 1 18 48
M  V30 55 1 19 49
M  V30 56 1 20 50
M  V30 57 1 21 51
M  V30 58 1 22 52
M  V30 59 1 26 53
M  V30 60 1 29 54
M  V30 61 1 30 55
M  V30 62 1 31 56
M  V30 63 1 32 57
M  V30 64 1 33 58
M  V30 65 1 34 59
M  V30 66 1 35 60
M  V30 67 1 36 61
M  V30 68 1 36 62
M  V30 69 1 37 63
M  V30 70 1 37 64
M  V30 71 1 38 65
M  V30 72 1 38 66
M  V30 END BOND
M  V30 END CTAB
M  END
>  <Dataset>  (25) 
ChEMBL_Kinases

>  <Ligand_Instance>  (25) 
nan

>  <PDB_ID>  (25) 
nan

>  <Standardized_SMILES>  (25) 
NC1(c2ccc(-c3nc4c5cc(-c6ccc(CO)cc6)ccc5nn4cc3-c3ccccc3)cc2)CCC1

>  <Name>  (25) 
nan

>  <Pocket>  (25) 
nan

>  <ATP_Site>  (25) 
nan

>  <Peripheral>  (25) 
nan

>  <Num_H_Atoms_ProtBoundConf>  (25) 
nan

>  <Num_Resolved_Atoms>  (25) 
nan

>  <Num_Not_Resolved_Atoms>  (25) 
nan

$$$$
CHEMBL3672538
     RDKit          3D

  0  0  0  0  0  0  0  0  0  0999 V3000
M  V30 BEGIN CTAB
M  V30 COUNTS 66 72 0 0 0
M  V30 BEGIN ATOM
M  V30 1 N 6.289740 -0.764934 1.781739 0
M  V30 2 C 5.103034 -0.106436 2.349957 0
M  V30 3 C 3.832822 -0.654323 1.868800 0
M  V30 4 C 3.771768 -0.718752 0.486520 0
M  V30 5 C 2.671889 -1.198153 -0.194962 0
M  V30 6 C 1.566134 -1.640710 0.520819 0
M  V30 7 C 0.307905 -2.191769 0.038280 0
M  V30 8 N -0.799612 -1.422373 -0.034872 0
M  V30 9 C -1.967179 -1.919461 -0.484378 0
M  V30 10 C -3.185033 -1.259904 -0.621366 0
M  V30 11 C -3.624743 0.033071 -0.375115 0
M  V30 12 C -4.936741 0.364000 -0.634355 0
M  V30 13 C -5.476314 1.700547 -0.407481 0
M  V30 14 C -6.773117 2.008579 -0.054409 0
M  V30 15 C -7.185341 3.311743 0.136121 0
M  V30 16 C -6.222092 4.311230 -0.046151 0
M  V30 17 C -4.905335 4.030563 -0.402636 0
M  V30 18 C -3.956268 5.177668 -0.572421 0
M  V30 19 O -4.043080 5.554950 -1.921673 0
M  V30 20 C -4.530138 2.706188 -0.585057 0
M  V30 21 C -5.800780 -0.604811 -1.139365 0
M  V30 22 C -5.390571 -1.910971 -1.397103 0
M  V30 23 C -4.055443 -2.205299 -1.121542 0
M  V30 24 N -3.358465 -3.347698 -1.260031 0
M  V30 25 N -2.117514 -3.212860 -0.891966 0
M  V30 26 C -1.007817 -3.997379 -0.822228 0
M  V30 27 C 0.203027 -3.515273 -0.365746 0
M  V30 28 C 1.327903 -4.438478 -0.334953 0
M  V30 29 C 1.308680 -5.506584 0.566820 0
M  V30 30 C 2.352893 -6.413320 0.629553 0
M  V30 31 C 3.457236 -6.297704 -0.198572 0
M  V30 32 C 3.499924 -5.257251 -1.093159 0
M  V30 33 C 2.453806 -4.383822 -1.126937 0
M  V30 34 C 1.609894 -1.582791 1.916124 0
M  V30 35 C 2.727876 -1.096828 2.564234 0
M  V30 36 C 5.242094 -0.029746 3.854147 0
M  V30 37 C 4.639032 1.368057 3.759500 0
M  V30 38 C 5.209431 1.403292 2.336486 0
M  V30 39 H 6.098384 -1.777775 1.620706 0
M  V30 40 H 7.137163 -0.599182 2.357119 0
M  V30 41 H 4.549329 -0.413532 -0.201232 0
M  V30 42 H 2.540598 -1.278996 -1.259521 0
M  V30 43 H -2.942542 0.772276 0.017027 0
M  V30 44 H -7.446548 1.173227 0.063495 0
M  V30 45 H -8.200615 3.543165 0.411382 0
M  V30 46 H -6.592285 5.319322 0.114489 0
M  V30 47 H -2.915182 4.878068 -0.378962 0
M  V30 48 H -4.277444 6.041560 0.023056 0
M  V30 49 H -3.261418 6.061308 -2.239969 0
M  V30 50 H -3.487562 2.528826 -0.861889 0
M  V30 51 H -6.828645 -0.392542 -1.356146 0
M  V30 52 H -6.098218 -2.642205 -1.794373 0
M  V30 53 H -1.106383 -5.010223 -1.136961 0
M  V30 54 H 0.480448 -5.650752 1.236696 0
M  V30 55 H 2.400361 -7.263366 1.302588 0
M  V30 56 H 4.308488 -6.979314 -0.194810 0
M  V30 57 H 4.358181 -5.147701 -1.752753 0
M  V30 58 H 2.513368 -3.581451 -1.838417 0
M  V30 59 H 0.823241 -1.892861 2.606191 0
M  V30 60 H 2.844743 -1.017419 3.644323 0
M  V30 61 H 4.690315 -0.757274 4.451348 0
M  V30 62 H 6.322173 0.097504 4.141405 0
M  V30 63 H 5.075804 2.115755 4.444959 0
M  V30 64 H 3.529861 1.336077 3.787912 0
M  V30 65 H 4.539977 1.932506 1.649293 0
M  V30 66 H 6.261689 1.738439 2.337660 0
M  V30 END ATOM
M  V30 BEGIN BOND
M  V30 1 1 1 2
M  V30 2 1 2 3
M  V30 3 2 3 4
M  V30 4 1 4 5
M  V30 5 2 5 6
M  V30 6 1 6 7
M  V30 7 2 7 8
M  V30 8 1 8 9
M  V30 9 2 9 10
M  V30 10 1 10 11
M  V30 11 2 11 12
M  V30 12 1 12 13
M  V30 13 2 13 14
M  V30 14 1 14 15
M  V30 15 2 15 16
M  V30 16 1 16 17
M  V30 17 1 17 18
M  V30 18 1 18 19
M  V30 19 2 17 20
M  V30 20 1 12 21
M  V30 21 2 21 22
M  V30 22 1 22 23
M  V30 23 2 23 24
M  V30 24 1 24 25
M  V30 25 1 25 26
M  V30 26 2 26 27
M  V30 27 1 27 28
M  V30 28 2 28 29
M  V30 29 1 29 30
M  V30 30 2 30 31
M  V30 31 1 31 32
M  V30 32 2 32 33
M  V30 33 1 6 34
M  V30 34 2 34 35
M  V30 35 1 2 36
M  V30 36 1 36 37
M  V30 37 1 37 38
M  V30 38 1 38 2
M  V30 39 1 35 3
M  V30 40 1 27 7
M  V30 41 1 33 28
M  V30 42 1 25 9
M  V30 43 1 23 10
M  V30 44 1 20 13
M  V30 45 1 1 39
M  V30 46 1 1 40
M  V30 47 1 4 41
M  V30 48 1 5 42
M  V30 49 1 11 43
M  V30 50 1 14 44
M  V30 51 1 15 45
M  V30 52 1 16 46
M  V30 53 1 18 47
M  V30 54 1 18 48
M  V30 55 1 19 49
M  V30 56 1 20 50
M  V30 57 1 21 51
M  V30 58 1 22 52
M  V30 59 1 26 53
M  V30 60 1 29 54
M  V30 61 1 30 55
M  V30 62 1 31 56
M  V30 63 1 32 57
M  V30 64 1 33 58
M  V30 65 1 34 59
M  V30 66 1 35 60
M  V30 67 1 36 61
M  V30 68 1 36 62
M  V30 69 1 37 63
M  V30 70 1 37 64
M  V30 71 1 38 65
M  V30 72 1 38 66
M  V30 END BOND
M  V30 END CTAB
M  END
>  <Dataset>  (26) 
ChEMBL_Kinases

>  <Ligand_Instance>  (26) 
nan

>  <PDB_ID>  (26) 
nan

>  <Standardized_SMILES>  (26) 
NC1(c2ccc(-c3nc4c5cc(-c6cccc(CO)c6)ccc5nn4cc3-c3ccccc3)cc2)CCC1

>  <Name>  (26) 
nan

>  <Pocket>  (26) 
nan

>  <ATP_Site>  (26) 
nan

>  <Peripheral>  (26) 
nan

>  <Num_H_Atoms_ProtBoundConf>  (26) 
nan

>  <Num_Resolved_Atoms>  (26) 
nan

>  <Num_Not_Resolved_Atoms>  (26) 
nan

$$$$
CHEMBL3672537
     RDKit          3D

  0  0  0  0  0  0  0  0  0  0999 V3000
M  V30 BEGIN CTAB
M  V30 COUNTS 63 69 0 0 0
M  V30 BEGIN ATOM
M  V30 1 N 8.246149 -2.681092 5.766622 0
M  V30 2 C 7.461562 -1.981402 5.318164 0
M  V30 3 C 6.466456 -1.106930 4.736586 0
M  V30 4 C 5.139465 -1.466057 4.628078 0
M  V30 5 C 4.263129 -0.570496 4.061100 0
M  V30 6 C 4.647441 0.681312 3.590599 0
M  V30 7 C 3.668717 1.592853 2.995909 0
M  V30 8 C 3.782181 2.970968 3.085583 0
M  V30 9 C 2.858457 3.839967 2.524613 0
M  V30 10 C 1.766957 3.319047 1.840119 0
M  V30 11 N 0.705560 3.863346 1.189205 0
M  V30 12 N -0.052074 2.873258 0.705293 0
M  V30 13 C -1.196265 2.938392 -0.003890 0
M  V30 14 C -1.811801 1.770300 -0.402378 0
M  V30 15 C -3.043098 1.628650 -1.168382 0
M  V30 16 C -4.158859 2.176714 -0.535591 0
M  V30 17 C -5.379339 2.101864 -1.166360 0
M  V30 18 C -5.578459 1.515757 -2.395040 0
M  V30 19 C -4.443092 0.984065 -2.987944 0
M  V30 20 C -3.201406 1.029668 -2.406227 0
M  V30 21 C -1.246558 0.557296 -0.068694 0
M  V30 22 C -1.689057 -0.797296 -0.362712 0
M  V30 23 C -0.798940 -1.531901 -1.122751 0
M  V30 24 C -1.038627 -2.834664 -1.504349 0
M  V30 25 C -2.212462 -3.447317 -1.119792 0
M  V30 26 C -2.758467 -4.804666 -1.356659 0
M  V30 27 N -3.327985 -5.455887 -0.196953 0
M  V30 28 C -3.577018 -4.932904 -2.626089 0
M  V30 29 C -2.319195 -5.418580 -3.363635 0
M  V30 30 C -1.761911 -5.743363 -1.994184 0
M  V30 31 C -3.128715 -2.718244 -0.348073 0
M  V30 32 C -2.849945 -1.395251 0.020629 0
M  V30 33 N -0.087387 0.558395 0.650737 0
M  V30 34 C 0.522213 1.700666 1.045192 0
M  V30 35 C 1.677836 1.942918 1.765591 0
M  V30 36 C 2.594310 1.070727 2.321982 0
M  V30 37 C 5.998361 1.015114 3.714942 0
M  V30 38 C 6.899269 0.124657 4.284612 0
M  V30 39 H 4.855144 -2.438724 4.996279 0
M  V30 40 H 3.224891 -0.870062 3.984394 0
M  V30 41 H 4.643557 3.364774 3.625357 0
M  V30 42 H 2.967181 4.913282 2.607102 0
M  V30 43 H -1.695199 3.837193 -0.301010 0
M  V30 44 H -4.169534 2.670020 0.427687 0
M  V30 45 H -6.284404 2.520858 -0.703132 0
M  V30 46 H -6.559285 1.475241 -2.863332 0
M  V30 47 H -4.554263 0.512583 -3.956726 0
M  V30 48 H -2.305015 0.632402 -2.830552 0
M  V30 49 H 0.152042 -1.160895 -1.483324 0
M  V30 50 H -0.431066 -3.483266 -2.082597 0
M  V30 51 H -2.539355 -5.836464 0.398175 0
M  V30 52 H -4.059382 -6.135900 -0.418157 0
M  V30 53 H -3.874788 -3.957056 -3.048923 0
M  V30 54 H -4.343448 -5.715095 -2.559516 0
M  V30 55 H -2.466781 -6.336245 -3.950478 0
M  V30 56 H -1.758904 -4.639716 -3.888903 0
M  V30 57 H -1.896818 -6.812459 -1.727111 0
M  V30 58 H -0.695679 -5.471609 -1.894351 0
M  V30 59 H -4.089571 -3.031999 0.040018 0
M  V30 60 H -3.510618 -0.777358 0.612911 0
M  V30 61 H 2.446347 0.005932 2.215229 0
M  V30 62 H 6.321186 1.976646 3.359046 0
M  V30 63 H 7.930897 0.455468 4.346355 0
M  V30 END ATOM
M  V30 BEGIN BOND
M  V30 1 3 1 2
M  V30 2 1 2 3
M  V30 3 2 3 4
M  V30 4 1 4 5
M  V30 5 2 5 6
M  V30 6 1 6 7
M  V30 7 1 7 8
M  V30 8 2 8 9
M  V30 9 1 9 10
M  V30 10 2 10 11
M  V30 11 1 11 12
M  V30 12 1 12 13
M  V30 13 2 13 14
M  V30 14 1 14 15
M  V30 15 2 15 16
M  V30 16 1 16 17
M  V30 17 2 17 18
M  V30 18 1 18 19
M  V30 19 2 19 20
M  V30 20 1 14 21
M  V30 21 1 21 22
M  V30 22 2 22 23
M  V30 23 1 23 24
M  V30 24 2 24 25
M  V30 25 1 25 26
M  V30 26 1 26 27
M  V30 27 1 26 28
M  V30 28 1 28 29
M  V30 29 1 29 30
M  V30 30 1 25 31
M  V30 31 2 31 32
M  V30 32 2 21 33
M  V30 33 1 33 34
M  V30 34 2 34 35
M  V30 35 1 35 36
M  V30 36 1 6 37
M  V30 37 2 37 38
M  V30 38 1 38 3
M  V30 39 2 36 7
M  V30 40 1 35 10
M  V30 41 1 34 12
M  V30 42 1 20 15
M  V30 43 1 32 22
M  V30 44 1 30 26
M  V30 45 1 4 39
M  V30 46 1 5 40
M  V30 47 1 8 41
M  V30 48 1 9 42
M  V30 49 1 13 43
M  V30 50 1 16 44
M  V30 51 1 17 45
M  V30 52 1 18 46
M  V30 53 1 19 47
M  V30 54 1 20 48
M  V30 55 1 23 49
M  V30 56 1 24 50
M  V30 57 1 27 51
M  V30 58 1 27 52
M  V30 59 1 28 53
M  V30 60 1 28 54
M  V30 61 1 29 55
M  V30 62 1 29 56
M  V30 63 1 30 57
M  V30 64 1 30 58
M  V30 65 1 31 59
M  V30 66 1 32 60
M  V30 67 1 36 61
M  V30 68 1 37 62
M  V30 69 1 38 63
M  V30 END BOND
M  V30 END CTAB
M  END
>  <Dataset>  (27) 
ChEMBL_Kinases

>  <Ligand_Instance>  (27) 
nan

>  <PDB_ID>  (27) 
nan

>  <Standardized_SMILES>  (27) 
N#Cc1ccc(-c2ccc3nn4cc(-c5ccccc5)c(-c5ccc(C6(N)CCC6)cc5)nc4c3c2)cc1

>  <Name>  (27) 
nan

>  <Pocket>  (27) 
nan

>  <ATP_Site>  (27) 
nan

>  <Peripheral>  (27) 
nan

>  <Num_H_Atoms_ProtBoundConf>  (27) 
nan

>  <Num_Resolved_Atoms>  (27) 
nan

>  <Num_Not_Resolved_Atoms>  (27) 
nan

$$$$
CHEMBL3672536
     RDKit          3D

  0  0  0  0  0  0  0  0  0  0999 V3000
M  V30 BEGIN CTAB
M  V30 COUNTS 52 57 0 0 0
M  V30 BEGIN ATOM
M  V30 1 N -2.419120 -2.924317 4.728166 0
M  V30 2 C -2.831274 -2.969385 3.323931 0
M  V30 3 C -2.039475 -2.064215 2.507457 0
M  V30 4 C -2.312240 -0.875884 1.819816 0
M  V30 5 C -1.323521 -0.257814 1.090092 0
M  V30 6 C -0.020401 -0.731149 0.969960 0
M  V30 7 C 0.835443 0.101686 0.144527 0
M  V30 8 N 1.301851 1.290204 0.602156 0
M  V30 9 C 2.111825 2.095649 -0.151152 0
M  V30 10 C 2.685603 3.325896 0.139648 0
M  V30 11 C 2.607456 4.101565 1.279241 0
M  V30 12 C 3.304647 5.290141 1.264750 0
M  V30 13 Br 3.298169 6.468435 2.776325 0
M  V30 14 C 4.041631 5.662908 0.140507 0
M  V30 15 C 4.105279 4.863417 -0.997799 0
M  V30 16 C 3.406124 3.674663 -0.978074 0
M  V30 17 N 3.262543 2.686361 -1.893415 0
M  V30 18 N 2.479106 1.730729 -1.391121 0
M  V30 19 C 2.057011 0.556673 -1.926185 0
M  V30 20 C 1.235094 -0.239700 -1.134617 0
M  V30 21 C 0.791270 -1.505995 -1.705483 0
M  V30 22 C 1.905869 -2.314569 -1.985216 0
M  V30 23 C 1.762594 -3.571553 -2.532727 0
M  V30 24 C 0.493291 -4.068348 -2.821463 0
M  V30 25 C -0.605022 -3.250147 -2.537289 0
M  V30 26 C -0.465424 -1.994330 -1.990798 0
M  V30 27 C 0.252263 -1.903540 1.646300 0
M  V30 28 C -0.751000 -2.536335 2.391048 0
M  V30 29 C -4.304910 -2.656841 3.275702 0
M  V30 30 C -4.421171 -3.802644 2.253477 0
M  V30 31 C -3.140012 -4.336202 2.811971 0
M  V30 32 H -2.840290 -2.017791 5.084087 0
M  V30 33 H -2.877961 -3.732508 5.235626 0
M  V30 34 H -3.324242 -0.537011 1.936601 0
M  V30 35 H -1.700815 0.662220 0.615216 0
M  V30 36 H 2.049506 3.841685 2.153245 0
M  V30 37 H 4.604690 6.577155 0.068728 0
M  V30 38 H 4.666423 5.122429 -1.888465 0
M  V30 39 H 2.390477 0.335889 -2.908471 0
M  V30 40 H 2.956082 -2.068125 -1.815742 0
M  V30 41 H 2.600436 -4.232863 -2.767722 0
M  V30 42 H 0.267318 -5.046393 -3.255944 0
M  V30 43 H -1.618968 -3.528327 -2.717608 0
M  V30 44 H -1.223793 -1.282193 -1.731339 0
M  V30 45 H 1.280367 -2.212027 1.503367 0
M  V30 46 H -0.302565 -3.419224 2.824072 0
M  V30 47 H -4.873032 -2.856426 4.220767 0
M  V30 48 H -4.609780 -1.699393 2.829262 0
M  V30 49 H -4.279747 -3.397008 1.239553 0
M  V30 50 H -5.342321 -4.402355 2.430476 0
M  V30 51 H -2.432998 -4.825824 2.136458 0
M  V30 52 H -3.327944 -5.023809 3.671786 0
M  V30 END ATOM
M  V30 BEGIN BOND
M  V30 1 1 1 2
M  V30 2 1 2 3
M  V30 3 2 3 4
M  V30 4 1 4 5
M  V30 5 2 5 6
M  V30 6 1 6 7
M  V30 7 2 7 8
M  V30 8 1 8 9
M  V30 9 2 9 10
M  V30 10 1 10 11
M  V30 11 2 11 12
M  V30 12 1 12 13
M  V30 13 1 12 14
M  V30 14 2 14 15
M  V30 15 1 15 16
M  V30 16 2 16 17
M  V30 17 1 17 18
M  V30 18 1 18 19
M  V30 19 2 19 20
M  V30 20 1 20 21
M  V30 21 2 21 22
M  V30 22 1 22 23
M  V30 23 2 23 24
M  V30 24 1 24 25
M  V30 25 2 25 26
M  V30 26 1 6 27
M  V30 27 2 27 28
M  V30 28 1 2 29
M  V30 29 1 29 30
M  V30 30 1 30 31
M  V30 31 1 31 2
M  V30 32 1 28 3
M  V30 33 1 20 7
M  V30 34 1 26 21
M  V30 35 1 18 9
M  V30 36 1 16 10
M  V30 37 1 1 32
M  V30 38 1 1 33
M  V30 39 1 4 34
M  V30 40 1 5 35
M  V30 41 1 11 36
M  V30 42 1 14 37
M  V30 43 1 15 38
M  V30 44 1 19 39
M  V30 45 1 22 40
M  V30 46 1 23 41
M  V30 47 1 24 42
M  V30 48 1 25 43
M  V30 49 1 26 44
M  V30 50 1 27 45
M  V30 51 1 28 46
M  V30 52 1 29 47
M  V30 53 1 29 48
M  V30 54 1 30 49
M  V30 55 1 30 50
M  V30 56 1 31 51
M  V30 57 1 31 52
M  V30 END BOND
M  V30 END CTAB
M  END
>  <Dataset>  (28) 
ChEMBL_Kinases

>  <Ligand_Instance>  (28) 
nan

>  <PDB_ID>  (28) 
nan

>  <Standardized_SMILES>  (28) 
NC1(c2ccc(-c3nc4c5cc(Br)ccc5nn4cc3-c3ccccc3)cc2)CCC1

>  <Name>  (28) 
nan

>  <Pocket>  (28) 
nan

>  <ATP_Site>  (28) 
nan

>  <Peripheral>  (28) 
nan

>  <Num_H_Atoms_ProtBoundConf>  (28) 
nan

>  <Num_Resolved_Atoms>  (28) 
nan

>  <Num_Not_Resolved_Atoms>  (28) 
nan

$$$$
CHEMBL3672535
     RDKit          3D

  0  0  0  0  0  0  0  0  0  0999 V3000
M  V30 BEGIN CTAB
M  V30 COUNTS 63 69 0 0 0
M  V30 BEGIN ATOM
M  V30 1 N 5.777547 -3.116102 4.179861 0
M  V30 2 C 5.909530 -2.013226 3.796075 0
M  V30 3 C 6.084602 -0.659848 3.309471 0
M  V30 4 C 7.325200 -0.100558 3.128171 0
M  V30 5 C 7.487957 1.181480 2.667130 0
M  V30 6 C 6.374407 1.952989 2.369152 0
M  V30 7 C 5.100101 1.413567 2.542642 0
M  V30 8 C 3.915145 2.240574 2.223451 0
M  V30 9 C 3.866345 3.600829 2.366821 0
M  V30 10 C 2.685755 4.265494 2.029706 0
M  V30 11 C 1.561988 3.621570 1.558081 0
M  V30 12 N 0.333974 3.993354 1.169804 0
M  V30 13 N -0.371013 2.914289 0.794306 0
M  V30 14 C -1.636333 2.839452 0.340153 0
M  V30 15 C -2.137285 1.595808 0.017012 0
M  V30 16 C -3.463613 1.316104 -0.483231 0
M  V30 17 C -4.367098 0.525921 0.225609 0
M  V30 18 C -5.627561 0.254768 -0.239674 0
M  V30 19 C -6.001825 0.790905 -1.456498 0
M  V30 20 C -5.149555 1.590779 -2.220453 0
M  V30 21 C -3.888692 1.832050 -1.702678 0
M  V30 22 C -1.337059 0.482222 0.167148 0
M  V30 23 C -1.653652 -0.916058 -0.108825 0
M  V30 24 C -1.640476 -1.921578 0.836570 0
M  V30 25 C -1.958106 -3.237054 0.482985 0
M  V30 26 C -2.297736 -3.575154 -0.833285 0
M  V30 27 C -2.586753 -5.008588 -0.948246 0
M  V30 28 N -3.577936 -5.380865 0.068776 0
M  V30 29 C -2.939035 -5.437729 -2.331621 0
M  V30 30 C -2.160828 -6.726242 -2.058319 0
M  V30 31 C -1.396561 -5.942556 -0.983260 0
M  V30 32 C -2.304937 -2.557846 -1.760297 0
M  V30 33 C -1.990203 -1.265377 -1.400268 0
M  V30 34 N -0.059801 0.608314 0.631571 0
M  V30 35 C 0.429838 1.844090 0.949821 0
M  V30 36 C 1.661241 2.251353 1.431279 0
M  V30 37 C 2.818333 1.532751 1.753813 0
M  V30 38 C 4.978569 0.121195 3.008132 0
M  V30 39 H 8.192522 -0.732260 3.371535 0
M  V30 40 H 8.501133 1.565057 2.545461 0
M  V30 41 H 6.506585 2.950926 2.010363 0
M  V30 42 H 4.742956 4.103061 2.734846 0
M  V30 43 H 2.656479 5.350244 2.147586 0
M  V30 44 H -2.296122 3.684088 0.207493 0
M  V30 45 H -4.058888 0.107055 1.188301 0
M  V30 46 H -6.336273 -0.367976 0.321396 0
M  V30 47 H -6.992996 0.607567 -1.874228 0
M  V30 48 H -5.431602 2.015430 -3.173389 0
M  V30 49 H -3.233764 2.459718 -2.312353 0
M  V30 50 H -1.375150 -1.625575 1.837823 0
M  V30 51 H -1.903107 -3.911768 1.336007 0
M  V30 52 H -3.429315 -6.385524 0.333542 0
M  V30 53 H -4.513757 -5.226427 -0.396470 0
M  V30 54 H -2.458609 -4.887986 -3.149139 0
M  V30 55 H -4.015621 -5.663637 -2.479938 0
M  V30 56 H -1.534185 -7.031926 -2.915065 0
M  V30 57 H -2.801268 -7.535034 -1.667002 0
M  V30 58 H -0.457467 -5.502344 -1.315290 0
M  V30 59 H -1.364991 -6.542267 -0.044547 0
M  V30 60 H -2.577606 -2.908172 -2.743304 0
M  V30 61 H -2.029208 -0.536946 -2.224784 0
M  V30 62 H 2.796444 0.462571 1.619929 0
M  V30 63 H 3.993871 -0.291518 3.140632 0
M  V30 END ATOM
M  V30 BEGIN BOND
M  V30 1 3 1 2
M  V30 2 1 2 3
M  V30 3 2 3 4
M  V30 4 1 4 5
M  V30 5 2 5 6
M  V30 6 1 6 7
M  V30 7 1 7 8
M  V30 8 1 8 9
M  V30 9 2 9 10
M  V30 10 1 10 11
M  V30 11 2 11 12
M  V30 12 1 12 13
M  V30 13 1 13 14
M  V30 14 2 14 15
M  V30 15 1 15 16
M  V30 16 2 16 17
M  V30 17 1 17 18
M  V30 18 2 18 19
M  V30 19 1 19 20
M  V30 20 2 20 21
M  V30 21 1 15 22
M  V30 22 1 22 23
M  V30 23 2 23 24
M  V30 24 1 24 25
M  V30 25 2 25 26
M  V30 26 1 26 27
M  V30 27 1 27 28
M  V30 28 1 27 29
M  V30 29 1 29 30
M  V30 30 1 30 31
M  V30 31 1 26 32
M  V30 32 2 32 33
M  V30 33 2 22 34
M  V30 34 1 34 35
M  V30 35 2 35 36
M  V30 36 1 36 37
M  V30 37 2 7 38
M  V30 38 1 38 3
M  V30 39 2 37 8
M  V30 40 1 36 11
M  V30 41 1 35 13
M  V30 42 1 21 16
M  V30 43 1 33 23
M  V30 44 1 31 27
M  V30 45 1 4 39
M  V30 46 1 5 40
M  V30 47 1 6 41
M  V30 48 1 9 42
M  V30 49 1 10 43
M  V30 50 1 14 44
M  V30 51 1 17 45
M  V30 52 1 18 46
M  V30 53 1 19 47
M  V30 54 1 20 48
M  V30 55 1 21 49
M  V30 56 1 24 50
M  V30 57 1 25 51
M  V30 58 1 28 52
M  V30 59 1 28 53
M  V30 60 1 29 54
M  V30 61 1 29 55
M  V30 62 1 30 56
M  V30 63 1 30 57
M  V30 64 1 31 58
M  V30 65 1 31 59
M  V30 66 1 32 60
M  V30 67 1 33 61
M  V30 68 1 37 62
M  V30 69 1 38 63
M  V30 END BOND
M  V30 END CTAB
M  END
>  <Dataset>  (29) 
ChEMBL_Kinases

>  <Ligand_Instance>  (29) 
nan

>  <PDB_ID>  (29) 
nan

>  <Standardized_SMILES>  (29) 
N#Cc1cccc(-c2ccc3nn4cc(-c5ccccc5)c(-c5ccc(C6(N)CCC6)cc5)nc4c3c2)c1

>  <Name>  (29) 
nan

>  <Pocket>  (29) 
nan

>  <ATP_Site>  (29) 
nan

>  <Peripheral>  (29) 
nan

>  <Num_H_Atoms_ProtBoundConf>  (29) 
nan

>  <Num_Resolved_Atoms>  (29) 
nan

>  <Num_Not_Resolved_Atoms>  (29) 
nan

$$$$
CHEMBL3672534
     RDKit          3D

  0  0  0  0  0  0  0  0  0  0999 V3000
M  V30 BEGIN CTAB
M  V30 COUNTS 68 74 0 0 0
M  V30 BEGIN ATOM
M  V30 1 C 6.653704 -2.853713 3.514406 0
M  V30 2 O 6.408466 -1.782833 2.617942 0
M  V30 3 C 7.399425 -1.179123 1.855196 0
M  V30 4 O 8.590458 -1.601341 1.959149 0
M  V30 5 C 7.130831 -0.077485 0.936733 0
M  V30 6 C 8.202336 0.436700 0.235685 0
M  V30 7 C 7.961161 1.479450 -0.636450 0
M  V30 8 C 6.706899 2.006216 -0.819259 0
M  V30 9 C 5.647784 1.456382 -0.089365 0
M  V30 10 C 4.304055 2.007515 -0.273258 0
M  V30 11 C 4.219100 3.354490 -0.567472 0
M  V30 12 C 3.028235 4.024283 -0.769565 0
M  V30 13 C 1.862757 3.272617 -0.664314 0
M  V30 14 N 0.571207 3.586433 -0.794668 0
M  V30 15 N -0.194384 2.521080 -0.602428 0
M  V30 16 C -1.532098 2.369612 -0.634862 0
M  V30 17 C -2.086510 1.108192 -0.390170 0
M  V30 18 C -3.530482 1.086156 -0.455816 0
M  V30 19 C -3.988834 0.254130 -1.483870 0
M  V30 20 C -5.351846 0.099353 -1.709316 0
M  V30 21 C -6.283044 0.754406 -0.934531 0
M  V30 22 C -5.810746 1.577946 0.083538 0
M  V30 23 C -4.452393 1.744215 0.322901 0
M  V30 24 C -1.232930 0.049223 -0.120629 0
M  V30 25 C -1.949614 -1.200592 0.113710 0
M  V30 26 C -1.884854 -2.370781 -0.577653 0
M  V30 27 C -2.652135 -3.458174 -0.195910 0
M  V30 28 C -3.503136 -3.399268 0.888130 0
M  V30 29 C -4.228115 -4.649428 1.132113 0
M  V30 30 N -3.429852 -5.858753 1.117274 0
M  V30 31 C -5.178809 -4.659277 2.308715 0
M  V30 32 C -6.319802 -4.262605 1.385277 0
M  V30 33 C -5.458685 -4.719583 0.225831 0
M  V30 34 C -3.561770 -2.217825 1.577786 0
M  V30 35 C -2.804114 -1.132229 1.207054 0
M  V30 36 N 0.101604 0.239483 -0.096706 0
M  V30 37 C 0.617170 1.462185 -0.334937 0
M  V30 38 C 1.925017 1.910056 -0.367830 0
M  V30 39 C 3.131353 1.268531 -0.171065 0
M  V30 40 C 5.850984 0.407750 0.796658 0
M  V30 41 H 7.463260 -2.541033 4.190536 0
M  V30 42 H 6.825062 -3.819591 2.997943 0
M  V30 43 H 5.732415 -2.972097 4.128250 0
M  V30 44 H 9.218922 0.051126 0.347084 0
M  V30 45 H 8.811673 1.879956 -1.186163 0
M  V30 46 H 6.542943 2.836806 -1.520446 0
M  V30 47 H 5.093861 4.011281 -0.666404 0
M  V30 48 H 2.968796 5.079140 -0.999690 0
M  V30 49 H -2.132795 3.262485 -0.856368 0
M  V30 50 H -3.375612 -0.323599 -2.172827 0
M  V30 51 H -5.750019 -0.535551 -2.495094 0
M  V30 52 H -7.347030 0.637229 -1.106152 0
M  V30 53 H -6.499944 2.119952 0.726878 0
M  V30 54 H -4.014826 2.353006 1.077867 0
M  V30 55 H -1.196849 -2.349059 -1.417742 0
M  V30 56 H -2.493130 -4.324766 -0.845348 0
M  V30 57 H -3.762307 -6.557258 1.843717 0
M  V30 58 H -3.594069 -6.314073 0.193795 0
M  V30 59 H -5.378149 -5.677546 2.711372 0
M  V30 60 H -4.963488 -3.988177 3.138941 0
M  V30 61 H -6.555626 -3.179218 1.391654 0
M  V30 62 H -7.244988 -4.837948 1.480975 0
M  V30 63 H -5.651077 -5.750062 -0.105681 0
M  V30 64 H -5.441389 -4.005722 -0.603373 0
M  V30 65 H -4.246136 -2.221040 2.422885 0
M  V30 66 H -2.954734 -0.269309 1.844246 0
M  V30 67 H 3.216123 0.226983 0.057377 0
M  V30 68 H 5.033494 -0.026171 1.368517 0
M  V30 END ATOM
M  V30 BEGIN BOND
M  V30 1 1 1 2
M  V30 2 1 2 3
M  V30 3 2 3 4
M  V30 4 1 3 5
M  V30 5 2 5 6
M  V30 6 1 6 7
M  V30 7 2 7 8
M  V30 8 1 8 9
M  V30 9 1 9 10
M  V30 10 1 10 11
M  V30 11 2 11 12
M  V30 12 1 12 13
M  V30 13 2 13 14
M  V30 14 1 14 15
M  V30 15 1 15 16
M  V30 16 2 16 17
M  V30 17 1 17 18
M  V30 18 2 18 19
M  V30 19 1 19 20
M  V30 20 2 20 21
M  V30 21 1 21 22
M  V30 22 2 22 23
M  V30 23 1 17 24
M  V30 24 1 24 25
M  V30 25 2 25 26
M  V30 26 1 26 27
M  V30 27 2 27 28
M  V30 28 1 28 29
M  V30 29 1 29 30
M  V30 30 1 29 31
M  V30 31 1 31 32
M  V30 32 1 32 33
M  V30 33 1 28 34
M  V30 34 2 34 35
M  V30 35 2 24 36
M  V30 36 1 36 37
M  V30 37 2 37 38
M  V30 38 1 38 39
M  V30 39 2 9 40
M  V30 40 1 40 5
M  V30 41 2 39 10
M  V30 42 1 38 13
M  V30 43 1 37 15
M  V30 44 1 23 18
M  V30 45 1 35 25
M  V30 46 1 33 29
M  V30 47 1 1 41
M  V30 48 1 1 42
M  V30 49 1 1 43
M  V30 50 1 6 44
M  V30 51 1 7 45
M  V30 52 1 8 46
M  V30 53 1 11 47
M  V30 54 1 12 48
M  V30 55 1 16 49
M  V30 56 1 19 50
M  V30 57 1 20 51
M  V30 58 1 21 52
M  V30 59 1 22 53
M  V30 60 1 23 54
M  V30 61 1 26 55
M  V30 62 1 27 56
M  V30 63 1 30 57
M  V30 64 1 30 58
M  V30 65 1 31 59
M  V30 66 1 31 60
M  V30 67 1 32 61
M  V30 68 1 32 62
M  V30 69 1 33 63
M  V30 70 1 33 64
M  V30 71 1 34 65
M  V30 72 1 35 66
M  V30 73 1 39 67
M  V30 74 1 40 68
M  V30 END BOND
M  V30 END CTAB
M  END
>  <Dataset>  (30) 
ChEMBL_Kinases

>  <Ligand_Instance>  (30) 
nan

>  <PDB_ID>  (30) 
nan

>  <Standardized_SMILES>  (30) 
COC(=O)c1cccc(-c2ccc3nn4cc(-c5ccccc5)c(-c5ccc(C6(N)CCC6)cc5)nc4c3c2)c1

>  <Name>  (30) 
nan

>  <Pocket>  (30) 
nan

>  <ATP_Site>  (30) 
nan

>  <Peripheral>  (30) 
nan

>  <Num_H_Atoms_ProtBoundConf>  (30) 
nan

>  <Num_Resolved_Atoms>  (30) 
nan

>  <Num_Not_Resolved_Atoms>  (30) 
nan

$$$$
CHEMBL3672533
     RDKit          3D

  0  0  0  0  0  0  0  0  0  0999 V3000
M  V30 BEGIN CTAB
M  V30 COUNTS 65 71 0 0 0
M  V30 BEGIN ATOM
M  V30 1 C 4.887898 1.251149 7.196775 0
M  V30 2 C 4.554829 1.689320 5.813894 0
M  V30 3 C 5.426255 2.307752 4.944545 0
M  V30 4 C 4.957578 2.652361 3.689759 0
M  V30 5 C 3.658717 2.397517 3.289332 0
M  V30 6 C 3.178860 2.768676 1.958996 0
M  V30 7 C 3.613529 3.862461 1.232248 0
M  V30 8 C 3.110520 4.147202 -0.022541 0
M  V30 9 C 2.146288 3.347118 -0.608594 0
M  V30 10 N 1.459439 3.327699 -1.769505 0
M  V30 11 N 0.632103 2.272335 -1.773221 0
M  V30 12 C -0.240455 1.849761 -2.709565 0
M  V30 13 C -1.000586 0.715729 -2.490642 0
M  V30 14 C -1.981851 0.134653 -3.400454 0
M  V30 15 C -1.858246 -1.128898 -3.942767 0
M  V30 16 C -2.776864 -1.693314 -4.805581 0
M  V30 17 C -3.895885 -0.955479 -5.156124 0
M  V30 18 C -4.051215 0.313522 -4.631419 0
M  V30 19 C -3.112984 0.846346 -3.771435 0
M  V30 20 C -0.848386 0.024468 -1.294057 0
M  V30 21 C -1.559020 -1.183082 -0.885505 0
M  V30 22 C -2.885868 -1.345099 -0.652664 0
M  V30 23 C -3.383137 -2.595595 -0.266075 0
M  V30 24 C -2.532080 -3.698078 -0.112014 0
M  V30 25 C -3.344271 -4.864298 0.302429 0
M  V30 26 N -4.543582 -5.051880 -0.492376 0
M  V30 27 C -2.602581 -6.163513 0.479961 0
M  V30 28 C -2.440471 -5.826039 1.948255 0
M  V30 29 C -3.646550 -4.905036 1.791855 0
M  V30 30 C -1.190070 -3.506360 -0.354519 0
M  V30 31 C -0.719786 -2.268406 -0.734106 0
M  V30 32 N 0.037205 0.489356 -0.392405 0
M  V30 33 C 0.780721 1.599689 -0.607818 0
M  V30 34 C 1.733866 2.265199 0.140561 0
M  V30 35 C 2.203928 1.937290 1.396596 0
M  V30 36 C 2.771613 1.769126 4.171225 0
M  V30 37 C 3.252690 1.423177 5.439483 0
M  V30 38 H 4.164406 1.667769 7.943603 0
M  V30 39 H 5.926669 1.582565 7.395523 0
M  V30 40 H 4.762958 0.148679 7.232813 0
M  V30 41 H 6.433646 2.487876 5.298882 0
M  V30 42 H 5.667484 3.145360 3.009622 0
M  V30 43 H 4.379359 4.494834 1.702562 0
M  V30 44 H 3.458302 5.000225 -0.573998 0
M  V30 45 H -0.401920 2.333323 -3.641617 0
M  V30 46 H -0.975516 -1.678955 -3.650909 0
M  V30 47 H -2.614289 -2.688924 -5.191577 0
M  V30 48 H -4.603004 -1.415759 -5.832934 0
M  V30 49 H -4.952470 0.806401 -4.963803 0
M  V30 50 H -3.296819 1.846339 -3.397219 0
M  V30 51 H -3.486124 -0.462907 -0.787739 0
M  V30 52 H -4.472475 -2.540796 -0.122297 0
M  V30 53 H -4.849183 -6.048693 -0.453469 0
M  V30 54 H -4.321768 -4.717882 -1.468707 0
M  V30 55 H -1.635595 -6.142731 -0.031117 0
M  V30 56 H -3.225362 -7.060956 0.285513 0
M  V30 57 H -2.624247 -6.735539 2.557636 0
M  V30 58 H -1.515568 -5.263491 2.180377 0
M  V30 59 H -3.553207 -3.934688 2.310481 0
M  V30 60 H -4.569245 -5.473843 2.027178 0
M  V30 61 H -0.638451 -4.415604 -0.204361 0
M  V30 62 H 0.364855 -2.297136 -0.884144 0
M  V30 63 H 1.835728 1.074936 1.924612 0
M  V30 64 H 1.744931 1.543559 3.915226 0
M  V30 65 H 2.523691 0.931402 6.102125 0
M  V30 END ATOM
M  V30 BEGIN BOND
M  V30 1 1 1 2
M  V30 2 2 2 3
M  V30 3 1 3 4
M  V30 4 2 4 5
M  V30 5 1 5 6
M  V30 6 1 6 7
M  V30 7 2 7 8
M  V30 8 1 8 9
M  V30 9 2 9 10
M  V30 10 1 10 11
M  V30 11 1 11 12
M  V30 12 2 12 13
M  V30 13 1 13 14
M  V30 14 2 14 15
M  V30 15 1 15 16
M  V30 16 2 16 17
M  V30 17 1 17 18
M  V30 18 2 18 19
M  V30 19 1 13 20
M  V30 20 1 20 21
M  V30 21 2 21 22
M  V30 22 1 22 23
M  V30 23 2 23 24
M  V30 24 1 24 25
M  V30 25 1 25 26
M  V30 26 1 25 27
M  V30 27 1 27 28
M  V30 28 1 28 29
M  V30 29 1 24 30
M  V30 30 2 30 31
M  V30 31 2 20 32
M  V30 32 1 32 33
M  V30 33 2 33 34
M  V30 34 1 34 35
M  V30 35 1 5 36
M  V30 36 2 36 37
M  V30 37 1 37 2
M  V30 38 2 35 6
M  V30 39 1 34 9
M  V30 40 1 33 11
M  V30 41 1 19 14
M  V30 42 1 31 21
M  V30 43 1 29 25
M  V30 44 1 1 38
M  V30 45 1 1 39
M  V30 46 1 1 40
M  V30 47 1 3 41
M  V30 48 1 4 42
M  V30 49 1 7 43
M  V30 50 1 8 44
M  V30 51 1 12 45
M  V30 52 1 15 46
M  V30 53 1 16 47
M  V30 54 1 17 48
M  V30 55 1 18 49
M  V30 56 1 19 50
M  V30 57 1 22 51
M  V30 58 1 23 52
M  V30 59 1 26 53
M  V30 60 1 26 54
M  V30 61 1 27 55
M  V30 62 1 27 56
M  V30 63 1 28 57
M  V30 64 1 28 58
M  V30 65 1 29 59
M  V30 66 1 29 60
M  V30 67 1 30 61
M  V30 68 1 31 62
M  V30 69 1 35 63
M  V30 70 1 36 64
M  V30 71 1 37 65
M  V30 END BOND
M  V30 END CTAB
M  END
>  <Dataset>  (31) 
ChEMBL_Kinases

>  <Ligand_Instance>  (31) 
nan

>  <PDB_ID>  (31) 
nan

>  <Standardized_SMILES>  (31) 
Cc1ccc(-c2ccc3nn4cc(-c5ccccc5)c(-c5ccc(C6(N)CCC6)cc5)nc4c3c2)cc1

>  <Name>  (31) 
nan

>  <Pocket>  (31) 
nan

>  <ATP_Site>  (31) 
nan

>  <Peripheral>  (31) 
nan

>  <Num_H_Atoms_ProtBoundConf>  (31) 
nan

>  <Num_Resolved_Atoms>  (31) 
nan

>  <Num_Not_Resolved_Atoms>  (31) 
nan

$$$$
CHEMBL3672515
     RDKit          3D

  0  0  0  0  0  0  0  0  0  0999 V3000
M  V30 BEGIN CTAB
M  V30 COUNTS 52 57 0 0 0
M  V30 BEGIN ATOM
M  V30 1 N -1.983823 -3.519551 4.496827 0
M  V30 2 C -2.657475 -3.099368 3.277102 0
M  V30 3 C -1.879651 -2.186373 2.454072 0
M  V30 4 C -2.125369 -0.946621 1.901085 0
M  V30 5 C -1.180788 -0.285605 1.144324 0
M  V30 6 C 0.068716 -0.824208 0.893648 0
M  V30 7 C 0.906230 0.019044 0.086029 0
M  V30 8 N 1.205125 1.242221 0.617790 0
M  V30 9 C 1.995616 2.116404 -0.075274 0
M  V30 10 C 2.439282 3.389304 0.231539 0
M  V30 11 C 2.285454 4.248678 1.282136 0
M  V30 12 C 2.907568 5.474242 1.215058 0
M  V30 13 F 2.747109 6.319986 2.265915 0
M  V30 14 C 3.663233 5.819302 0.116331 0
M  V30 15 C 3.839419 4.968524 -0.968242 0
M  V30 16 C 3.201614 3.747807 -0.867676 0
M  V30 17 N 3.198900 2.738337 -1.760483 0
M  V30 18 N 2.457716 1.730432 -1.278178 0
M  V30 19 C 2.220274 0.555169 -1.881618 0
M  V30 20 C 1.415085 -0.312081 -1.155006 0
M  V30 21 C 1.082583 -1.621917 -1.700410 0
M  V30 22 C 2.024392 -2.609695 -2.014816 0
M  V30 23 C 1.635524 -3.827714 -2.528016 0
M  V30 24 C 0.286712 -4.089887 -2.740897 0
M  V30 25 C -0.659603 -3.123163 -2.435174 0
M  V30 26 C -0.256079 -1.896239 -1.917268 0
M  V30 27 C 0.337230 -2.050983 1.429839 0
M  V30 28 C -0.615305 -2.732678 2.201099 0
M  V30 29 C -4.022489 -2.553382 3.623279 0
M  V30 30 C -4.497110 -3.189513 2.308900 0
M  V30 31 C -3.381054 -4.211911 2.558529 0
M  V30 32 H -1.645912 -2.668473 4.997383 0
M  V30 33 H -2.651671 -3.974981 5.162220 0
M  V30 34 H -3.117224 -0.594607 2.137411 0
M  V30 35 H -1.544172 0.671520 0.792031 0
M  V30 36 H 1.679589 3.910763 2.108469 0
M  V30 37 H 4.153099 6.785242 0.064200 0
M  V30 38 H 4.436115 5.254015 -1.824271 0
M  V30 39 H 2.617826 0.305758 -2.842763 0
M  V30 40 H 3.062649 -2.330548 -1.820352 0
M  V30 41 H 2.440116 -4.524615 -2.738534 0
M  V30 42 H 0.029405 -5.066546 -3.147959 0
M  V30 43 H -1.683061 -3.395251 -2.625550 0
M  V30 44 H -1.062006 -1.180183 -1.699207 0
M  V30 45 H 1.325009 -2.432469 1.208202 0
M  V30 46 H -0.220564 -3.680843 2.535042 0
M  V30 47 H -4.531477 -3.076921 4.460918 0
M  V30 48 H -4.094472 -1.452719 3.656027 0
M  V30 49 H -4.306180 -2.577266 1.412678 0
M  V30 50 H -5.515849 -3.573752 2.381909 0
M  V30 51 H -2.915935 -4.637104 1.676984 0
M  V30 52 H -3.749978 -4.946122 3.308406 0
M  V30 END ATOM
M  V30 BEGIN BOND
M  V30 1 1 1 2
M  V30 2 1 2 3
M  V30 3 2 3 4
M  V30 4 1 4 5
M  V30 5 2 5 6
M  V30 6 1 6 7
M  V30 7 2 7 8
M  V30 8 1 8 9
M  V30 9 2 9 10
M  V30 10 1 10 11
M  V30 11 2 11 12
M  V30 12 1 12 13
M  V30 13 1 12 14
M  V30 14 2 14 15
M  V30 15 1 15 16
M  V30 16 2 16 17
M  V30 17 1 17 18
M  V30 18 1 18 19
M  V30 19 2 19 20
M  V30 20 1 20 21
M  V30 21 2 21 22
M  V30 22 1 22 23
M  V30 23 2 23 24
M  V30 24 1 24 25
M  V30 25 2 25 26
M  V30 26 1 6 27
M  V30 27 2 27 28
M  V30 28 1 2 29
M  V30 29 1 29 30
M  V30 30 1 30 31
M  V30 31 1 31 2
M  V30 32 1 28 3
M  V30 33 1 20 7
M  V30 34 1 26 21
M  V30 35 1 18 9
M  V30 36 1 16 10
M  V30 37 1 1 32
M  V30 38 1 1 33
M  V30 39 1 4 34
M  V30 40 1 5 35
M  V30 41 1 11 36
M  V30 42 1 14 37
M  V30 43 1 15 38
M  V30 44 1 19 39
M  V30 45 1 22 40
M  V30 46 1 23 41
M  V30 47 1 24 42
M  V30 48 1 25 43
M  V30 49 1 26 44
M  V30 50 1 27 45
M  V30 51 1 28 46
M  V30 52 1 29 47
M  V30 53 1 29 48
M  V30 54 1 30 49
M  V30 55 1 30 50
M  V30 56 1 31 51
M  V30 57 1 31 52
M  V30 END BOND
M  V30 END CTAB
M  END
>  <Dataset>  (32) 
ChEMBL_Kinases

>  <Ligand_Instance>  (32) 
nan

>  <PDB_ID>  (32) 
nan

>  <Standardized_SMILES>  (32) 
NC1(c2ccc(-c3nc4c5cc(F)ccc5nn4cc3-c3ccccc3)cc2)CCC1

>  <Name>  (32) 
nan

>  <Pocket>  (32) 
nan

>  <ATP_Site>  (32) 
nan

>  <Peripheral>  (32) 
nan

>  <Num_H_Atoms_ProtBoundConf>  (32) 
nan

>  <Num_Resolved_Atoms>  (32) 
nan

>  <Num_Not_Resolved_Atoms>  (32) 
nan

$$$$
CHEMBL3672516
     RDKit          3D

  0  0  0  0  0  0  0  0  0  0999 V3000
M  V30 BEGIN CTAB
M  V30 COUNTS 61 67 0 0 0
M  V30 BEGIN ATOM
M  V30 1 N 3.393308 -3.407803 4.795878 0
M  V30 2 C 2.655871 -4.045066 3.723332 0
M  V30 3 C 2.036099 -3.032973 2.836649 0
M  V30 4 C 1.777675 -3.206982 1.486158 0
M  V30 5 C 1.195957 -2.215672 0.718270 0
M  V30 6 C 0.848378 -0.993072 1.294932 0
M  V30 7 C 0.241167 -0.015272 0.395122 0
M  V30 8 N 0.901313 1.139591 0.192768 0
M  V30 9 C 0.386358 2.076424 -0.628021 0
M  V30 10 C 0.895185 3.309455 -0.966825 0
M  V30 11 C 2.045526 3.966097 -0.597489 0
M  V30 12 C 2.327730 5.233155 -1.096182 0
M  V30 13 F 3.474558 5.834168 -0.699378 0
M  V30 14 C 1.412765 5.791115 -1.965572 0
M  V30 15 C 0.269202 5.110301 -2.317811 0
M  V30 16 C -0.027331 3.851450 -1.832429 0
M  V30 17 N -1.000486 2.953058 -1.962205 0
M  V30 18 N -0.788619 1.861428 -1.248069 0
M  V30 19 C -1.501784 0.731894 -1.092334 0
M  V30 20 N -2.743738 0.498314 -1.743768 0
M  V30 21 C -3.383716 1.415431 -2.629230 0
M  V30 22 C -4.747872 0.979882 -3.260243 0
M  V30 23 C -3.478446 0.973953 -4.085592 0
M  V30 24 C -0.962809 -0.218642 -0.249177 0
M  V30 25 C -1.633355 -1.461658 -0.006735 0
M  V30 26 C -2.060379 -1.766315 1.292705 0
M  V30 27 C -2.701371 -2.975618 1.474409 0
M  V30 28 C -2.967785 -3.921903 0.506511 0
M  V30 29 C -2.534116 -3.595849 -0.773880 0
M  V30 30 C -1.886848 -2.399233 -1.015317 0
M  V30 31 C 1.103678 -0.802210 2.660572 0
M  V30 32 C 1.686124 -1.818245 3.390870 0
M  V30 33 C 1.581043 -4.931326 4.354935 0
M  V30 34 C 2.115772 -6.067760 3.493229 0
M  V30 35 C 3.313165 -5.215359 3.084906 0
M  V30 36 H 3.840664 -2.505033 4.514231 0
M  V30 37 H 2.672385 -3.140948 5.528677 0
M  V30 38 H 2.049548 -4.155902 1.046794 0
M  V30 39 H 1.017442 -2.415647 -0.345422 0
M  V30 40 H 2.752824 3.493289 0.096584 0
M  V30 41 H 1.625932 6.777859 -2.357592 0
M  V30 42 H -0.416695 5.574690 -2.994252 0
M  V30 43 H -3.229963 -0.406695 -1.567568 0
M  V30 44 H -3.263009 2.510672 -2.507684 0
M  V30 45 H -5.479979 1.791410 -3.402758 0
M  V30 46 H -5.097519 -0.027770 -2.977703 0
M  V30 47 H -3.470675 1.737824 -4.887813 0
M  V30 48 H -3.030490 0.017751 -4.400776 0
M  V30 49 H -1.914657 -1.111709 2.144901 0
M  V30 50 H -3.053662 -3.256184 2.478117 0
M  V30 51 H -3.468507 -4.839575 0.712514 0
M  V30 52 H -2.684523 -4.252987 -1.609729 0
M  V30 53 H -1.543601 -2.139361 -2.026226 0
M  V30 54 H 0.814564 0.163182 3.055368 0
M  V30 55 H 1.825095 -1.527656 4.440408 0
M  V30 56 H 0.547147 -4.625374 4.081726 0
M  V30 57 H 1.644268 -5.062929 5.435636 0
M  V30 58 H 2.364338 -6.924799 4.143497 0
M  V30 59 H 1.433970 -6.317900 2.664531 0
M  V30 60 H 3.530782 -5.169772 2.012013 0
M  V30 61 H 4.264291 -5.481807 3.626971 0
M  V30 END ATOM
M  V30 BEGIN BOND
M  V30 1 1 1 2
M  V30 2 1 2 3
M  V30 3 2 3 4
M  V30 4 1 4 5
M  V30 5 2 5 6
M  V30 6 1 6 7
M  V30 7 2 7 8
M  V30 8 1 8 9
M  V30 9 2 9 10
M  V30 10 1 10 11
M  V30 11 2 11 12
M  V30 12 1 12 13
M  V30 13 1 12 14
M  V30 14 2 14 15
M  V30 15 1 15 16
M  V30 16 2 16 17
M  V30 17 1 17 18
M  V30 18 1 18 19
M  V30 19 1 19 20
M  V30 20 1 20 21
M  V30 21 1 21 22
M  V30 22 1 22 23
M  V30 23 2 19 24
M  V30 24 1 24 25
M  V30 25 2 25 26
M  V30 26 1 26 27
M  V30 27 2 27 28
M  V30 28 1 28 29
M  V30 29 2 29 30
M  V30 30 1 6 31
M  V30 31 2 31 32
M  V30 32 1 2 33
M  V30 33 1 33 34
M  V30 34 1 34 35
M  V30 35 1 35 2
M  V30 36 1 32 3
M  V30 37 1 24 7
M  V30 38 1 30 25
M  V30 39 1 18 9
M  V30 40 1 23 21
M  V30 41 1 16 10
M  V30 42 1 1 36
M  V30 43 1 1 37
M  V30 44 1 4 38
M  V30 45 1 5 39
M  V30 46 1 11 40
M  V30 47 1 14 41
M  V30 48 1 15 42
M  V30 49 1 20 43
M  V30 50 1 21 44
M  V30 51 1 22 45
M  V30 52 1 22 46
M  V30 53 1 23 47
M  V30 54 1 23 48
M  V30 55 1 26 49
M  V30 56 1 27 50
M  V30 57 1 28 51
M  V30 58 1 29 52
M  V30 59 1 30 53
M  V30 60 1 31 54
M  V30 61 1 32 55
M  V30 62 1 33 56
M  V30 63 1 33 57
M  V30 64 1 34 58
M  V30 65 1 34 59
M  V30 66 1 35 60
M  V30 67 1 35 61
M  V30 END BOND
M  V30 END CTAB
M  END
>  <Dataset>  (33) 
ChEMBL_Kinases

>  <Ligand_Instance>  (33) 
nan

>  <PDB_ID>  (33) 
nan

>  <Standardized_SMILES>  (33) 
NC1(c2ccc(-c3nc4c5cc(F)ccc5nn4c(NC4CC4)c3-c3ccccc3)cc2)CCC1

>  <Name>  (33) 
nan

>  <Pocket>  (33) 
nan

>  <ATP_Site>  (33) 
nan

>  <Peripheral>  (33) 
nan

>  <Num_H_Atoms_ProtBoundConf>  (33) 
nan

>  <Num_Resolved_Atoms>  (33) 
nan

>  <Num_Not_Resolved_Atoms>  (33) 
nan

$$$$
CHEMBL3672517
     RDKit          3D

  0  0  0  0  0  0  0  0  0  0999 V3000
M  V30 BEGIN CTAB
M  V30 COUNTS 57 62 0 0 0
M  V30 BEGIN ATOM
M  V30 1 C 4.539246 -1.945425 2.334887 0
M  V30 2 N 3.970482 -1.829736 0.986758 0
M  V30 3 C 2.646411 -2.153755 0.653520 0
M  V30 4 C 1.729194 -1.133172 0.756310 0
M  V30 5 C 2.011878 0.232577 1.176338 0
M  V30 6 C 1.613005 0.953209 2.280311 0
M  V30 7 C 2.017309 2.240900 2.446557 0
M  V30 8 C 2.831749 2.889375 1.543002 0
M  V30 9 C 3.244507 2.183714 0.426878 0
M  V30 10 C 2.838840 0.874985 0.249156 0
M  V30 11 C 0.411329 -1.359561 0.449699 0
M  V30 12 C -0.735863 -0.459461 0.478510 0
M  V30 13 C -1.040587 0.040378 -0.782082 0
M  V30 14 C -2.088231 0.910584 -1.005959 0
M  V30 15 C -2.871789 1.305704 0.065212 0
M  V30 16 C -4.040786 2.216232 0.099575 0
M  V30 17 N -4.104232 3.076645 1.262756 0
M  V30 18 C -5.325168 1.439751 -0.104959 0
M  V30 19 C -5.252008 1.829929 -1.566014 0
M  V30 20 C -4.363004 2.975889 -1.137436 0
M  V30 21 C -2.572660 0.809302 1.330299 0
M  V30 22 C -1.521422 -0.060799 1.540129 0
M  V30 23 N 0.038944 -2.610054 0.044620 0
M  V30 24 C 0.957249 -3.598272 -0.049269 0
M  V30 25 C 0.867930 -4.939259 -0.424256 0
M  V30 26 C -0.220960 -5.685283 -0.826534 0
M  V30 27 C 0.002444 -7.004759 -1.137147 0
M  V30 28 F -1.055102 -7.769839 -1.539479 0
M  V30 29 C 1.245586 -7.628986 -1.072179 0
M  V30 30 C 2.306589 -6.837854 -0.662876 0
M  V30 31 C 2.141415 -5.503560 -0.337425 0
M  V30 32 N 2.956237 -4.508512 0.080904 0
M  V30 33 N 2.253458 -3.382582 0.250530 0
M  V30 34 H 3.806076 -1.541415 3.087842 0
M  V30 35 H 4.731920 -3.024104 2.493435 0
M  V30 36 H 5.441857 -1.333668 2.416169 0
M  V30 37 H 4.567142 -1.481825 0.187845 0
M  V30 38 H 0.982339 0.358040 2.925934 0
M  V30 39 H 1.623962 2.686607 3.364611 0
M  V30 40 H 3.076401 3.916801 1.802296 0
M  V30 41 H 3.886216 2.713497 -0.270174 0
M  V30 42 H 3.234869 0.438630 -0.668583 0
M  V30 43 H -0.489951 -0.203176 -1.704809 0
M  V30 44 H -2.395100 1.342135 -1.926255 0
M  V30 45 H -3.191839 3.314557 1.664695 0
M  V30 46 H -4.849763 2.857186 1.931016 0
M  V30 47 H -6.221777 1.895624 0.399806 0
M  V30 48 H -5.197203 0.359948 0.113273 0
M  V30 49 H -4.759640 1.042197 -2.168827 0
M  V30 50 H -6.255026 2.137665 -1.930887 0
M  V30 51 H -4.980660 3.872445 -0.926513 0
M  V30 52 H -3.536356 3.244652 -1.818382 0
M  V30 53 H -3.094649 1.029134 2.253657 0
M  V30 54 H -1.213474 -0.496621 2.473165 0
M  V30 55 H -1.219849 -5.288652 -0.906256 0
M  V30 56 H 1.378785 -8.671520 -1.326548 0
M  V30 57 H 3.305740 -7.250196 -0.585757 0
M  V30 END ATOM
M  V30 BEGIN BOND
M  V30 1 1 1 2
M  V30 2 1 2 3
M  V30 3 2 3 4
M  V30 4 1 4 5
M  V30 5 2 5 6
M  V30 6 1 6 7
M  V30 7 2 7 8
M  V30 8 1 8 9
M  V30 9 2 9 10
M  V30 10 1 4 11
M  V30 11 1 11 12
M  V30 12 2 12 13
M  V30 13 1 13 14
M  V30 14 2 14 15
M  V30 15 1 15 16
M  V30 16 1 16 17
M  V30 17 1 16 18
M  V30 18 1 18 19
M  V30 19 1 19 20
M  V30 20 1 15 21
M  V30 21 2 21 22
M  V30 22 2 11 23
M  V30 23 1 23 24
M  V30 24 2 24 25
M  V30 25 1 25 26
M  V30 26 2 26 27
M  V30 27 1 27 28
M  V30 28 1 27 29
M  V30 29 2 29 30
M  V30 30 1 30 31
M  V30 31 2 31 32
M  V30 32 1 32 33
M  V30 33 1 33 3
M  V30 34 1 10 5
M  V30 35 1 22 12
M  V30 36 1 33 24
M  V30 37 1 20 16
M  V30 38 1 31 25
M  V30 39 1 1 34
M  V30 40 1 1 35
M  V30 41 1 1 36
M  V30 42 1 2 37
M  V30 43 1 6 38
M  V30 44 1 7 39
M  V30 45 1 8 40
M  V30 46 1 9 41
M  V30 47 1 10 42
M  V30 48 1 13 43
M  V30 49 1 14 44
M  V30 50 1 17 45
M  V30 51 1 17 46
M  V30 52 1 18 47
M  V30 53 1 18 48
M  V30 54 1 19 49
M  V30 55 1 19 50
M  V30 56 1 20 51
M  V30 57 1 20 52
M  V30 58 1 21 53
M  V30 59 1 22 54
M  V30 60 1 26 55
M  V30 61 1 29 56
M  V30 62 1 30 57
M  V30 END BOND
M  V30 END CTAB
M  END
>  <Dataset>  (34) 
ChEMBL_Kinases

>  <Ligand_Instance>  (34) 
nan

>  <PDB_ID>  (34) 
nan

>  <Standardized_SMILES>  (34) 
CNc1c(-c2ccccc2)c(-c2ccc(C3(N)CCC3)cc2)nc2c3cc(F)ccc3nn12

>  <Name>  (34) 
nan

>  <Pocket>  (34) 
nan

>  <ATP_Site>  (34) 
nan

>  <Peripheral>  (34) 
nan

>  <Num_H_Atoms_ProtBoundConf>  (34) 
nan

>  <Num_Resolved_Atoms>  (34) 
nan

>  <Num_Not_Resolved_Atoms>  (34) 
nan

$$$$
CHEMBL3672518
     RDKit          3D

  0  0  0  0  0  0  0  0  0  0999 V3000
M  V30 BEGIN CTAB
M  V30 COUNTS 63 69 0 0 0
M  V30 BEGIN ATOM
M  V30 1 N 7.480527 1.153731 8.351223 0
M  V30 2 C 7.218177 1.194792 7.221653 0
M  V30 3 C 6.910475 1.258514 5.823284 0
M  V30 4 C 7.971271 1.578367 4.975423 0
M  V30 5 C 7.666082 1.642814 3.618301 0
M  V30 6 C 6.392224 1.404493 3.144616 0
M  V30 7 C 5.355454 1.088211 4.008386 0
M  V30 8 C 4.039987 0.859688 3.417678 0
M  V30 9 C 3.976138 0.323585 2.141764 0
M  V30 10 C 2.799530 0.062177 1.497275 0
M  V30 11 C 1.614692 0.339516 2.134611 0
M  V30 12 C 1.619443 0.866213 3.386890 0
M  V30 13 C 2.823263 1.119144 4.010561 0
M  V30 14 N 0.342365 1.008700 3.722246 0
M  V30 15 N -0.449124 0.594153 2.733550 0
M  V30 16 C -1.795621 0.518173 2.566967 0
M  V30 17 C -2.327543 0.021656 1.400832 0
M  V30 18 C -3.759715 -0.064926 1.268431 0
M  V30 19 C -4.185516 -1.029875 2.195421 0
M  V30 20 C -5.526249 -1.386758 2.363190 0
M  V30 21 C -6.479664 -0.747487 1.566718 0
M  V30 22 C -6.052869 0.189681 0.668944 0
M  V30 23 C -4.732694 0.540704 0.504167 0
M  V30 24 C -1.531392 -0.406084 0.380819 0
M  V30 25 C -1.905876 -0.952293 -0.912751 0
M  V30 26 C -1.534189 -2.300279 -1.005048 0
M  V30 27 C -1.790628 -3.024486 -2.175785 0
M  V30 28 C -2.407530 -2.461863 -3.270958 0
M  V30 29 C -2.653129 -3.244763 -4.503772 0
M  V30 30 N -2.859445 -4.665266 -4.269622 0
M  V30 31 C -1.529720 -3.085482 -5.541997 0
M  V30 32 C -2.488544 -2.387033 -6.474942 0
M  V30 33 C -3.609237 -2.680597 -5.498011 0
M  V30 34 C -2.748995 -1.145066 -3.127726 0
M  V30 35 C -2.522950 -0.381525 -2.003773 0
M  V30 36 N -0.179217 -0.334894 0.535840 0
M  V30 37 C 0.309957 0.160803 1.703798 0
M  V30 38 C 5.626384 1.016853 5.359341 0
M  V30 39 H 8.974755 1.766130 5.334728 0
M  V30 40 H 8.503207 1.892701 2.971635 0
M  V30 41 H 6.315595 1.492332 2.069382 0
M  V30 42 H 4.889982 0.092130 1.610389 0
M  V30 43 H 2.797698 -0.363144 0.485441 0
M  V30 44 H 2.855179 1.538730 5.009043 0
M  V30 45 H -2.458466 0.853146 3.360645 0
M  V30 46 H -3.605480 -1.641528 2.907758 0
M  V30 47 H -5.942027 -2.105255 3.038851 0
M  V30 48 H -7.537683 -0.944027 1.614089 0
M  V30 49 H -6.735575 0.721435 0.021622 0
M  V30 50 H -4.269650 1.256657 -0.153147 0
M  V30 51 H -1.037293 -2.888096 -0.224544 0
M  V30 52 H -1.503549 -4.071672 -2.249698 0
M  V30 53 H -3.582603 -4.862647 -3.570481 0
M  V30 54 H -1.964533 -5.182469 -4.153712 0
M  V30 55 H -1.086087 -4.030455 -5.894535 0
M  V30 56 H -0.776261 -2.363871 -5.166262 0
M  V30 57 H -2.524740 -2.955969 -7.428393 0
M  V30 58 H -2.355537 -1.297569 -6.599719 0
M  V30 59 H -4.221930 -1.829711 -5.176589 0
M  V30 60 H -4.287164 -3.451572 -5.972963 0
M  V30 61 H -3.231624 -0.607657 -3.915438 0
M  V30 62 H -2.763518 0.637523 -1.854030 0
M  V30 63 H 4.815719 0.768998 6.038674 0
M  V30 END ATOM
M  V30 BEGIN BOND
M  V30 1 3 1 2
M  V30 2 1 2 3
M  V30 3 2 3 4
M  V30 4 1 4 5
M  V30 5 2 5 6
M  V30 6 1 6 7
M  V30 7 1 7 8
M  V30 8 1 8 9
M  V30 9 2 9 10
M  V30 10 1 10 11
M  V30 11 1 11 12
M  V30 12 1 12 13
M  V30 13 2 12 14
M  V30 14 1 14 15
M  V30 15 1 15 16
M  V30 16 2 16 17
M  V30 17 1 17 18
M  V30 18 2 18 19
M  V30 19 1 19 20
M  V30 20 2 20 21
M  V30 21 1 21 22
M  V30 22 2 22 23
M  V30 23 1 17 24
M  V30 24 1 24 25
M  V30 25 2 25 26
M  V30 26 1 26 27
M  V30 27 2 27 28
M  V30 28 1 28 29
M  V30 29 1 29 30
M  V30 30 1 29 31
M  V30 31 1 31 32
M  V30 32 1 32 33
M  V30 33 1 28 34
M  V30 34 2 34 35
M  V30 35 2 24 36
M  V30 36 1 36 37
M  V30 37 2 7 38
M  V30 38 1 38 3
M  V30 39 2 13 8
M  V30 40 1 37 15
M  V30 41 2 37 11
M  V30 42 1 23 18
M  V30 43 1 35 25
M  V30 44 1 33 29
M  V30 45 1 4 39
M  V30 46 1 5 40
M  V30 47 1 6 41
M  V30 48 1 9 42
M  V30 49 1 10 43
M  V30 50 1 13 44
M  V30 51 1 16 45
M  V30 52 1 19 46
M  V30 53 1 20 47
M  V30 54 1 21 48
M  V30 55 1 22 49
M  V30 56 1 23 50
M  V30 57 1 26 51
M  V30 58 1 27 52
M  V30 59 1 30 53
M  V30 60 1 30 54
M  V30 61 1 31 55
M  V30 62 1 31 56
M  V30 63 1 32 57
M  V30 64 1 32 58
M  V30 65 1 33 59
M  V30 66 1 33 60
M  V30 67 1 34 61
M  V30 68 1 35 62
M  V30 69 1 38 63
M  V30 END BOND
M  V30 END CTAB
M  END
>  <Dataset>  (35) 
ChEMBL_Kinases

>  <Ligand_Instance>  (35) 
nan

>  <PDB_ID>  (35) 
nan

>  <Standardized_SMILES>  (35) 
N#Cc1cccc(-c2ccc3c(c2)nn2cc(-c4ccccc4)c(-c4ccc(C5(N)CCC5)cc4)nc32)c1

>  <Name>  (35) 
nan

>  <Pocket>  (35) 
nan

>  <ATP_Site>  (35) 
nan

>  <Peripheral>  (35) 
nan

>  <Num_H_Atoms_ProtBoundConf>  (35) 
nan

>  <Num_Resolved_Atoms>  (35) 
nan

>  <Num_Not_Resolved_Atoms>  (35) 
nan

$$$$
CHEMBL3672519
     RDKit          3D

  0  0  0  0  0  0  0  0  0  0999 V3000
M  V30 BEGIN CTAB
M  V30 COUNTS 68 74 0 0 0
M  V30 BEGIN ATOM
M  V30 1 C 9.127568 0.430885 6.545016 0
M  V30 2 S 7.813483 1.561148 6.914492 0
M  V30 3 O 8.321831 2.955067 6.695461 0
M  V30 4 O 7.490356 1.457492 8.388760 0
M  V30 5 C 6.408046 1.247246 5.925123 0
M  V30 6 C 5.478844 0.348411 6.414042 0
M  V30 7 C 4.319668 0.033394 5.693099 0
M  V30 8 C 4.154964 0.659305 4.483227 0
M  V30 9 C 2.963231 0.363305 3.689772 0
M  V30 10 C 3.094907 0.431400 2.300417 0
M  V30 11 C 2.036998 0.171016 1.423405 0
M  V30 12 C 0.798088 -0.171445 1.972513 0
M  V30 13 C 0.665984 -0.239095 3.343792 0
M  V30 14 C 1.723045 0.021846 4.191770 0
M  V30 15 N -0.622789 -0.587835 3.553457 0
M  V30 16 N -1.264472 -0.731585 2.402232 0
M  V30 17 C -2.541124 -1.066493 2.147044 0
M  V30 18 C -3.002071 -1.158576 0.831050 0
M  V30 19 C -4.381245 -1.519190 0.529936 0
M  V30 20 C -5.456688 -0.799418 0.055292 0
M  V30 21 C -6.666391 -1.427228 -0.147035 0
M  V30 22 C -6.850652 -2.765900 0.109142 0
M  V30 23 C -5.789919 -3.511163 0.585728 0
M  V30 24 C -4.556294 -2.882494 0.794631 0
M  V30 25 C -2.109341 -0.896221 -0.186636 0
M  V30 26 C -2.434104 -0.950038 -1.603457 0
M  V30 27 C -3.220661 -0.154126 -2.396054 0
M  V30 28 C -3.393782 -0.403187 -3.734725 0
M  V30 29 C -2.767738 -1.479529 -4.318318 0
M  V30 30 C -2.906578 -1.812634 -5.745424 0
M  V30 31 N -3.119951 -3.239125 -5.997694 0
M  V30 32 C -3.781732 -0.931575 -6.581272 0
M  V30 33 C -2.579198 -0.042777 -6.816653 0
M  V30 34 C -1.721470 -1.255224 -6.516229 0
M  V30 35 C -1.961730 -2.312615 -3.554732 0
M  V30 36 C -1.790669 -2.050567 -2.187914 0
M  V30 37 N -0.827496 -0.560009 0.067924 0
M  V30 38 C -0.421484 -0.482174 1.364996 0
M  V30 39 C 5.085988 1.571133 3.974864 0
M  V30 40 C 6.220804 1.865237 4.704418 0
M  V30 41 H 9.994215 0.959189 6.156371 0
M  V30 42 H 8.734702 -0.293574 5.779467 0
M  V30 43 H 9.398083 -0.168629 7.452472 0
M  V30 44 H 5.584728 -0.165125 7.374587 0
M  V30 45 H 3.615847 -0.667140 6.096881 0
M  V30 46 H 4.028331 0.690834 1.818270 0
M  V30 47 H 2.188496 0.236617 0.346628 0
M  V30 48 H 1.631034 -0.028074 5.254534 0
M  V30 49 H -3.258327 -1.276094 2.916555 0
M  V30 50 H -5.180383 0.233127 -0.097968 0
M  V30 51 H -7.455673 -0.769736 -0.525036 0
M  V30 52 H -7.815482 -3.221288 -0.062895 0
M  V30 53 H -5.987479 -4.557153 0.770915 0
M  V30 54 H -3.824998 -3.605572 1.172221 0
M  V30 55 H -3.653882 0.648659 -1.856934 0
M  V30 56 H -4.019595 0.252027 -4.303577 0
M  V30 57 H -3.564977 -3.386221 -6.929162 0
M  V30 58 H -2.215117 -3.762358 -5.966214 0
M  V30 59 H -4.655606 -0.466392 -6.098147 0
M  V30 60 H -4.040504 -1.446122 -7.535326 0
M  V30 61 H -2.417314 0.723906 -6.024492 0
M  V30 62 H -2.484038 0.341172 -7.853219 0
M  V30 63 H -1.510768 -1.781861 -7.476973 0
M  V30 64 H -0.834705 -1.038394 -5.898822 0
M  V30 65 H -1.464133 -3.172348 -4.029897 0
M  V30 66 H -1.130085 -2.779861 -1.689370 0
M  V30 67 H 4.979607 2.075911 3.026993 0
M  V30 68 H 7.004573 2.556975 4.401449 0
M  V30 END ATOM
M  V30 BEGIN BOND
M  V30 1 1 1 2
M  V30 2 2 2 3
M  V30 3 2 2 4
M  V30 4 1 2 5
M  V30 5 2 5 6
M  V30 6 1 6 7
M  V30 7 2 7 8
M  V30 8 1 8 9
M  V30 9 1 9 10
M  V30 10 2 10 11
M  V30 11 1 11 12
M  V30 12 1 12 13
M  V30 13 1 13 14
M  V30 14 2 13 15
M  V30 15 1 15 16
M  V30 16 1 16 17
M  V30 17 2 17 18
M  V30 18 1 18 19
M  V30 19 2 19 20
M  V30 20 1 20 21
M  V30 21 2 21 22
M  V30 22 1 22 23
M  V30 23 2 23 24
M  V30 24 1 18 25
M  V30 25 1 25 26
M  V30 26 2 26 27
M  V30 27 1 27 28
M  V30 28 2 28 29
M  V30 29 1 29 30
M  V30 30 1 30 31
M  V30 31 1 30 32
M  V30 32 1 32 33
M  V30 33 1 33 34
M  V30 34 1 29 35
M  V30 35 2 35 36
M  V30 36 2 25 37
M  V30 37 1 37 38
M  V30 38 1 8 39
M  V30 39 2 39 40
M  V30 40 1 40 5
M  V30 41 2 14 9
M  V30 42 1 38 16
M  V30 43 2 38 12
M  V30 44 1 24 19
M  V30 45 1 36 26
M  V30 46 1 34 30
M  V30 47 1 1 41
M  V30 48 1 1 42
M  V30 49 1 1 43
M  V30 50 1 6 44
M  V30 51 1 7 45
M  V30 52 1 10 46
M  V30 53 1 11 47
M  V30 54 1 14 48
M  V30 55 1 17 49
M  V30 56 1 20 50
M  V30 57 1 21 51
M  V30 58 1 22 52
M  V30 59 1 23 53
M  V30 60 1 24 54
M  V30 61 1 27 55
M  V30 62 1 28 56
M  V30 63 1 31 57
M  V30 64 1 31 58
M  V30 65 1 32 59
M  V30 66 1 32 60
M  V30 67 1 33 61
M  V30 68 1 33 62
M  V30 69 1 34 63
M  V30 70 1 34 64
M  V30 71 1 35 65
M  V30 72 1 36 66
M  V30 73 1 39 67
M  V30 74 1 40 68
M  V30 END BOND
M  V30 END CTAB
M  END
>  <Dataset>  (36) 
ChEMBL_Kinases

>  <Ligand_Instance>  (36) 
nan

>  <PDB_ID>  (36) 
nan

>  <Standardized_SMILES>  (36) 
CS(=O)(=O)c1ccc(-c2ccc3c(c2)nn2cc(-c4ccccc4)c(-c4ccc(C5(N)CCC5)cc4)nc32)cc1

>  <Name>  (36) 
nan

>  <Pocket>  (36) 
nan

>  <ATP_Site>  (36) 
nan

>  <Peripheral>  (36) 
nan

>  <Num_H_Atoms_ProtBoundConf>  (36) 
nan

>  <Num_Resolved_Atoms>  (36) 
nan

>  <Num_Not_Resolved_Atoms>  (36) 
nan

$$$$
CHEMBL3672520
     RDKit          3D

  0  0  0  0  0  0  0  0  0  0999 V3000
M  V30 BEGIN CTAB
M  V30 COUNTS 62 68 0 0 0
M  V30 BEGIN ATOM
M  V30 1 N 2.271288 -2.284084 5.843476 0
M  V30 2 C 2.504814 -3.293824 4.817101 0
M  V30 3 C 2.088316 -2.857644 3.464516 0
M  V30 4 C 2.824092 -2.782243 2.313145 0
M  V30 5 C 2.281458 -2.373472 1.121137 0
M  V30 6 C 0.962918 -2.016893 1.021334 0
M  V30 7 C 0.191013 -1.574282 -0.132077 0
M  V30 8 N -0.214662 -0.273916 -0.008701 0
M  V30 9 C -0.962073 0.290259 -1.006410 0
M  V30 10 C -1.487859 1.588063 -1.102578 0
M  V30 11 C -1.399850 2.651270 -0.227937 0
M  V30 12 C -2.038063 3.831393 -0.608171 0
M  V30 13 C -2.713510 3.877747 -1.817394 0
M  V30 14 C -3.340136 5.174896 -2.096046 0
M  V30 15 C -2.793183 6.357876 -1.650825 0
M  V30 16 C -3.370237 7.584400 -1.903197 0
M  V30 17 C -4.550379 7.617238 -2.636671 0
M  V30 18 F -5.190728 8.782253 -2.933286 0
M  V30 19 C -5.094264 6.432290 -3.080193 0
M  V30 20 C -4.528676 5.196518 -2.835882 0
M  V30 21 C -2.777812 2.788460 -2.666063 0
M  V30 22 C -2.150592 1.596575 -2.313585 0
M  V30 23 N -2.034807 0.387579 -2.911697 0
M  V30 24 N -1.311007 -0.416290 -2.120825 0
M  V30 25 C -0.902981 -1.714657 -2.238749 0
M  V30 26 C -0.147616 -2.316120 -1.251724 0
M  V30 27 C 0.326810 -3.691558 -1.308644 0
M  V30 28 C 1.599365 -4.109928 -1.638409 0
M  V30 29 C 2.010710 -5.420378 -1.671863 0
M  V30 30 C 1.081775 -6.383557 -1.352913 0
M  V30 31 C -0.211400 -6.066118 -1.011762 0
M  V30 32 C -0.574722 -4.714919 -0.993731 0
M  V30 33 C 0.182912 -2.082466 2.182644 0
M  V30 34 C 0.736962 -2.495520 3.382181 0
M  V30 35 C 3.905389 -3.830125 4.954696 0
M  V30 36 C 3.350713 -5.075662 5.654888 0
M  V30 37 C 1.969224 -4.645416 5.225591 0
M  V30 38 H 1.638582 -1.560483 5.454395 0
M  V30 39 H 1.874310 -2.756728 6.665659 0
M  V30 40 H 3.856577 -3.061318 2.394816 0
M  V30 41 H 2.834323 -2.301287 0.218615 0
M  V30 42 H -0.853823 2.543851 0.704136 0
M  V30 43 H -1.976970 4.683503 0.075834 0
M  V30 44 H -1.871930 6.365202 -1.074595 0
M  V30 45 H -2.932237 8.519833 -1.547199 0
M  V30 46 H -6.013230 6.346247 -3.660806 0
M  V30 47 H -4.947544 4.250617 -3.180903 0
M  V30 48 H -3.311013 2.882321 -3.580842 0
M  V30 49 H -1.165472 -2.300595 -3.113236 0
M  V30 50 H 2.269629 -3.275842 -1.880535 0
M  V30 51 H 3.045779 -5.539185 -1.953835 0
M  V30 52 H 1.485519 -7.407280 -1.402275 0
M  V30 53 H -0.897441 -6.863868 -0.769859 0
M  V30 54 H -1.603894 -4.526746 -0.718499 0
M  V30 55 H -0.885160 -1.816167 2.206842 0
M  V30 56 H 0.077963 -2.528965 4.267059 0
M  V30 57 H 4.562560 -3.232944 5.654421 0
M  V30 58 H 4.442846 -4.073039 4.030098 0
M  V30 59 H 3.686327 -6.031828 5.195853 0
M  V30 60 H 3.546313 -5.038249 6.747606 0
M  V30 61 H 1.562573 -5.236148 4.379168 0
M  V30 62 H 1.281031 -4.600887 6.110413 0
M  V30 END ATOM
M  V30 BEGIN BOND
M  V30 1 1 1 2
M  V30 2 1 2 3
M  V30 3 2 3 4
M  V30 4 1 4 5
M  V30 5 2 5 6
M  V30 6 1 6 7
M  V30 7 2 7 8
M  V30 8 1 8 9
M  V30 9 2 9 10
M  V30 10 1 10 11
M  V30 11 2 11 12
M  V30 12 1 12 13
M  V30 13 1 13 14
M  V30 14 2 14 15
M  V30 15 1 15 16
M  V30 16 2 16 17
M  V30 17 1 17 18
M  V30 18 1 17 19
M  V30 19 2 19 20
M  V30 20 2 13 21
M  V30 21 1 21 22
M  V30 22 2 22 23
M  V30 23 1 23 24
M  V30 24 1 24 25
M  V30 25 2 25 26
M  V30 26 1 26 27
M  V30 27 2 27 28
M  V30 28 1 28 29
M  V30 29 2 29 30
M  V30 30 1 30 31
M  V30 31 2 31 32
M  V30 32 1 6 33
M  V30 33 2 33 34
M  V30 34 1 2 35
M  V30 35 1 35 36
M  V30 36 1 36 37
M  V30 37 1 37 2
M  V30 38 1 34 3
M  V30 39 1 26 7
M  V30 40 1 32 27
M  V30 41 1 24 9
M  V30 42 1 22 10
M  V30 43 1 20 14
M  V30 44 1 1 38
M  V30 45 1 1 39
M  V30 46 1 4 40
M  V30 47 1 5 41
M  V30 48 1 11 42
M  V30 49 1 12 43
M  V30 50 1 15 44
M  V30 51 1 16 45
M  V30 52 1 19 46
M  V30 53 1 20 47
M  V30 54 1 21 48
M  V30 55 1 25 49
M  V30 56 1 28 50
M  V30 57 1 29 51
M  V30 58 1 30 52
M  V30 59 1 31 53
M  V30 60 1 32 54
M  V30 61 1 33 55
M  V30 62 1 34 56
M  V30 63 1 35 57
M  V30 64 1 35 58
M  V30 65 1 36 59
M  V30 66 1 36 60
M  V30 67 1 37 61
M  V30 68 1 37 62
M  V30 END BOND
M  V30 END CTAB
M  END
>  <Dataset>  (37) 
ChEMBL_Kinases

>  <Ligand_Instance>  (37) 
nan

>  <PDB_ID>  (37) 
nan

>  <Standardized_SMILES>  (37) 
NC1(c2ccc(-c3nc4c5ccc(-c6ccc(F)cc6)cc5nn4cc3-c3ccccc3)cc2)CCC1

>  <Name>  (37) 
nan

>  <Pocket>  (37) 
nan

>  <ATP_Site>  (37) 
nan

>  <Peripheral>  (37) 
nan

>  <Num_H_Atoms_ProtBoundConf>  (37) 
nan

>  <Num_Resolved_Atoms>  (37) 
nan

>  <Num_Not_Resolved_Atoms>  (37) 
nan

$$$$
CHEMBL3672521
     RDKit          3D

  0  0  0  0  0  0  0  0  0  0999 V3000
M  V30 BEGIN CTAB
M  V30 COUNTS 52 57 0 0 0
M  V30 BEGIN ATOM
M  V30 1 N -3.527760 -2.181511 4.343917 0
M  V30 2 C -3.027734 -2.930938 3.218814 0
M  V30 3 C -1.984572 -2.239450 2.443753 0
M  V30 4 C -2.162791 -0.864170 2.335277 0
M  V30 5 C -1.225035 -0.127042 1.620605 0
M  V30 6 C -0.109288 -0.703942 1.004749 0
M  V30 7 C 0.806504 0.160153 0.283066 0
M  V30 8 N 1.492861 1.174975 0.841085 0
M  V30 9 C 2.341037 1.973185 0.164738 0
M  V30 10 C 3.125212 3.052244 0.560124 0
M  V30 11 C 3.256602 3.625310 1.800525 0
M  V30 12 C 4.122254 4.712457 1.924831 0
M  V30 13 C 4.827006 5.197383 0.827879 0
M  V30 14 Br 6.023285 6.681164 0.945118 0
M  V30 15 C 4.667663 4.594386 -0.400976 0
M  V30 16 C 3.816486 3.519580 -0.540394 0
M  V30 17 N 3.445126 2.724932 -1.577137 0
M  V30 18 N 2.578226 1.817428 -1.159554 0
M  V30 19 C 1.920200 0.817952 -1.774158 0
M  V30 20 C 1.054012 0.002176 -1.085167 0
M  V30 21 C 0.383523 -1.058183 -1.829211 0
M  V30 22 C 1.313753 -1.944895 -2.386296 0
M  V30 23 C 0.908430 -3.029758 -3.134583 0
M  V30 24 C -0.441807 -3.222668 -3.322851 0
M  V30 25 C -1.362944 -2.363637 -2.783994 0
M  V30 26 C -0.964679 -1.276038 -2.034190 0
M  V30 27 C 0.036056 -2.051062 1.129611 0
M  V30 28 C -0.885533 -2.806787 1.836966 0
M  V30 29 C -4.164174 -3.366192 2.317025 0
M  V30 30 C -3.490600 -4.717769 2.201369 0
M  V30 31 C -2.773008 -4.392559 3.490047 0
M  V30 32 H -4.142716 -1.402670 4.032981 0
M  V30 33 H -4.149038 -2.820003 4.912137 0
M  V30 34 H -2.984073 -0.300817 2.766378 0
M  V30 35 H -1.350080 0.947803 1.526710 0
M  V30 36 H 2.728741 3.286488 2.694997 0
M  V30 37 H 4.308339 5.243440 2.841842 0
M  V30 38 H 5.186673 4.923416 -1.292171 0
M  V30 39 H 2.092332 0.673410 -2.829764 0
M  V30 40 H 2.402067 -1.876271 -2.293143 0
M  V30 41 H 1.604282 -3.739635 -3.582873 0
M  V30 42 H -0.761585 -4.078774 -3.913263 0
M  V30 43 H -2.427364 -2.477966 -2.906758 0
M  V30 44 H -1.581024 -0.525868 -1.555405 0
M  V30 45 H 0.890145 -2.537038 0.665435 0
M  V30 46 H -0.779950 -3.856990 1.939566 0
M  V30 47 H -4.274383 -2.794272 1.373337 0
M  V30 48 H -5.140735 -3.508012 2.859730 0
M  V30 49 H -2.888476 -4.800690 1.294049 0
M  V30 50 H -4.186482 -5.580538 2.282563 0
M  V30 51 H -1.739889 -4.727760 3.568950 0
M  V30 52 H -3.440754 -4.720518 4.337403 0
M  V30 END ATOM
M  V30 BEGIN BOND
M  V30 1 1 1 2
M  V30 2 1 2 3
M  V30 3 2 3 4
M  V30 4 1 4 5
M  V30 5 2 5 6
M  V30 6 1 6 7
M  V30 7 2 7 8
M  V30 8 1 8 9
M  V30 9 2 9 10
M  V30 10 1 10 11
M  V30 11 2 11 12
M  V30 12 1 12 13
M  V30 13 1 13 14
M  V30 14 2 13 15
M  V30 15 1 15 16
M  V30 16 2 16 17
M  V30 17 1 17 18
M  V30 18 1 18 19
M  V30 19 2 19 20
M  V30 20 1 20 21
M  V30 21 2 21 22
M  V30 22 1 22 23
M  V30 23 2 23 24
M  V30 24 1 24 25
M  V30 25 2 25 26
M  V30 26 1 6 27
M  V30 27 2 27 28
M  V30 28 1 2 29
M  V30 29 1 29 30
M  V30 30 1 30 31
M  V30 31 1 31 2
M  V30 32 1 28 3
M  V30 33 1 20 7
M  V30 34 1 26 21
M  V30 35 1 18 9
M  V30 36 1 16 10
M  V30 37 1 1 32
M  V30 38 1 1 33
M  V30 39 1 4 34
M  V30 40 1 5 35
M  V30 41 1 11 36
M  V30 42 1 12 37
M  V30 43 1 15 38
M  V30 44 1 19 39
M  V30 45 1 22 40
M  V30 46 1 23 41
M  V30 47 1 24 42
M  V30 48 1 25 43
M  V30 49 1 26 44
M  V30 50 1 27 45
M  V30 51 1 28 46
M  V30 52 1 29 47
M  V30 53 1 29 48
M  V30 54 1 30 49
M  V30 55 1 30 50
M  V30 56 1 31 51
M  V30 57 1 31 52
M  V30 END BOND
M  V30 END CTAB
M  END
>  <Dataset>  (38) 
ChEMBL_Kinases

>  <Ligand_Instance>  (38) 
nan

>  <PDB_ID>  (38) 
nan

>  <Standardized_SMILES>  (38) 
NC1(c2ccc(-c3nc4c5ccc(Br)cc5nn4cc3-c3ccccc3)cc2)CCC1

>  <Name>  (38) 
nan

>  <Pocket>  (38) 
nan

>  <ATP_Site>  (38) 
nan

>  <Peripheral>  (38) 
nan

>  <Num_H_Atoms_ProtBoundConf>  (38) 
nan

>  <Num_Resolved_Atoms>  (38) 
nan

>  <Num_Not_Resolved_Atoms>  (38) 
nan

$$$$
CHEMBL3672522
     RDKit          3D

  0  0  0  0  0  0  0  0  0  0999 V3000
M  V30 BEGIN CTAB
M  V30 COUNTS 66 72 0 0 0
M  V30 BEGIN ATOM
M  V30 1 N 6.557966 0.585291 3.116199 0
M  V30 2 C 5.356298 1.380800 3.290293 0
M  V30 3 C 4.271305 1.076595 2.336541 0
M  V30 4 C 3.362488 1.956192 1.788098 0
M  V30 5 C 2.416710 1.473398 0.911840 0
M  V30 6 C 2.293333 0.156893 0.523527 0
M  V30 7 C 1.278751 -0.320121 -0.404909 0
M  V30 8 N 0.135796 -0.634780 0.232882 0
M  V30 9 C -0.935854 -1.100021 -0.454493 0
M  V30 10 C -2.213683 -1.490157 -0.037514 0
M  V30 11 C -2.715613 -1.496525 1.232831 0
M  V30 12 C -4.011711 -1.919291 1.448094 0
M  V30 13 C -4.733937 -2.317624 0.340847 0
M  V30 14 C -6.098973 -2.757033 0.604029 0
M  V30 15 C -6.525608 -3.386260 1.754270 0
M  V30 16 C -7.833675 -3.771206 1.931129 0
M  V30 17 C -8.736369 -3.517723 0.927275 0
M  V30 18 F -10.035372 -3.900189 1.104426 0
M  V30 19 C -8.328530 -2.886069 -0.237537 0
M  V30 20 C -9.364818 -2.635575 -1.301815 0
M  V30 21 O -9.668193 -3.789531 -1.985153 0
M  V30 22 C -7.005945 -2.504431 -0.400136 0
M  V30 23 C -4.204823 -2.302457 -0.933513 0
M  V30 24 C -2.910081 -1.882189 -1.164934 0
M  V30 25 N -2.075095 -1.730476 -2.216756 0
M  V30 26 N -0.905207 -1.267452 -1.799495 0
M  V30 27 C 0.232801 -0.955976 -2.447714 0
M  V30 28 C 1.338823 -0.480387 -1.773629 0
M  V30 29 C 2.620278 -0.108180 -2.359804 0
M  V30 30 C 3.191142 1.146666 -2.394597 0
M  V30 31 C 4.395329 1.422173 -2.959096 0
M  V30 32 C 5.099393 0.380656 -3.538235 0
M  V30 33 C 4.573988 -0.890114 -3.530195 0
M  V30 34 C 3.332694 -1.141108 -2.941424 0
M  V30 35 C 3.225152 -0.702047 1.094986 0
M  V30 36 C 4.200305 -0.275154 1.983059 0
M  V30 37 C 4.845480 1.236980 4.709441 0
M  V30 38 C 4.657747 2.738618 4.730860 0
M  V30 39 C 5.646836 2.809733 3.588823 0
M  V30 40 H 7.352009 1.044793 3.615246 0
M  V30 41 H 6.403408 -0.394143 3.502145 0
M  V30 42 H 3.461009 2.977746 2.090361 0
M  V30 43 H 1.721808 2.195150 0.503652 0
M  V30 44 H -2.130493 -1.179839 2.086125 0
M  V30 45 H -4.397382 -1.920949 2.449871 0
M  V30 46 H -5.755043 -3.561244 2.521861 0
M  V30 47 H -8.129440 -4.266875 2.857517 0
M  V30 48 H -10.293155 -2.288724 -0.776848 0
M  V30 49 H -9.048620 -1.833887 -1.996429 0
M  V30 50 H -9.159301 -4.538517 -1.553539 0
M  V30 51 H -6.730916 -2.011719 -1.330050 0
M  V30 52 H -4.783946 -2.617261 -1.785758 0
M  V30 53 H 0.333036 -1.061288 -3.504035 0
M  V30 54 H 2.612485 1.932305 -1.934858 0
M  V30 55 H 4.758702 2.435769 -2.936850 0
M  V30 56 H 6.053668 0.624362 -3.980365 0
M  V30 57 H 5.195772 -1.637147 -4.005795 0
M  V30 58 H 3.056140 -2.191974 -3.015945 0
M  V30 59 H 3.149648 -1.752092 0.803176 0
M  V30 60 H 4.854154 -1.058380 2.344773 0
M  V30 61 H 5.625626 0.945357 5.444230 0
M  V30 62 H 3.892435 0.669423 4.789921 0
M  V30 63 H 3.633300 3.052641 4.476260 0
M  V30 64 H 5.045167 3.204924 5.668171 0
M  V30 65 H 5.428411 3.550994 2.802199 0
M  V30 66 H 6.679172 2.904357 4.013701 0
M  V30 END ATOM
M  V30 BEGIN BOND
M  V30 1 1 1 2
M  V30 2 1 2 3
M  V30 3 2 3 4
M  V30 4 1 4 5
M  V30 5 2 5 6
M  V30 6 1 6 7
M  V30 7 2 7 8
M  V30 8 1 8 9
M  V30 9 2 9 10
M  V30 10 1 10 11
M  V30 11 2 11 12
M  V30 12 1 12 13
M  V30 13 1 13 14
M  V30 14 2 14 15
M  V30 15 1 15 16
M  V30 16 2 16 17
M  V30 17 1 17 18
M  V30 18 1 17 19
M  V30 19 1 19 20
M  V30 20 1 20 21
M  V30 21 2 19 22
M  V30 22 2 13 23
M  V30 23 1 23 24
M  V30 24 2 24 25
M  V30 25 1 25 26
M  V30 26 1 26 27
M  V30 27 2 27 28
M  V30 28 1 28 29
M  V30 29 2 29 30
M  V30 30 1 30 31
M  V30 31 2 31 32
M  V30 32 1 32 33
M  V30 33 2 33 34
M  V30 34 1 6 35
M  V30 35 2 35 36
M  V30 36 1 2 37
M  V30 37 1 37 38
M  V30 38 1 38 39
M  V30 39 1 39 2
M  V30 40 1 36 3
M  V30 41 1 28 7
M  V30 42 1 34 29
M  V30 43 1 26 9
M  V30 44 1 24 10
M  V30 45 1 22 14
M  V30 46 1 1 40
M  V30 47 1 1 41
M  V30 48 1 4 42
M  V30 49 1 5 43
M  V30 50 1 11 44
M  V30 51 1 12 45
M  V30 52 1 15 46
M  V30 53 1 16 47
M  V30 54 1 20 48
M  V30 55 1 20 49
M  V30 56 1 21 50
M  V30 57 1 22 51
M  V30 58 1 23 52
M  V30 59 1 27 53
M  V30 60 1 30 54
M  V30 61 1 31 55
M  V30 62 1 32 56
M  V30 63 1 33 57
M  V30 64 1 34 58
M  V30 65 1 35 59
M  V30 66 1 36 60
M  V30 67 1 37 61
M  V30 68 1 37 62
M  V30 69 1 38 63
M  V30 70 1 38 64
M  V30 71 1 39 65
M  V30 72 1 39 66
M  V30 END BOND
M  V30 END CTAB
M  END
>  <Dataset>  (39) 
ChEMBL_Kinases

>  <Ligand_Instance>  (39) 
nan

>  <PDB_ID>  (39) 
nan

>  <Standardized_SMILES>  (39) 
NC1(c2ccc(-c3nc4c5ccc(-c6ccc(F)c(CO)c6)cc5nn4cc3-c3ccccc3)cc2)CCC1

>  <Name>  (39) 
nan

>  <Pocket>  (39) 
nan

>  <ATP_Site>  (39) 
nan

>  <Peripheral>  (39) 
nan

>  <Num_H_Atoms_ProtBoundConf>  (39) 
nan

>  <Num_Resolved_Atoms>  (39) 
nan

>  <Num_Not_Resolved_Atoms>  (39) 
nan

$$$$
CHEMBL3672532
     RDKit          3D

  0  0  0  0  0  0  0  0  0  0999 V3000
M  V30 BEGIN CTAB
M  V30 COUNTS 62 68 0 0 0
M  V30 BEGIN ATOM
M  V30 1 N 3.313555 -2.109344 4.639974 0
M  V30 2 C 2.144792 -2.979748 4.439886 0
M  V30 3 C 1.444540 -2.610287 3.202309 0
M  V30 4 C 2.337146 -2.567703 2.133438 0
M  V30 5 C 1.902806 -2.235841 0.844430 0
M  V30 6 C 0.594882 -1.946409 0.605257 0
M  V30 7 C -0.009430 -1.584232 -0.674902 0
M  V30 8 N -0.537452 -0.358901 -0.686143 0
M  V30 9 C -1.152183 0.177708 -1.781850 0
M  V30 10 C -1.767976 1.396200 -2.051339 0
M  V30 11 C -1.941004 2.484308 -1.219988 0
M  V30 12 C -2.599838 3.591283 -1.748464 0
M  V30 13 C -2.799114 4.762427 -0.892994 0
M  V30 14 C -1.812438 4.999302 0.056527 0
M  V30 15 C -1.833043 6.053506 0.946375 0
M  V30 16 C -2.914888 6.931215 0.882137 0
M  V30 17 F -2.961465 7.971050 1.740281 0
M  V30 18 C -3.895454 6.706220 -0.052714 0
M  V30 19 C -3.858783 5.647571 -0.934202 0
M  V30 20 C -3.037119 3.533713 -3.062409 0
M  V30 21 C -2.847667 2.427987 -3.868228 0
M  V30 22 C -2.195555 1.316775 -3.364910 0
M  V30 23 N -1.849171 0.112098 -3.845267 0
M  V30 24 N -1.215063 -0.584512 -2.888565 0
M  V30 25 C -0.702406 -1.829185 -2.944828 0
M  V30 26 C -0.083856 -2.359923 -1.830772 0
M  V30 27 C 0.524903 -3.678131 -1.704259 0
M  V30 28 C 0.062078 -4.611276 -0.829475 0
M  V30 29 C 0.591628 -5.878752 -0.658675 0
M  V30 30 C 1.680067 -6.168212 -1.469522 0
M  V30 31 C 2.178276 -5.241108 -2.372445 0
M  V30 32 C 1.609629 -3.995012 -2.498200 0
M  V30 33 C -0.281292 -1.991714 1.672331 0
M  V30 34 C 0.122792 -2.313657 2.939035 0
M  V30 35 C 1.315864 -3.078027 5.695786 0
M  V30 36 C 1.282072 -4.587772 5.459377 0
M  V30 37 C 2.526545 -4.436452 4.575151 0
M  V30 38 H 3.077425 -1.469814 5.449512 0
M  V30 39 H 3.517725 -1.583315 3.781106 0
M  V30 40 H 3.418824 -2.768911 2.130726 0
M  V30 41 H 2.548256 -2.186212 -0.024736 0
M  V30 42 H -1.559617 2.434750 -0.195389 0
M  V30 43 H -0.945569 4.354632 0.158809 0
M  V30 44 H -1.071254 6.235668 1.678533 0
M  V30 45 H -4.742861 7.390877 -0.106408 0
M  V30 46 H -4.607429 5.432002 -1.684932 0
M  V30 47 H -3.546052 4.419663 -3.432146 0
M  V30 48 H -3.206339 2.412230 -4.907133 0
M  V30 49 H -0.724919 -2.484706 -3.805155 0
M  V30 50 H -0.790712 -4.306806 -0.232850 0
M  V30 51 H 0.163309 -6.564240 0.061052 0
M  V30 52 H 2.122508 -7.166927 -1.356233 0
M  V30 53 H 3.028564 -5.487421 -2.996098 0
M  V30 54 H 2.013657 -3.293995 -3.204547 0
M  V30 55 H -1.346930 -1.779688 1.602334 0
M  V30 56 H -0.485609 -2.375056 3.830356 0
M  V30 57 H 0.349864 -2.566373 5.661430 0
M  V30 58 H 1.867090 -2.808483 6.631847 0
M  V30 59 H 1.445835 -5.149301 6.395303 0
M  V30 60 H 0.373563 -4.885360 4.902419 0
M  V30 61 H 3.420821 -4.551449 5.227460 0
M  V30 62 H 2.542289 -5.039166 3.666304 0
M  V30 END ATOM
M  V30 BEGIN BOND
M  V30 1 1 1 2
M  V30 2 1 2 3
M  V30 3 2 3 4
M  V30 4 1 4 5
M  V30 5 2 5 6
M  V30 6 1 6 7
M  V30 7 2 7 8
M  V30 8 1 8 9
M  V30 9 2 9 10
M  V30 10 1 10 11
M  V30 11 2 11 12
M  V30 12 1 12 13
M  V30 13 2 13 14
M  V30 14 1 14 15
M  V30 15 2 15 16
M  V30 16 1 16 17
M  V30 17 1 16 18
M  V30 18 2 18 19
M  V30 19 1 12 20
M  V30 20 2 20 21
M  V30 21 1 21 22
M  V30 22 2 22 23
M  V30 23 1 23 24
M  V30 24 1 24 25
M  V30 25 2 25 26
M  V30 26 1 26 27
M  V30 27 2 27 28
M  V30 28 1 28 29
M  V30 29 2 29 30
M  V30 30 1 30 31
M  V30 31 2 31 32
M  V30 32 1 6 33
M  V30 33 2 33 34
M  V30 34 1 2 35
M  V30 35 1 35 36
M  V30 36 1 36 37
M  V30 37 1 37 2
M  V30 38 1 34 3
M  V30 39 1 26 7
M  V30 40 1 32 27
M  V30 41 1 24 9
M  V30 42 1 22 10
M  V30 43 1 19 13
M  V30 44 1 1 38
M  V30 45 1 1 39
M  V30 46 1 4 40
M  V30 47 1 5 41
M  V30 48 1 11 42
M  V30 49 1 14 43
M  V30 50 1 15 44
M  V30 51 1 18 45
M  V30 52 1 19 46
M  V30 53 1 20 47
M  V30 54 1 21 48
M  V30 55 1 25 49
M  V30 56 1 28 50
M  V30 57 1 29 51
M  V30 58 1 30 52
M  V30 59 1 31 53
M  V30 60 1 32 54
M  V30 61 1 33 55
M  V30 62 1 34 56
M  V30 63 1 35 57
M  V30 64 1 35 58
M  V30 65 1 36 59
M  V30 66 1 36 60
M  V30 67 1 37 61
M  V30 68 1 37 62
M  V30 END BOND
M  V30 END CTAB
M  END
>  <Dataset>  (40) 
ChEMBL_Kinases

>  <Ligand_Instance>  (40) 
nan

>  <PDB_ID>  (40) 
nan

>  <Standardized_SMILES>  (40) 
NC1(c2ccc(-c3nc4c5cc(-c6ccc(F)cc6)ccc5nn4cc3-c3ccccc3)cc2)CCC1

>  <Name>  (40) 
nan

>  <Pocket>  (40) 
nan

>  <ATP_Site>  (40) 
nan

>  <Peripheral>  (40) 
nan

>  <Num_H_Atoms_ProtBoundConf>  (40) 
nan

>  <Num_Resolved_Atoms>  (40) 
nan

>  <Num_Not_Resolved_Atoms>  (40) 
nan

$$$$
CHEMBL3672524
     RDKit          3D

  0  0  0  0  0  0  0  0  0  0999 V3000
M  V30 BEGIN CTAB
M  V30 COUNTS 66 72 0 0 0
M  V30 BEGIN ATOM
M  V30 1 C 7.721006 -0.488693 4.803054 0
M  V30 2 O 7.904591 0.889078 5.066811 0
M  V30 3 C 6.997934 1.878009 4.725878 0
M  V30 4 C 5.812606 1.585638 4.085697 0
M  V30 5 C 4.832091 2.492259 3.697257 0
M  V30 6 C 3.621432 2.034981 3.021033 0
M  V30 7 C 3.715101 0.921482 2.196321 0
M  V30 8 C 2.615408 0.402582 1.503079 0
M  V30 9 C 1.402021 1.045234 1.665910 0
M  V30 10 C 1.278678 2.172098 2.492808 0
M  V30 11 C 2.391039 2.651342 3.159164 0
M  V30 12 N -0.012464 2.559917 2.440744 0
M  V30 13 N -0.716960 1.760551 1.640371 0
M  V30 14 C -2.018163 1.717398 1.257482 0
M  V30 15 C -2.473662 0.744256 0.392522 0
M  V30 16 C -3.853503 0.645902 -0.057701 0
M  V30 17 C -4.770799 -0.370109 0.113022 0
M  V30 18 C -6.041806 -0.244932 -0.407220 0
M  V30 19 C -6.452831 0.865909 -1.103867 0
M  V30 20 C -5.521679 1.895923 -1.276490 0
M  V30 21 C -4.246517 1.790277 -0.764338 0
M  V30 22 C -1.620932 -0.217125 -0.111544 0
M  V30 23 C -1.958514 -1.303519 -1.023667 0
M  V30 24 C -2.460339 -1.289102 -2.308080 0
M  V30 25 C -2.691594 -2.482994 -2.955936 0
M  V30 26 C -2.463365 -3.721352 -2.430122 0
M  V30 27 C -2.784460 -4.845955 -3.299137 0
M  V30 28 N -2.143422 -4.817938 -4.601663 0
M  V30 29 C -2.492043 -6.170713 -2.634270 0
M  V30 30 C -3.682453 -6.726489 -3.412161 0
M  V30 31 C -4.227861 -5.293637 -3.356903 0
M  V30 32 C -1.956713 -3.718324 -1.133415 0
M  V30 33 C -1.706883 -2.552565 -0.438536 0
M  V30 34 N -0.326544 -0.136983 0.297712 0
M  V30 35 C 0.117240 0.813650 1.142513 0
M  V30 36 C 5.119485 3.809047 4.005643 0
M  V30 37 C 6.283923 4.180308 4.645067 0
M  V30 38 C 7.198637 3.218154 4.993082 0
M  V30 39 F 8.358151 3.588075 5.629913 0
M  V30 40 H 7.769796 -0.711420 3.717215 0
M  V30 41 H 8.470538 -1.090491 5.326390 0
M  V30 42 H 6.727609 -0.855110 5.168388 0
M  V30 43 H 5.605560 0.540608 3.851488 0
M  V30 44 H 4.644320 0.387281 2.038967 0
M  V30 45 H 2.697320 -0.466435 0.860977 0
M  V30 46 H 2.312776 3.512665 3.795489 0
M  V30 47 H -2.717606 2.440642 1.620381 0
M  V30 48 H -4.367016 -1.203953 0.670043 0
M  V30 49 H -6.707821 -1.079852 -0.235676 0
M  V30 50 H -7.456476 0.932283 -1.499282 0
M  V30 51 H -5.848999 2.775430 -1.828868 0
M  V30 52 H -3.609083 2.663324 -0.965503 0
M  V30 53 H -2.617285 -0.282136 -2.663519 0
M  V30 54 H -3.082846 -2.324090 -3.951163 0
M  V30 55 H -1.380232 -4.116662 -4.642882 0
M  V30 56 H -1.905260 -5.733025 -4.991336 0
M  V30 57 H -1.509297 -6.612900 -2.899097 0
M  V30 58 H -2.769102 -6.207964 -1.559340 0
M  V30 59 H -4.285418 -7.462824 -2.835735 0
M  V30 60 H -3.338205 -7.052065 -4.412666 0
M  V30 61 H -4.763837 -5.150668 -2.417327 0
M  V30 62 H -4.756958 -5.109743 -4.305255 0
M  V30 63 H -1.769923 -4.693100 -0.707741 0
M  V30 64 H -1.308048 -2.715116 0.575157 0
M  V30 65 H 4.374797 4.538932 3.715550 0
M  V30 66 H 6.401641 5.220448 4.832544 0
M  V30 END ATOM
M  V30 BEGIN BOND
M  V30 1 1 1 2
M  V30 2 1 2 3
M  V30 3 2 3 4
M  V30 4 1 4 5
M  V30 5 1 5 6
M  V30 6 1 6 7
M  V30 7 2 7 8
M  V30 8 1 8 9
M  V30 9 1 9 10
M  V30 10 1 10 11
M  V30 11 2 10 12
M  V30 12 1 12 13
M  V30 13 1 13 14
M  V30 14 2 14 15
M  V30 15 1 15 16
M  V30 16 2 16 17
M  V30 17 1 17 18
M  V30 18 2 18 19
M  V30 19 1 19 20
M  V30 20 2 20 21
M  V30 21 1 15 22
M  V30 22 1 22 23
M  V30 23 2 23 24
M  V30 24 1 24 25
M  V30 25 2 25 26
M  V30 26 1 26 27
M  V30 27 1 27 28
M  V30 28 1 27 29
M  V30 29 1 29 30
M  V30 30 1 30 31
M  V30 31 1 26 32
M  V30 32 2 32 33
M  V30 33 2 22 34
M  V30 34 1 34 35
M  V30 35 2 5 36
M  V30 36 1 36 37
M  V30 37 2 37 38
M  V30 38 1 38 39
M  V30 39 1 38 3
M  V30 40 2 11 6
M  V30 41 1 35 13
M  V30 42 2 35 9
M  V30 43 1 21 16
M  V30 44 1 33 23
M  V30 45 1 31 27
M  V30 46 1 1 40
M  V30 47 1 1 41
M  V30 48 1 1 42
M  V30 49 1 4 43
M  V30 50 1 7 44
M  V30 51 1 8 45
M  V30 52 1 11 46
M  V30 53 1 14 47
M  V30 54 1 17 48
M  V30 55 1 18 49
M  V30 56 1 19 50
M  V30 57 1 20 51
M  V30 58 1 21 52
M  V30 59 1 24 53
M  V30 60 1 25 54
M  V30 61 1 28 55
M  V30 62 1 28 56
M  V30 63 1 29 57
M  V30 64 1 29 58
M  V30 65 1 30 59
M  V30 66 1 30 60
M  V30 67 1 31 61
M  V30 68 1 31 62
M  V30 69 1 32 63
M  V30 70 1 33 64
M  V30 71 1 36 65
M  V30 72 1 37 66
M  V30 END BOND
M  V30 END CTAB
M  END
>  <Dataset>  (41) 
ChEMBL_Kinases

>  <Ligand_Instance>  (41) 
nan

>  <PDB_ID>  (41) 
nan

>  <Standardized_SMILES>  (41) 
COc1cc(-c2ccc3c(c2)nn2cc(-c4ccccc4)c(-c4ccc(C5(N)CCC5)cc4)nc32)ccc1F

>  <Name>  (41) 
nan

>  <Pocket>  (41) 
nan

>  <ATP_Site>  (41) 
nan

>  <Peripheral>  (41) 
nan

>  <Num_H_Atoms_ProtBoundConf>  (41) 
nan

>  <Num_Resolved_Atoms>  (41) 
nan

>  <Num_Not_Resolved_Atoms>  (41) 
nan

$$$$
CHEMBL3672525
     RDKit          3D

  0  0  0  0  0  0  0  0  0  0999 V3000
M  V30 BEGIN CTAB
M  V30 COUNTS 68 74 0 0 0
M  V30 BEGIN ATOM
M  V30 1 C 10.024376 -0.485860 0.378769 0
M  V30 2 S 9.358641 -0.160104 -1.214386 0
M  V30 3 O 10.402288 0.486277 -2.084104 0
M  V30 4 O 8.868448 -1.452879 -1.802091 0
M  V30 5 C 7.939308 0.887507 -1.080239 0
M  V30 6 C 8.078790 2.265087 -1.116943 0
M  V30 7 C 7.009704 3.129543 -1.016914 0
M  V30 8 C 5.742528 2.566560 -0.873353 0
M  V30 9 C 5.629149 1.188214 -0.839588 0
M  V30 10 C 4.309143 0.574392 -0.689248 0
M  V30 11 C 3.435483 1.328061 0.065587 0
M  V30 12 C 2.152620 0.870408 0.290545 0
M  V30 13 C 1.802846 -0.361140 -0.273283 0
M  V30 14 C 2.669890 -1.133000 -1.035880 0
M  V30 15 C 3.943525 -0.641128 -1.238018 0
M  V30 16 N 2.022087 -2.249493 -1.423148 0
M  V30 17 N 0.773407 -2.221245 -0.937268 0
M  V30 18 C -0.225896 -3.113274 -1.065897 0
M  V30 19 C -1.444714 -2.868145 -0.468722 0
M  V30 20 C -2.635802 -3.709825 -0.497316 0
M  V30 21 C -3.233961 -4.306503 0.616800 0
M  V30 22 C -4.361088 -5.078031 0.433135 0
M  V30 23 C -4.907164 -5.271749 -0.823340 0
M  V30 24 C -4.335776 -4.693561 -1.939274 0
M  V30 25 C -3.198816 -3.916701 -1.744271 0
M  V30 26 C -1.617601 -1.705965 0.253659 0
M  V30 27 C -2.788496 -1.212697 0.969922 0
M  V30 28 C -3.871202 -0.951972 0.187516 0
M  V30 29 C -5.036041 -0.483063 0.745768 0
M  V30 30 C -5.145173 -0.263183 2.103980 0
M  V30 31 C -6.273569 0.228597 2.902296 0
M  V30 32 N -6.621829 -0.577803 4.068407 0
M  V30 33 C -7.538989 0.557688 2.143489 0
M  V30 34 C -7.130715 2.029919 2.084395 0
M  V30 35 C -6.192177 1.721530 3.236937 0
M  V30 36 C -4.039512 -0.530914 2.891739 0
M  V30 37 C -2.843696 -1.008797 2.344836 0
M  V30 38 N -0.576447 -0.845722 0.348463 0
M  V30 39 C 0.612631 -1.082262 -0.232685 0
M  V30 40 C 6.688837 0.338967 -0.938738 0
M  V30 41 H 11.122359 -0.592990 0.300345 0
M  V30 42 H 9.609865 -1.441051 0.763139 0
M  V30 43 H 9.745662 0.297904 1.122163 0
M  V30 44 H 9.056781 2.734979 -1.228897 0
M  V30 45 H 7.109620 4.209148 -1.044104 0
M  V30 46 H 4.912666 3.229223 -0.796364 0
M  V30 47 H 3.663972 2.267260 0.509190 0
M  V30 48 H 1.383376 1.381648 0.869819 0
M  V30 49 H 4.668014 -1.176763 -1.812457 0
M  V30 50 H -0.166119 -4.038181 -1.611080 0
M  V30 51 H -2.732557 -4.096418 1.552467 0
M  V30 52 H -4.739445 -5.489021 1.356917 0
M  V30 53 H -5.803166 -5.901590 -0.872621 0
M  V30 54 H -4.774587 -4.853668 -2.921978 0
M  V30 55 H -2.800596 -3.491749 -2.665193 0
M  V30 56 H -3.908907 -1.081484 -0.871358 0
M  V30 57 H -5.924833 -0.254602 0.202584 0
M  V30 58 H -5.835495 -1.106051 4.461677 0
M  V30 59 H -7.116540 0.002619 4.786650 0
M  V30 60 H -8.457009 0.498795 2.769216 0
M  V30 61 H -7.670267 0.093185 1.166723 0
M  V30 62 H -6.592683 2.259565 1.136044 0
M  V30 63 H -7.913166 2.749161 2.335412 0
M  V30 64 H -5.192626 2.173966 3.092136 0
M  V30 65 H -6.593950 1.987492 4.226371 0
M  V30 66 H -3.953777 -0.414640 3.968258 0
M  V30 67 H -1.956628 -1.230740 2.919849 0
M  V30 68 H 6.597779 -0.744595 -0.911682 0
M  V30 END ATOM
M  V30 BEGIN BOND
M  V30 1 1 1 2
M  V30 2 2 2 3
M  V30 3 2 2 4
M  V30 4 1 2 5
M  V30 5 2 5 6
M  V30 6 1 6 7
M  V30 7 2 7 8
M  V30 8 1 8 9
M  V30 9 1 9 10
M  V30 10 1 10 11
M  V30 11 2 11 12
M  V30 12 1 12 13
M  V30 13 1 13 14
M  V30 14 1 14 15
M  V30 15 2 14 16
M  V30 16 1 16 17
M  V30 17 1 17 18
M  V30 18 2 18 19
M  V30 19 1 19 20
M  V30 20 2 20 21
M  V30 21 1 21 22
M  V30 22 2 22 23
M  V30 23 1 23 24
M  V30 24 2 24 25
M  V30 25 1 19 26
M  V30 26 1 26 27
M  V30 27 2 27 28
M  V30 28 1 28 29
M  V30 29 2 29 30
M  V30 30 1 30 31
M  V30 31 1 31 32
M  V30 32 1 31 33
M  V30 33 1 33 34
M  V30 34 1 34 35
M  V30 35 1 30 36
M  V30 36 2 36 37
M  V30 37 2 26 38
M  V30 38 1 38 39
M  V30 39 2 9 40
M  V30 40 1 40 5
M  V30 41 2 15 10
M  V30 42 1 39 17
M  V30 43 2 39 13
M  V30 44 1 25 20
M  V30 45 1 37 27
M  V30 46 1 35 31
M  V30 47 1 1 41
M  V30 48 1 1 42
M  V30 49 1 1 43
M  V30 50 1 6 44
M  V30 51 1 7 45
M  V30 52 1 8 46
M  V30 53 1 11 47
M  V30 54 1 12 48
M  V30 55 1 15 49
M  V30 56 1 18 50
M  V30 57 1 21 51
M  V30 58 1 22 52
M  V30 59 1 23 53
M  V30 60 1 24 54
M  V30 61 1 25 55
M  V30 62 1 28 56
M  V30 63 1 29 57
M  V30 64 1 32 58
M  V30 65 1 32 59
M  V30 66 1 33 60
M  V30 67 1 33 61
M  V30 68 1 34 62
M  V30 69 1 34 63
M  V30 70 1 35 64
M  V30 71 1 35 65
M  V30 72 1 36 66
M  V30 73 1 37 67
M  V30 74 1 40 68
M  V30 END BOND
M  V30 END CTAB
M  END
>  <Dataset>  (42) 
ChEMBL_Kinases

>  <Ligand_Instance>  (42) 
nan

>  <PDB_ID>  (42) 
nan

>  <Standardized_SMILES>  (42) 
CS(=O)(=O)c1cccc(-c2ccc3c(c2)nn2cc(-c4ccccc4)c(-c4ccc(C5(N)CCC5)cc4)nc32)c1

>  <Name>  (42) 
nan

>  <Pocket>  (42) 
nan

>  <ATP_Site>  (42) 
nan

>  <Peripheral>  (42) 
nan

>  <Num_H_Atoms_ProtBoundConf>  (42) 
nan

>  <Num_Resolved_Atoms>  (42) 
nan

>  <Num_Not_Resolved_Atoms>  (42) 
nan

$$$$
CHEMBL3672526
     RDKit          3D

  0  0  0  0  0  0  0  0  0  0999 V3000
M  V30 BEGIN CTAB
M  V30 COUNTS 58 63 0 0 0
M  V30 BEGIN ATOM
M  V30 1 C 8.870845 0.216731 4.499824 0
M  V30 2 O 7.588740 0.051831 3.934850 0
M  V30 3 C 6.869175 1.053528 3.335744 0
M  V30 4 O 7.782035 1.888504 3.552190 0
M  V30 5 C 5.542765 0.913693 2.744309 0
M  V30 6 C 5.006512 -0.352579 2.818972 0
M  V30 7 C 3.741988 -0.466840 2.252047 0
M  V30 8 C 3.113130 0.638692 1.669433 0
M  V30 9 C 3.715678 1.879100 1.632664 0
M  V30 10 C 4.976833 2.041565 2.185594 0
M  V30 11 N 2.837613 2.702716 1.005875 0
M  V30 12 N 1.756531 2.006676 0.676311 0
M  V30 13 C 0.617957 2.350157 0.051324 0
M  V30 14 C -0.410458 1.469393 -0.204996 0
M  V30 15 C -1.667004 1.719073 -0.858514 0
M  V30 16 C -2.191516 1.186127 -2.023352 0
M  V30 17 C -3.440112 1.603482 -2.436803 0
M  V30 18 C -4.207829 2.515775 -1.773459 0
M  V30 19 C -3.686288 3.056213 -0.600658 0
M  V30 20 C -2.434206 2.657538 -0.158195 0
M  V30 21 C -0.257287 0.140072 0.210813 0
M  V30 22 C -1.170823 -0.986438 0.068711 0
M  V30 23 C -2.414511 -1.076381 0.600283 0
M  V30 24 C -3.230580 -2.172896 0.430316 0
M  V30 25 C -2.811218 -3.252284 -0.303860 0
M  V30 26 C -3.479384 -4.532174 -0.639082 0
M  V30 27 N -2.577308 -5.656056 -0.433280 0
M  V30 28 C -4.865709 -4.730698 -0.138897 0
M  V30 29 C -5.387297 -4.555146 -1.546113 0
M  V30 30 C -3.978924 -4.577931 -2.070921 0
M  V30 31 C -1.533070 -3.193681 -0.867096 0
M  V30 32 C -0.713018 -2.073952 -0.687404 0
M  V30 33 N 0.898686 -0.194757 0.841747 0
M  V30 34 C 1.872427 0.708601 1.066592 0
M  V30 35 H 8.904173 1.048693 5.247084 0
M  V30 36 H 9.681189 0.369063 3.773647 0
M  V30 37 H 9.112341 -0.708860 5.060097 0
M  V30 38 H 5.513251 -1.174823 3.270548 0
M  V30 39 H 3.258656 -1.438433 2.274992 0
M  V30 40 H 5.462894 2.993447 2.168661 0
M  V30 41 H 0.412428 3.350186 -0.304421 0
M  V30 42 H -1.540197 0.483332 -2.486139 0
M  V30 43 H -3.780349 1.138215 -3.359308 0
M  V30 44 H -5.185959 2.815918 -2.134534 0
M  V30 45 H -4.295692 3.778770 -0.075746 0
M  V30 46 H -2.139461 3.158045 0.777353 0
M  V30 47 H -2.781678 -0.252683 1.181726 0
M  V30 48 H -4.206265 -2.287129 0.825602 0
M  V30 49 H -2.018558 -5.772333 -1.294956 0
M  V30 50 H -3.111267 -6.532705 -0.197677 0
M  V30 51 H -5.214752 -4.019824 0.611717 0
M  V30 52 H -4.988387 -5.796115 0.206865 0
M  V30 53 H -6.034315 -5.394579 -1.847577 0
M  V30 54 H -5.915983 -3.608961 -1.764239 0
M  V30 55 H -3.647744 -3.676403 -2.625041 0
M  V30 56 H -3.695629 -5.481271 -2.650611 0
M  V30 57 H -1.063018 -3.978431 -1.477962 0
M  V30 58 H 0.284558 -2.028629 -1.127788 0
M  V30 END ATOM
M  V30 BEGIN BOND
M  V30 1 1 1 2
M  V30 2 1 2 3
M  V30 3 2 3 4
M  V30 4 1 3 5
M  V30 5 1 5 6
M  V30 6 2 6 7
M  V30 7 1 7 8
M  V30 8 1 8 9
M  V30 9 1 9 10
M  V30 10 2 9 11
M  V30 11 1 11 12
M  V30 12 1 12 13
M  V30 13 2 13 14
M  V30 14 1 14 15
M  V30 15 2 15 16
M  V30 16 1 16 17
M  V30 17 2 17 18
M  V30 18 1 18 19
M  V30 19 2 19 20
M  V30 20 1 14 21
M  V30 21 1 21 22
M  V30 22 2 22 23
M  V30 23 1 23 24
M  V30 24 2 24 25
M  V30 25 1 25 26
M  V30 26 1 26 27
M  V30 27 1 26 28
M  V30 28 1 28 29
M  V30 29 1 29 30
M  V30 30 1 25 31
M  V30 31 2 31 32
M  V30 32 2 21 33
M  V30 33 1 33 34
M  V30 34 2 10 5
M  V30 35 1 34 12
M  V30 36 2 34 8
M  V30 37 1 20 15
M  V30 38 1 32 22
M  V30 39 1 30 26
M  V30 40 1 1 35
M  V30 41 1 1 36
M  V30 42 1 1 37
M  V30 43 1 6 38
M  V30 44 1 7 39
M  V30 45 1 10 40
M  V30 46 1 13 41
M  V30 47 1 16 42
M  V30 48 1 17 43
M  V30 49 1 18 44
M  V30 50 1 19 45
M  V30 51 1 20 46
M  V30 52 1 23 47
M  V30 53 1 24 48
M  V30 54 1 27 49
M  V30 55 1 27 50
M  V30 56 1 28 51
M  V30 57 1 28 52
M  V30 58 1 29 53
M  V30 59 1 29 54
M  V30 60 1 30 55
M  V30 61 1 30 56
M  V30 62 1 31 57
M  V30 63 1 32 58
M  V30 END BOND
M  V30 END CTAB
M  END
>  <Dataset>  (43) 
ChEMBL_Kinases

>  <Ligand_Instance>  (43) 
nan

>  <PDB_ID>  (43) 
nan

>  <Standardized_SMILES>  (43) 
COC(=O)c1ccc2c(c1)nn1cc(-c3ccccc3)c(-c3ccc(C4(N)CCC4)cc3)nc21

>  <Name>  (43) 
nan

>  <Pocket>  (43) 
nan

>  <ATP_Site>  (43) 
nan

>  <Peripheral>  (43) 
nan

>  <Num_H_Atoms_ProtBoundConf>  (43) 
nan

>  <Num_Resolved_Atoms>  (43) 
nan

>  <Num_Not_Resolved_Atoms>  (43) 
nan

$$$$
CHEMBL3672527
     RDKit          3D

  0  0  0  0  0  0  0  0  0  0999 V3000
M  V30 BEGIN CTAB
M  V30 COUNTS 66 72 0 0 0
M  V30 BEGIN ATOM
M  V30 1 N 6.756819 -1.714232 6.994957 0
M  V30 2 C 6.911463 -0.313105 6.974243 0
M  V30 3 O 7.838615 0.008787 7.728896 0
M  V30 4 C 6.165336 0.675414 6.230825 0
M  V30 5 C 6.537344 1.986037 6.405326 0
M  V30 6 C 5.830741 2.944599 5.698408 0
M  V30 7 C 4.795084 2.615276 4.851235 0
M  V30 8 C 4.433344 1.310141 4.684744 0
M  V30 9 C 3.347636 0.916767 3.799889 0
M  V30 10 C 3.001046 1.582190 2.636429 0
M  V30 11 C 1.957339 1.151899 1.845117 0
M  V30 12 C 1.207699 0.050045 2.160073 0
M  V30 13 C 1.543563 -0.630395 3.327171 0
M  V30 14 C 2.591208 -0.191087 4.113147 0
M  V30 15 N 0.671514 -1.654703 3.406294 0
M  V30 16 N -0.146006 -1.619280 2.370663 0
M  V30 17 C -1.168008 -2.408429 2.005316 0
M  V30 18 C -1.926812 -2.213789 0.864129 0
M  V30 19 C -3.036655 -3.074674 0.478881 0
M  V30 20 C -4.401779 -2.877002 0.479641 0
M  V30 21 C -5.239474 -3.872173 0.048256 0
M  V30 22 C -4.782114 -5.105105 -0.402889 0
M  V30 23 C -3.419275 -5.297902 -0.401632 0
M  V30 24 C -2.557437 -4.311346 0.027434 0
M  V30 25 C -1.611236 -1.157953 0.071435 0
M  V30 26 C -2.262252 -0.763918 -1.165749 0
M  V30 27 C -3.494982 -0.247950 -1.469749 0
M  V30 28 C -3.830382 0.018398 -2.757949 0
M  V30 29 C -2.960886 -0.211006 -3.830518 0
M  V30 30 C -3.467035 0.125374 -5.158934 0
M  V30 31 N -4.891831 -0.171698 -5.255217 0
M  V30 32 C -3.139181 1.566784 -5.514038 0
M  V30 33 C -2.181069 1.077423 -6.579042 0
M  V30 34 C -2.704554 -0.310838 -6.352010 0
M  V30 35 C -1.716432 -0.728520 -3.554282 0
M  V30 36 C -1.373445 -1.002089 -2.223984 0
M  V30 37 N -0.570193 -0.361338 0.452005 0
M  V30 38 C 0.139076 -0.590409 1.571537 0
M  V30 39 C 5.129887 0.342175 5.384035 0
M  V30 40 H 7.133459 -2.481612 6.370219 0
M  V30 41 H 6.248253 -2.393119 7.602248 0
M  V30 42 H 7.346852 2.255884 7.066055 0
M  V30 43 H 6.101229 3.984306 5.815131 0
M  V30 44 H 4.227027 3.334816 4.289429 0
M  V30 45 H 3.600062 2.456771 2.390270 0
M  V30 46 H 1.719508 1.713568 0.929322 0
M  V30 47 H 2.791600 -0.771840 5.004527 0
M  V30 48 H -1.459687 -3.275007 2.614043 0
M  V30 49 H -4.657030 -1.903140 0.848015 0
M  V30 50 H -6.289580 -3.553362 0.113760 0
M  V30 51 H -5.580874 -5.756940 -0.699385 0
M  V30 52 H -3.111626 -6.269591 -0.759705 0
M  V30 53 H -1.507793 -4.636394 -0.039608 0
M  V30 54 H -4.072738 -0.107794 -0.587081 0
M  V30 55 H -4.824024 0.423068 -2.906651 0
M  V30 56 H -5.094729 -0.986911 -4.605723 0
M  V30 57 H -5.124338 -0.464713 -6.228513 0
M  V30 58 H -2.583405 2.114829 -4.734301 0
M  V30 59 H -3.960436 2.180904 -5.890745 0
M  V30 60 H -1.111297 1.167928 -6.310429 0
M  V30 61 H -2.334255 1.508383 -7.582240 0
M  V30 62 H -1.956810 -1.091415 -6.247766 0
M  V30 63 H -3.386740 -0.580590 -7.199838 0
M  V30 64 H -1.101708 -0.880749 -4.403333 0
M  V30 65 H -0.348619 -1.406937 -2.191126 0
M  V30 66 H 4.917809 -0.697015 5.316570 0
M  V30 END ATOM
M  V30 BEGIN BOND
M  V30 1 1 1 2
M  V30 2 2 2 3
M  V30 3 1 2 4
M  V30 4 2 4 5
M  V30 5 1 5 6
M  V30 6 2 6 7
M  V30 7 1 7 8
M  V30 8 1 8 9
M  V30 9 1 9 10
M  V30 10 2 10 11
M  V30 11 1 11 12
M  V30 12 1 12 13
M  V30 13 1 13 14
M  V30 14 2 13 15
M  V30 15 1 15 16
M  V30 16 1 16 17
M  V30 17 2 17 18
M  V30 18 1 18 19
M  V30 19 2 19 20
M  V30 20 1 20 21
M  V30 21 2 21 22
M  V30 22 1 22 23
M  V30 23 2 23 24
M  V30 24 1 18 25
M  V30 25 1 25 26
M  V30 26 2 26 27
M  V30 27 1 27 28
M  V30 28 2 28 29
M  V30 29 1 29 30
M  V30 30 1 30 31
M  V30 31 1 30 32
M  V30 32 1 32 33
M  V30 33 1 33 34
M  V30 34 1 29 35
M  V30 35 2 35 36
M  V30 36 2 25 37
M  V30 37 1 37 38
M  V30 38 2 8 39
M  V30 39 1 39 4
M  V30 40 2 14 9
M  V30 41 1 38 16
M  V30 42 2 38 12
M  V30 43 1 24 19
M  V30 44 1 36 26
M  V30 45 1 34 30
M  V30 46 1 1 40
M  V30 47 1 1 41
M  V30 48 1 5 42
M  V30 49 1 6 43
M  V30 50 1 7 44
M  V30 51 1 10 45
M  V30 52 1 11 46
M  V30 53 1 14 47
M  V30 54 1 17 48
M  V30 55 1 20 49
M  V30 56 1 21 50
M  V30 57 1 22 51
M  V30 58 1 23 52
M  V30 59 1 24 53
M  V30 60 1 27 54
M  V30 61 1 28 55
M  V30 62 1 31 56
M  V30 63 1 31 57
M  V30 64 1 32 58
M  V30 65 1 32 59
M  V30 66 1 33 60
M  V30 67 1 33 61
M  V30 68 1 34 62
M  V30 69 1 34 63
M  V30 70 1 35 64
M  V30 71 1 36 65
M  V30 72 1 39 66
M  V30 END BOND
M  V30 END CTAB
M  END
>  <Dataset>  (44) 
ChEMBL_Kinases

>  <Ligand_Instance>  (44) 
nan

>  <PDB_ID>  (44) 
nan

>  <Standardized_SMILES>  (44) 
NC(=O)c1cccc(-c2ccc3c(c2)nn2cc(-c4ccccc4)c(-c4ccc(C5(N)CCC5)cc4)nc32)c1

>  <Name>  (44) 
nan

>  <Pocket>  (44) 
nan

>  <ATP_Site>  (44) 
nan

>  <Peripheral>  (44) 
nan

>  <Num_H_Atoms_ProtBoundConf>  (44) 
nan

>  <Num_Resolved_Atoms>  (44) 
nan

>  <Num_Not_Resolved_Atoms>  (44) 
nan

$$$$
CHEMBL3672528
     RDKit          3D

  0  0  0  0  0  0  0  0  0  0999 V3000
M  V30 BEGIN CTAB
M  V30 COUNTS 66 72 0 0 0
M  V30 BEGIN ATOM
M  V30 1 N 6.822469 1.513819 9.550559 0
M  V30 2 C 7.019083 1.422445 8.137903 0
M  V30 3 O 8.226317 1.697288 8.251094 0
M  V30 4 C 5.950954 1.100004 7.204174 0
M  V30 5 C 6.282722 1.020852 5.869282 0
M  V30 6 C 5.274821 0.718059 4.981485 0
M  V30 7 C 3.985403 0.510013 5.477658 0
M  V30 8 C 3.009104 0.195875 4.437757 0
M  V30 9 C 3.156082 0.734216 3.178789 0
M  V30 10 C 2.238162 0.440495 2.191053 0
M  V30 11 C 1.149449 -0.382470 2.388470 0
M  V30 12 C 0.992372 -0.934128 3.665688 0
M  V30 13 C 1.910329 -0.642467 4.659505 0
M  V30 14 N -0.127112 -1.695128 3.620048 0
M  V30 15 N -0.656060 -1.642046 2.407514 0
M  V30 16 C -1.757900 -2.232168 1.898660 0
M  V30 17 C -2.114231 -2.019596 0.565581 0
M  V30 18 C -3.276610 -2.596553 -0.107451 0
M  V30 19 C -4.246680 -1.719515 -0.593353 0
M  V30 20 C -5.383335 -2.194297 -1.246701 0
M  V30 21 C -5.464645 -3.573318 -1.368637 0
M  V30 22 C -4.554658 -4.496010 -0.918396 0
M  V30 23 C -3.454505 -3.958478 -0.281676 0
M  V30 24 C -1.329439 -1.202318 -0.221987 0
M  V30 25 C -1.539013 -0.866934 -1.625657 0
M  V30 26 C -1.478305 -1.935411 -2.491514 0
M  V30 27 C -1.657096 -1.777031 -3.864852 0
M  V30 28 C -1.905060 -0.513426 -4.398236 0
M  V30 29 C -2.078250 -0.446663 -5.848780 0
M  V30 30 N -1.106254 -1.234850 -6.616052 0
M  V30 31 C -2.350807 0.865997 -6.484162 0
M  V30 32 C -3.861806 0.600248 -6.497871 0
M  V30 33 C -3.509493 -0.848308 -6.221540 0
M  V30 34 C -1.962887 0.546487 -3.517954 0
M  V30 35 C -1.784906 0.381376 -2.160704 0
M  V30 36 N -0.223826 -0.625446 0.333283 0
M  V30 37 C 0.097094 -0.849341 1.627979 0
M  V30 38 C 3.724690 0.605058 6.826033 0
M  V30 39 C 4.703773 0.906112 7.751409 0
M  V30 40 H 6.171405 2.331792 9.673907 0
M  V30 41 H 7.071783 1.090262 10.468476 0
M  V30 42 H 7.325033 1.199084 5.560591 0
M  V30 43 H 5.551088 0.660196 3.942052 0
M  V30 44 H 3.962314 1.391964 2.894410 0
M  V30 45 H 2.358808 0.872608 1.185723 0
M  V30 46 H 1.771185 -1.078059 5.638957 0
M  V30 47 H -2.412469 -2.882956 2.465231 0
M  V30 48 H -4.198275 -0.622737 -0.505219 0
M  V30 49 H -6.161330 -1.552759 -1.640020 0
M  V30 50 H -6.355021 -3.951705 -1.881179 0
M  V30 51 H -4.699246 -5.538364 -1.056077 0
M  V30 52 H -2.673334 -4.623124 0.112409 0
M  V30 53 H -1.286668 -2.961569 -2.143898 0
M  V30 54 H -1.599801 -2.649064 -4.502111 0
M  V30 55 H -1.226558 -0.934864 -7.613929 0
M  V30 56 H -1.397053 -2.257770 -6.586913 0
M  V30 57 H -2.148813 1.789501 -5.949737 0
M  V30 58 H -1.966625 0.953637 -7.539943 0
M  V30 59 H -4.409280 1.114603 -5.706235 0
M  V30 60 H -4.338277 0.812151 -7.470349 0
M  V30 61 H -3.602237 -1.491277 -7.110698 0
M  V30 62 H -4.123619 -1.242688 -5.412653 0
M  V30 63 H -2.154263 1.523634 -3.928712 0
M  V30 64 H -1.824611 1.192316 -1.448280 0
M  V30 65 H 2.711053 0.430058 7.111503 0
M  V30 66 H 4.491648 0.978387 8.801533 0
M  V30 END ATOM
M  V30 BEGIN BOND
M  V30 1 1 1 2
M  V30 2 2 2 3
M  V30 3 1 2 4
M  V30 4 2 4 5
M  V30 5 1 5 6
M  V30 6 2 6 7
M  V30 7 1 7 8
M  V30 8 1 8 9
M  V30 9 2 9 10
M  V30 10 1 10 11
M  V30 11 1 11 12
M  V30 12 1 12 13
M  V30 13 2 12 14
M  V30 14 1 14 15
M  V30 15 1 15 16
M  V30 16 2 16 17
M  V30 17 1 17 18
M  V30 18 2 18 19
M  V30 19 1 19 20
M  V30 20 2 20 21
M  V30 21 1 21 22
M  V30 22 2 22 23
M  V30 23 1 17 24
M  V30 24 1 24 25
M  V30 25 2 25 26
M  V30 26 1 26 27
M  V30 27 2 27 28
M  V30 28 1 28 29
M  V30 29 1 29 30
M  V30 30 1 29 31
M  V30 31 1 31 32
M  V30 32 1 32 33
M  V30 33 1 28 34
M  V30 34 2 34 35
M  V30 35 2 24 36
M  V30 36 1 36 37
M  V30 37 1 7 38
M  V30 38 2 38 39
M  V30 39 1 39 4
M  V30 40 2 13 8
M  V30 41 1 37 15
M  V30 42 2 37 11
M  V30 43 1 23 18
M  V30 44 1 35 25
M  V30 45 1 33 29
M  V30 46 1 1 40
M  V30 47 1 1 41
M  V30 48 1 5 42
M  V30 49 1 6 43
M  V30 50 1 9 44
M  V30 51 1 10 45
M  V30 52 1 13 46
M  V30 53 1 16 47
M  V30 54 1 19 48
M  V30 55 1 20 49
M  V30 56 1 21 50
M  V30 57 1 22 51
M  V30 58 1 23 52
M  V30 59 1 26 53
M  V30 60 1 27 54
M  V30 61 1 30 55
M  V30 62 1 30 56
M  V30 63 1 31 57
M  V30 64 1 31 58
M  V30 65 1 32 59
M  V30 66 1 32 60
M  V30 67 1 33 61
M  V30 68 1 33 62
M  V30 69 1 34 63
M  V30 70 1 35 64
M  V30 71 1 38 65
M  V30 72 1 39 66
M  V30 END BOND
M  V30 END CTAB
M  END
>  <Dataset>  (45) 
ChEMBL_Kinases

>  <Ligand_Instance>  (45) 
nan

>  <PDB_ID>  (45) 
nan

>  <Standardized_SMILES>  (45) 
NC(=O)c1ccc(-c2ccc3c(c2)nn2cc(-c4ccccc4)c(-c4ccc(C5(N)CCC5)cc4)nc32)cc1

>  <Name>  (45) 
nan

>  <Pocket>  (45) 
nan

>  <ATP_Site>  (45) 
nan

>  <Peripheral>  (45) 
nan

>  <Num_H_Atoms_ProtBoundConf>  (45) 
nan

>  <Num_Resolved_Atoms>  (45) 
nan

>  <Num_Not_Resolved_Atoms>  (45) 
nan

$$$$
CHEMBL3672529
     RDKit          3D

  0  0  0  0  0  0  0  0  0  0999 V3000
M  V30 BEGIN CTAB
M  V30 COUNTS 59 65 0 0 0
M  V30 BEGIN ATOM
M  V30 1 N 3.459831 -5.896831 1.761292 0
M  V30 2 C 3.637484 -4.477281 1.852711 0
M  V30 3 C 2.480605 -3.644682 1.450343 0
M  V30 4 C 1.853570 -2.631218 2.115366 0
M  V30 5 C 0.803597 -1.933146 1.561858 0
M  V30 6 C 0.307947 -2.211586 0.281010 0
M  V30 7 C -0.795418 -1.324505 -0.045178 0
M  V30 8 N -0.511865 -0.000442 0.008973 0
M  V30 9 C -1.405088 0.970602 -0.246144 0
M  V30 10 C -1.189909 2.352932 -0.198887 0
M  V30 11 C -0.090445 3.126481 0.095942 0
M  V30 12 C -0.249499 4.505859 0.051194 0
M  V30 13 C -1.471747 5.049348 -0.278652 0
M  V30 14 C -1.557344 6.521133 -0.293655 0
M  V30 15 C -0.465128 7.303293 -0.639879 0
M  V30 16 N -0.852316 8.585014 -0.550523 0
M  V30 17 N -2.116904 8.669798 -0.171525 0
M  V30 18 C -2.586180 7.406206 -0.002767 0
M  V30 19 C -2.561757 4.229491 -0.572133 0
M  V30 20 C -2.454863 2.849541 -0.541300 0
M  V30 21 N -3.289736 1.819744 -0.756428 0
M  V30 22 N -2.665718 0.652259 -0.580105 0
M  V30 23 C -3.015060 -0.649322 -0.653264 0
M  V30 24 C -2.090602 -1.648792 -0.387731 0
M  V30 25 C -2.431238 -3.060423 -0.444182 0
M  V30 26 C -3.106448 -3.441309 0.732821 0
M  V30 27 C -3.539681 -4.751844 0.908281 0
M  V30 28 C -3.332511 -5.729701 -0.047353 0
M  V30 29 C -2.670456 -5.359947 -1.202748 0
M  V30 30 C -2.249067 -4.068699 -1.363290 0
M  V30 31 C 0.934155 -3.232289 -0.400164 0
M  V30 32 C 1.982803 -3.921667 0.169771 0
M  V30 33 C 4.868639 -3.942061 1.107456 0
M  V30 34 C 5.620627 -3.969032 2.394068 0
M  V30 35 C 4.308257 -4.084245 3.143215 0
M  V30 36 H 3.488307 -6.296981 0.807237 0
M  V30 37 H 4.193113 -6.354524 2.370663 0
M  V30 38 H 2.251072 -2.436641 3.098692 0
M  V30 39 H 0.429311 -1.158877 2.244779 0
M  V30 40 H 0.831092 2.646075 0.344173 0
M  V30 41 H 0.620893 5.089897 0.286487 0
M  V30 42 H 0.516384 6.976142 -0.929677 0
M  V30 43 H -2.755489 9.459819 0.003700 0
M  V30 44 H -3.550263 6.988484 0.295106 0
M  V30 45 H -3.489323 4.689608 -0.822795 0
M  V30 46 H -4.015484 -0.903248 -0.917675 0
M  V30 47 H -3.344004 -2.777322 1.580264 0
M  V30 48 H -4.068870 -5.044367 1.828106 0
M  V30 49 H -3.648089 -6.743022 0.052410 0
M  V30 50 H -2.435329 -6.009071 -2.035502 0
M  V30 51 H -1.718183 -3.658122 -2.224216 0
M  V30 52 H 0.515669 -3.387051 -1.362187 0
M  V30 53 H 2.380250 -4.706269 -0.487354 0
M  V30 54 H 5.186914 -4.644429 0.306785 0
M  V30 55 H 4.735928 -2.896238 0.756187 0
M  V30 56 H 6.308469 -4.831700 2.511240 0
M  V30 57 H 6.198748 -3.029221 2.597399 0
M  V30 58 H 4.404129 -4.940446 3.870124 0
M  V30 59 H 4.075087 -3.110111 3.577209 0
M  V30 END ATOM
M  V30 BEGIN BOND
M  V30 1 1 1 2
M  V30 2 1 2 3
M  V30 3 2 3 4
M  V30 4 1 4 5
M  V30 5 2 5 6
M  V30 6 1 6 7
M  V30 7 2 7 8
M  V30 8 1 8 9
M  V30 9 2 9 10
M  V30 10 1 10 11
M  V30 11 2 11 12
M  V30 12 1 12 13
M  V30 13 1 13 14
M  V30 14 1 14 15
M  V30 15 2 15 16
M  V30 16 1 16 17
M  V30 17 1 17 18
M  V30 18 2 13 19
M  V30 19 1 19 20
M  V30 20 2 20 21
M  V30 21 1 21 22
M  V30 22 1 22 23
M  V30 23 2 23 24
M  V30 24 1 24 25
M  V30 25 2 25 26
M  V30 26 1 26 27
M  V30 27 2 27 28
M  V30 28 1 28 29
M  V30 29 2 29 30
M  V30 30 1 6 31
M  V30 31 2 31 32
M  V30 32 1 2 33
M  V30 33 1 33 34
M  V30 34 1 34 35
M  V30 35 1 35 2
M  V30 36 1 32 3
M  V30 37 1 24 7
M  V30 38 1 30 25
M  V30 39 1 22 9
M  V30 40 1 20 10
M  V30 41 2 18 14
M  V30 42 1 1 36
M  V30 43 1 1 37
M  V30 44 1 4 38
M  V30 45 1 5 39
M  V30 46 1 11 40
M  V30 47 1 12 41
M  V30 48 1 15 42
M  V30 49 1 17 43
M  V30 50 1 18 44
M  V30 51 1 19 45
M  V30 52 1 23 46
M  V30 53 1 26 47
M  V30 54 1 27 48
M  V30 55 1 28 49
M  V30 56 1 29 50
M  V30 57 1 30 51
M  V30 58 1 31 52
M  V30 59 1 32 53
M  V30 60 1 33 54
M  V30 61 1 33 55
M  V30 62 1 34 56
M  V30 63 1 34 57
M  V30 64 1 35 58
M  V30 65 1 35 59
M  V30 END BOND
M  V30 END CTAB
M  END
>  <Dataset>  (46) 
ChEMBL_Kinases

>  <Ligand_Instance>  (46) 
nan

>  <PDB_ID>  (46) 
nan

>  <Standardized_SMILES>  (46) 
NC1(c2ccc(-c3nc4c5ccc(-c6cn[nH]c6)cc5nn4cc3-c3ccccc3)cc2)CCC1

>  <Name>  (46) 
nan

>  <Pocket>  (46) 
nan

>  <ATP_Site>  (46) 
nan

>  <Peripheral>  (46) 
nan

>  <Num_H_Atoms_ProtBoundConf>  (46) 
nan

>  <Num_Resolved_Atoms>  (46) 
nan

>  <Num_Not_Resolved_Atoms>  (46) 
nan

$$$$
CHEMBL3672530
     RDKit          3D

  0  0  0  0  0  0  0  0  0  0999 V3000
M  V30 BEGIN CTAB
M  V30 COUNTS 62 68 0 0 0
M  V30 BEGIN ATOM
M  V30 1 N 2.201829 -2.911605 5.741721 0
M  V30 2 C 2.516013 -3.777745 4.597022 0
M  V30 3 C 2.036992 -3.215563 3.309388 0
M  V30 4 C 2.691749 -3.005259 2.135728 0
M  V30 5 C 2.027267 -2.461634 1.055487 0
M  V30 6 C 0.686203 -2.111645 1.117031 0
M  V30 7 C 0.036236 -1.539385 -0.059283 0
M  V30 8 N -0.430643 -0.272529 0.118261 0
M  V30 9 C -1.059166 0.372776 -0.906783 0
M  V30 10 C -1.604174 1.658352 -0.928853 0
M  V30 11 C -1.674887 2.639896 0.040847 0
M  V30 12 C -2.296285 3.851269 -0.287050 0
M  V30 13 C -2.793926 3.966235 -1.570279 0
M  V30 14 C -3.437535 5.243876 -1.881123 0
M  V30 15 C -3.027836 6.429097 -1.305075 0
M  V30 16 C -3.677895 7.600951 -1.640437 0
M  V30 17 C -4.736783 7.660497 -2.537207 0
M  V30 18 O -5.384878 8.843483 -2.868581 0
M  V30 19 N -5.093951 6.472929 -3.068612 0
M  V30 20 C -4.499199 5.304739 -2.780042 0
M  V30 21 C -2.736105 3.001962 -2.556336 0
M  V30 22 C -2.112877 1.798032 -2.214303 0
M  V30 23 N -1.871018 0.650261 -2.892978 0
M  V30 24 N -1.237070 -0.209065 -2.108529 0
M  V30 25 C -0.782526 -1.463974 -2.307146 0
M  V30 26 C -0.142550 -2.144182 -1.290878 0
M  V30 27 C 0.398174 -3.497672 -1.362388 0
M  V30 28 C 1.399934 -3.797481 -2.269023 0
M  V30 29 C 1.944557 -5.063301 -2.375137 0
M  V30 30 C 1.493051 -6.093666 -1.557728 0
M  V30 31 C 0.488396 -5.811630 -0.641967 0
M  V30 32 C -0.034142 -4.536243 -0.561613 0
M  V30 33 C 0.010702 -2.323867 2.313859 0
M  V30 34 C 0.688933 -2.872244 3.396928 0
M  V30 35 C 3.947977 -4.207568 4.654602 0
M  V30 36 C 3.517508 -5.472517 5.407699 0
M  V30 37 C 2.116188 -5.222460 4.835848 0
M  V30 38 H 1.483832 -2.214125 5.487694 0
M  V30 39 H 1.866004 -3.510903 6.503331 0
M  V30 40 H 3.725536 -3.301729 2.169273 0
M  V30 41 H 2.604764 -2.315342 0.137952 0
M  V30 42 H -1.255226 2.458647 1.022092 0
M  V30 43 H -2.372914 4.639654 0.435421 0
M  V30 44 H -2.217677 6.443060 -0.607740 0
M  V30 45 H -3.377436 8.565882 -1.199995 0
M  V30 46 H -5.565026 9.591033 -2.207504 0
M  V30 47 H -4.791818 4.370404 -3.208140 0
M  V30 48 H -3.142093 3.151796 -3.536231 0
M  V30 49 H -0.889586 -1.982220 -3.231400 0
M  V30 50 H 1.816292 -3.051623 -2.950863 0
M  V30 51 H 2.724852 -5.360721 -3.058739 0
M  V30 52 H 1.881998 -7.098885 -1.597929 0
M  V30 53 H 0.088360 -6.561143 0.025128 0
M  V30 54 H -0.823694 -4.270851 0.142654 0
M  V30 55 H -1.030604 -2.039072 2.323136 0
M  V30 56 H 0.031434 -2.978949 4.261773 0
M  V30 57 H 4.601310 -3.548203 5.274892 0
M  V30 58 H 4.443524 -4.440087 3.696221 0
M  V30 59 H 4.015727 -6.373316 5.020613 0
M  V30 60 H 3.545726 -5.305718 6.503267 0
M  V30 61 H 1.943187 -5.815433 3.935833 0
M  V30 62 H 1.324087 -5.357511 5.589898 0
M  V30 END ATOM
M  V30 BEGIN BOND
M  V30 1 1 1 2
M  V30 2 1 2 3
M  V30 3 2 3 4
M  V30 4 1 4 5
M  V30 5 2 5 6
M  V30 6 1 6 7
M  V30 7 2 7 8
M  V30 8 1 8 9
M  V30 9 2 9 10
M  V30 10 1 10 11
M  V30 11 2 11 12
M  V30 12 1 12 13
M  V30 13 1 13 14
M  V30 14 2 14 15
M  V30 15 1 15 16
M  V30 16 2 16 17
M  V30 17 1 17 18
M  V30 18 1 17 19
M  V30 19 2 19 20
M  V30 20 2 13 21
M  V30 21 1 21 22
M  V30 22 2 22 23
M  V30 23 1 23 24
M  V30 24 1 24 25
M  V30 25 2 25 26
M  V30 26 1 26 27
M  V30 27 2 27 28
M  V30 28 1 28 29
M  V30 29 2 29 30
M  V30 30 1 30 31
M  V30 31 2 31 32
M  V30 32 1 6 33
M  V30 33 2 33 34
M  V30 34 1 2 35
M  V30 35 1 35 36
M  V30 36 1 36 37
M  V30 37 1 37 2
M  V30 38 1 34 3
M  V30 39 1 26 7
M  V30 40 1 32 27
M  V30 41 1 24 9
M  V30 42 1 22 10
M  V30 43 1 20 14
M  V30 44 1 1 38
M  V30 45 1 1 39
M  V30 46 1 4 40
M  V30 47 1 5 41
M  V30 48 1 11 42
M  V30 49 1 12 43
M  V30 50 1 15 44
M  V30 51 1 16 45
M  V30 52 1 18 46
M  V30 53 1 20 47
M  V30 54 1 21 48
M  V30 55 1 25 49
M  V30 56 1 28 50
M  V30 57 1 29 51
M  V30 58 1 30 52
M  V30 59 1 31 53
M  V30 60 1 32 54
M  V30 61 1 33 55
M  V30 62 1 34 56
M  V30 63 1 35 57
M  V30 64 1 35 58
M  V30 65 1 36 59
M  V30 66 1 36 60
M  V30 67 1 37 61
M  V30 68 1 37 62
M  V30 END BOND
M  V30 END CTAB
M  END
>  <Dataset>  (47) 
ChEMBL_Kinases

>  <Ligand_Instance>  (47) 
nan

>  <PDB_ID>  (47) 
nan

>  <Standardized_SMILES>  (47) 
NC1(c2ccc(-c3nc4c5ccc(-c6ccc(O)nc6)cc5nn4cc3-c3ccccc3)cc2)CCC1

>  <Name>  (47) 
nan

>  <Pocket>  (47) 
nan

>  <ATP_Site>  (47) 
nan

>  <Peripheral>  (47) 
nan

>  <Num_H_Atoms_ProtBoundConf>  (47) 
nan

>  <Num_Resolved_Atoms>  (47) 
nan

>  <Num_Not_Resolved_Atoms>  (47) 
nan

$$$$
CHEMBL3672531
     RDKit          3D

  0  0  0  0  0  0  0  0  0  0999 V3000
M  V30 BEGIN CTAB
M  V30 COUNTS 67 73 0 0 0
M  V30 BEGIN ATOM
M  V30 1 C 9.446965 0.887853 8.106561 0
M  V30 2 O 8.271870 0.748380 7.364264 0
M  V30 3 C 6.991767 0.904797 7.855151 0
M  V30 4 O 7.077378 1.192141 9.069044 0
M  V30 5 C 5.844912 0.727635 6.971965 0
M  V30 6 C 6.044277 0.409482 5.643156 0
M  V30 7 C 4.963588 0.230132 4.808602 0
M  V30 8 C 3.637016 0.355432 5.243025 0
M  V30 9 C 2.588715 0.132216 4.258764 0
M  V30 10 C 2.904898 0.491952 2.941741 0
M  V30 11 C 1.909312 0.273227 1.999257 0
M  V30 12 C 0.669936 -0.258272 2.271587 0
M  V30 13 C 0.423816 -0.591869 3.598548 0
M  V30 14 C 1.365063 -0.402808 4.587731 0
M  V30 15 N -0.839940 -1.088259 3.609192 0
M  V30 16 N -1.352600 -1.071257 2.387970 0
M  V30 17 C -2.560837 -1.470442 1.920203 0
M  V30 18 C -2.823950 -1.339882 0.554100 0
M  V30 19 C -4.160846 -1.800209 0.210218 0
M  V30 20 C -5.298961 -1.100673 -0.127417 0
M  V30 21 C -6.473401 -1.755023 -0.426789 0
M  V30 22 C -6.571193 -3.126038 -0.404685 0
M  V30 23 C -5.431802 -3.838415 -0.066062 0
M  V30 24 C -4.235362 -3.196570 0.239633 0
M  V30 25 C -1.874365 -0.817214 -0.294058 0
M  V30 26 C -2.182084 -0.729854 -1.715438 0
M  V30 27 C -3.087500 -0.051873 -2.493592 0
M  V30 28 C -3.096048 -0.228017 -3.847281 0
M  V30 29 C -2.236289 -1.063133 -4.523147 0
M  V30 30 C -2.266128 -1.257837 -5.992153 0
M  V30 31 N -1.876317 -2.613173 -6.384699 0
M  V30 32 C -3.354257 -0.619634 -6.762527 0
M  V30 33 C -2.451114 0.545019 -7.078860 0
M  V30 34 C -1.276466 -0.295358 -6.641678 0
M  V30 35 C -1.320425 -1.750728 -3.758015 0
M  V30 36 C -1.282063 -1.595014 -2.363675 0
M  V30 37 N -0.666946 -0.423705 0.210481 0
M  V30 38 C -0.451202 -0.564627 1.526708 0
M  V30 39 C 3.517158 0.674063 6.578239 0
M  V30 40 N 4.571079 0.848572 7.390681 0
M  V30 41 H 10.066230 1.757015 7.812016 0
M  V30 42 H 10.008990 -0.077818 8.023879 0
M  V30 43 H 9.266621 1.002339 9.197582 0
M  V30 44 H 7.063884 0.313525 5.307543 0
M  V30 45 H 5.217651 -0.017266 3.781679 0
M  V30 46 H 3.823555 0.912174 2.598516 0
M  V30 47 H 2.091641 0.534666 0.944932 0
M  V30 48 H 1.162849 -0.663914 5.604389 0
M  V30 49 H -3.254388 -1.873255 2.654587 0
M  V30 50 H -5.142029 -0.032715 -0.114503 0
M  V30 51 H -7.268808 -1.063139 -0.671107 0
M  V30 52 H -7.526285 -3.558452 -0.653442 0
M  V30 53 H -5.562546 -4.913917 -0.063743 0
M  V30 54 H -3.422732 -3.874450 0.485076 0
M  V30 55 H -3.691203 0.561225 -1.877163 0
M  V30 56 H -3.833577 0.337550 -4.377375 0
M  V30 57 H -2.254115 -2.810191 -7.332669 0
M  V30 58 H -0.813288 -2.686113 -6.399203 0
M  V30 59 H -4.288916 -0.362798 -6.224206 0
M  V30 60 H -3.621900 -1.207900 -7.669164 0
M  V30 61 H -2.599767 1.410973 -6.391998 0
M  V30 62 H -2.440114 0.826874 -8.157487 0
M  V30 63 H -0.793280 -0.723588 -7.556187 0
M  V30 64 H -0.583821 0.207284 -5.938127 0
M  V30 65 H -0.642828 -2.411660 -4.312307 0
M  V30 66 H -0.484367 -2.228741 -1.946224 0
M  V30 67 H 2.475650 0.771058 6.912737 0
M  V30 END ATOM
M  V30 BEGIN BOND
M  V30 1 1 1 2
M  V30 2 1 2 3
M  V30 3 2 3 4
M  V30 4 1 3 5
M  V30 5 2 5 6
M  V30 6 1 6 7
M  V30 7 2 7 8
M  V30 8 1 8 9
M  V30 9 1 9 10
M  V30 10 2 10 11
M  V30 11 1 11 12
M  V30 12 1 12 13
M  V30 13 1 13 14
M  V30 14 2 13 15
M  V30 15 1 15 16
M  V30 16 1 16 17
M  V30 17 2 17 18
M  V30 18 1 18 19
M  V30 19 2 19 20
M  V30 20 1 20 21
M  V30 21 2 21 22
M  V30 22 1 22 23
M  V30 23 2 23 24
M  V30 24 1 18 25
M  V30 25 1 25 26
M  V30 26 2 26 27
M  V30 27 1 27 28
M  V30 28 2 28 29
M  V30 29 1 29 30
M  V30 30 1 30 31
M  V30 31 1 30 32
M  V30 32 1 32 33
M  V30 33 1 33 34
M  V30 34 1 29 35
M  V30 35 2 35 36
M  V30 36 2 25 37
M  V30 37 1 37 38
M  V30 38 1 8 39
M  V30 39 2 39 40
M  V30 40 1 40 5
M  V30 41 2 14 9
M  V30 42 1 38 16
M  V30 43 2 38 12
M  V30 44 1 24 19
M  V30 45 1 36 26
M  V30 46 1 34 30
M  V30 47 1 1 41
M  V30 48 1 1 42
M  V30 49 1 1 43
M  V30 50 1 6 44
M  V30 51 1 7 45
M  V30 52 1 10 46
M  V30 53 1 11 47
M  V30 54 1 14 48
M  V30 55 1 17 49
M  V30 56 1 20 50
M  V30 57 1 21 51
M  V30 58 1 22 52
M  V30 59 1 23 53
M  V30 60 1 24 54
M  V30 61 1 27 55
M  V30 62 1 28 56
M  V30 63 1 31 57
M  V30 64 1 31 58
M  V30 65 1 32 59
M  V30 66 1 32 60
M  V30 67 1 33 61
M  V30 68 1 33 62
M  V30 69 1 34 63
M  V30 70 1 34 64
M  V30 71 1 35 65
M  V30 72 1 36 66
M  V30 73 1 39 67
M  V30 END BOND
M  V30 END CTAB
M  END
>  <Dataset>  (48) 
ChEMBL_Kinases

>  <Ligand_Instance>  (48) 
nan

>  <PDB_ID>  (48) 
nan

>  <Standardized_SMILES>  (48) 
COC(=O)c1ccc(-c2ccc3c(c2)nn2cc(-c4ccccc4)c(-c4ccc(C5(N)CCC5)cc4)nc32)cn1

>  <Name>  (48) 
nan

>  <Pocket>  (48) 
nan

>  <ATP_Site>  (48) 
nan

>  <Peripheral>  (48) 
nan

>  <Num_H_Atoms_ProtBoundConf>  (48) 
nan

>  <Num_Resolved_Atoms>  (48) 
nan

>  <Num_Not_Resolved_Atoms>  (48) 
nan

$$$$
CHEMBL3672523
     RDKit          3D

  0  0  0  0  0  0  0  0  0  0999 V3000
M  V30 BEGIN CTAB
M  V30 COUNTS 63 69 0 0 0
M  V30 BEGIN ATOM
M  V30 1 N 3.779786 -2.962667 4.999650 0
M  V30 2 C 2.806351 -3.844697 4.444205 0
M  V30 3 C 2.097801 -3.295220 3.270208 0
M  V30 4 C 0.728045 -3.221735 3.179077 0
M  V30 5 C 0.090211 -2.708753 2.066357 0
M  V30 6 C 0.820287 -2.241422 0.981006 0
M  V30 7 C 0.080244 -1.707253 -0.161900 0
M  V30 8 N -0.281437 -0.417684 0.109318 0
M  V30 9 C -0.989522 0.314904 -0.807385 0
M  V30 10 C -1.478669 1.610026 -0.807846 0
M  V30 11 C -1.379195 2.583029 0.181606 0
M  V30 12 C -1.975751 3.789769 -0.124790 0
M  V30 13 C -2.621711 4.012064 -1.322465 0
M  V30 14 C -3.237902 5.301310 -1.618810 0
M  V30 15 C -3.786914 6.089481 -0.599756 0
M  V30 16 C -4.363081 7.301374 -0.905456 0
M  V30 17 C -4.433626 7.800271 -2.194151 0
M  V30 18 F -4.999058 8.990647 -2.488604 0
M  V30 19 C -3.878633 6.989301 -3.174376 0
M  V30 20 O -3.941103 7.475652 -4.474362 0
M  V30 21 C -3.283853 5.759511 -2.936884 0
M  V30 22 C -2.690982 3.000779 -2.277862 0
M  V30 23 C -2.110382 1.773623 -2.022398 0
M  V30 24 N -2.000568 0.607757 -2.727258 0
M  V30 25 N -1.315575 -0.275953 -1.977977 0
M  V30 26 C -0.973609 -1.542001 -2.272001 0
M  V30 27 C -0.260400 -2.298887 -1.365430 0
M  V30 28 C 0.205371 -3.671817 -1.480582 0
M  V30 29 C 1.138698 -3.937069 -2.469589 0
M  V30 30 C 1.639512 -5.203392 -2.661214 0
M  V30 31 C 1.184189 -6.231652 -1.829671 0
M  V30 32 C 0.249648 -6.034752 -0.818334 0
M  V30 33 C -0.192358 -4.736902 -0.703308 0
M  V30 34 C 2.218368 -2.314514 1.068338 0
M  V30 35 C 2.824080 -2.841820 2.216037 0
M  V30 36 C 3.229256 -5.301886 4.347205 0
M  V30 37 C 2.936543 -5.392702 5.853066 0
M  V30 38 C 1.866837 -4.322539 5.566217 0
M  V30 39 H 4.588926 -3.407839 5.476964 0
M  V30 40 H 3.402196 -2.233172 5.616305 0
M  V30 41 H 0.062854 -3.541992 3.940781 0
M  V30 42 H -1.007995 -2.647280 1.995210 0
M  V30 43 H -0.864687 2.381262 1.116272 0
M  V30 44 H -1.939734 4.604679 0.601047 0
M  V30 45 H -3.752700 5.729634 0.441455 0
M  V30 46 H -4.775763 7.879940 -0.082213 0
M  V30 47 H -4.578327 8.197320 -4.774923 0
M  V30 48 H -2.870151 5.176430 -3.748930 0
M  V30 49 H -3.188776 3.176009 -3.197627 0
M  V30 50 H -1.204292 -2.065150 -3.182960 0
M  V30 51 H 1.497262 -3.146325 -3.120845 0
M  V30 52 H 2.377237 -5.441269 -3.434800 0
M  V30 53 H 1.597144 -7.204474 -2.008716 0
M  V30 54 H -0.098636 -6.818883 -0.183093 0
M  V30 55 H -0.923286 -4.525806 0.066872 0
M  V30 56 H 2.773781 -1.938599 0.193085 0
M  V30 57 H 3.881963 -2.883629 2.251044 0
M  V30 58 H 2.463883 -5.868667 3.804006 0
M  V30 59 H 4.282992 -5.485393 4.067295 0
M  V30 60 H 3.743021 -4.955896 6.464360 0
M  V30 61 H 2.521460 -6.362573 6.170511 0
M  V30 62 H 1.687674 -3.613871 6.369499 0
M  V30 63 H 0.967594 -4.831201 5.119813 0
M  V30 END ATOM
M  V30 BEGIN BOND
M  V30 1 1 1 2
M  V30 2 1 2 3
M  V30 3 2 3 4
M  V30 4 1 4 5
M  V30 5 2 5 6
M  V30 6 1 6 7
M  V30 7 2 7 8
M  V30 8 1 8 9
M  V30 9 2 9 10
M  V30 10 1 10 11
M  V30 11 2 11 12
M  V30 12 1 12 13
M  V30 13 1 13 14
M  V30 14 2 14 15
M  V30 15 1 15 16
M  V30 16 2 16 17
M  V30 17 1 17 18
M  V30 18 1 17 19
M  V30 19 1 19 20
M  V30 20 2 19 21
M  V30 21 2 13 22
M  V30 22 1 22 23
M  V30 23 2 23 24
M  V30 24 1 24 25
M  V30 25 1 25 26
M  V30 26 2 26 27
M  V30 27 1 27 28
M  V30 28 2 28 29
M  V30 29 1 29 30
M  V30 30 2 30 31
M  V30 31 1 31 32
M  V30 32 2 32 33
M  V30 33 1 6 34
M  V30 34 2 34 35
M  V30 35 1 2 36
M  V30 36 1 36 37
M  V30 37 1 37 38
M  V30 38 1 38 2
M  V30 39 1 35 3
M  V30 40 1 27 7
M  V30 41 1 33 28
M  V30 42 1 25 9
M  V30 43 1 23 10
M  V30 44 1 21 14
M  V30 45 1 1 39
M  V30 46 1 1 40
M  V30 47 1 4 41
M  V30 48 1 5 42
M  V30 49 1 11 43
M  V30 50 1 12 44
M  V30 51 1 15 45
M  V30 52 1 16 46
M  V30 53 1 20 47
M  V30 54 1 21 48
M  V30 55 1 22 49
M  V30 56 1 26 50
M  V30 57 1 29 51
M  V30 58 1 30 52
M  V30 59 1 31 53
M  V30 60 1 32 54
M  V30 61 1 33 55
M  V30 62 1 34 56
M  V30 63 1 35 57
M  V30 64 1 36 58
M  V30 65 1 36 59
M  V30 66 1 37 60
M  V30 67 1 37 61
M  V30 68 1 38 62
M  V30 69 1 38 63
M  V30 END BOND
M  V30 END CTAB
M  END
>  <Dataset>  (49) 
ChEMBL_Kinases

>  <Ligand_Instance>  (49) 
nan

>  <PDB_ID>  (49) 
nan

>  <Standardized_SMILES>  (49) 
NC1(c2ccc(-c3nc4c5ccc(-c6ccc(F)c(O)c6)cc5nn4cc3-c3ccccc3)cc2)CCC1

>  <Name>  (49) 
nan

>  <Pocket>  (49) 
nan

>  <ATP_Site>  (49) 
nan

>  <Peripheral>  (49) 
nan

>  <Num_H_Atoms_ProtBoundConf>  (49) 
nan

>  <Num_Resolved_Atoms>  (49) 
nan

>  <Num_Not_Resolved_Atoms>  (49) 
nan

$$$$
CHEMBL3670430
     RDKit          3D

  0  0  0  0  0  0  0  0  0  0999 V3000
M  V30 BEGIN CTAB
M  V30 COUNTS 42 44 0 0 0
M  V30 BEGIN ATOM
M  V30 1 C 1.534005 -5.878950 0.850093 0
M  V30 2 C 1.343404 -4.579231 0.131743 0
M  V30 3 O 0.394753 -4.245327 -0.622535 0
M  V30 4 N 2.328285 -3.569573 0.291158 0
M  V30 5 C 2.010715 -2.378444 -0.457645 0
M  V30 6 C 2.474956 -2.272020 -1.768177 0
M  V30 7 C 2.128133 -1.103386 -2.413807 0
M  V30 8 C 2.588751 -0.940970 -3.788105 0
M  V30 9 N 2.298207 0.217600 -4.562366 0
M  V30 10 O 3.268754 -1.796788 -4.391119 0
M  V30 11 C 1.382587 -0.090492 -1.850116 0
M  V30 12 N 1.077511 1.017620 -2.522343 0
M  V30 13 C 0.342036 1.972929 -1.909116 0
M  V30 14 N -0.084791 1.828798 -0.643968 0
M  V30 15 C 0.189734 0.734967 0.086797 0
M  V30 16 N -0.287121 0.634429 1.421521 0
M  V30 17 C -1.069567 1.723228 1.979533 0
M  V30 18 C -1.503548 1.501207 3.364362 0
M  V30 19 C -2.667786 0.901859 3.808752 0
M  V30 20 C -2.893760 0.787020 5.169386 0
M  V30 21 C -2.000093 1.248583 6.112201 0
M  V30 22 C -0.842643 1.844431 5.665555 0
M  V30 23 C -0.606217 1.964683 4.329091 0
M  V30 24 C 0.939490 -0.232092 -0.547184 0
M  V30 25 C 1.264313 -1.372304 0.116994 0
M  V30 26 H 0.820448 -6.595245 0.401057 0
M  V30 27 H 2.588220 -6.197229 0.795652 0
M  V30 28 H 1.199586 -5.736878 1.905472 0
M  V30 29 H 3.167964 -3.757597 0.909335 0
M  V30 30 H 3.061336 -3.037861 -2.251638 0
M  V30 31 H 1.323626 0.203819 -4.966823 0
M  V30 32 H 2.913614 1.058604 -4.774911 0
M  V30 33 H 0.072327 2.896254 -2.430102 0
M  V30 34 H -0.142668 -0.153799 2.082923 0
M  V30 35 H -1.998313 1.770991 1.357979 0
M  V30 36 H -0.556580 2.702750 1.864722 0
M  V30 37 H -3.323752 0.562952 3.024982 0
M  V30 38 H -3.811827 0.314317 5.453915 0
M  V30 39 H -2.183822 1.155161 7.171901 0
M  V30 40 H -0.154561 2.199852 6.423898 0
M  V30 41 H 0.328425 2.445963 4.082723 0
M  V30 42 H 0.950763 -1.542377 1.129924 0
M  V30 END ATOM
M  V30 BEGIN BOND
M  V30 1 1 1 2
M  V30 2 2 2 3
M  V30 3 1 2 4
M  V30 4 1 4 5
M  V30 5 2 5 6
M  V30 6 1 6 7
M  V30 7 1 7 8
M  V30 8 1 8 9
M  V30 9 2 8 10
M  V30 10 2 7 11
M  V30 11 1 11 12
M  V30 12 2 12 13
M  V30 13 1 13 14
M  V30 14 2 14 15
M  V30 15 1 15 16
M  V30 16 1 16 17
M  V30 17 1 17 18
M  V30 18 2 18 19
M  V30 19 1 19 20
M  V30 20 2 20 21
M  V30 21 1 21 22
M  V30 22 2 22 23
M  V30 23 1 15 24
M  V30 24 2 24 25
M  V30 25 1 25 5
M  V30 26 1 24 11
M  V30 27 1 23 18
M  V30 28 1 1 26
M  V30 29 1 1 27
M  V30 30 1 1 28
M  V30 31 1 4 29
M  V30 32 1 6 30
M  V30 33 1 9 31
M  V30 34 1 9 32
M  V30 35 1 13 33
M  V30 36 1 16 34
M  V30 37 1 17 35
M  V30 38 1 17 36
M  V30 39 1 19 37
M  V30 40 1 20 38
M  V30 41 1 21 39
M  V30 42 1 22 40
M  V30 43 1 23 41
M  V30 44 1 25 42
M  V30 END BOND
M  V30 END CTAB
M  END
>  <Dataset>  (50) 
ChEMBL_Kinases

>  <Ligand_Instance>  (50) 
nan

>  <PDB_ID>  (50) 
nan

>  <Standardized_SMILES>  (50) 
CC(=O)Nc1cc(C(N)=O)c2ncnc(NCc3ccccc3)c2c1

>  <Name>  (50) 
nan

>  <Pocket>  (50) 
nan

>  <ATP_Site>  (50) 
nan

>  <Peripheral>  (50) 
nan

>  <Num_H_Atoms_ProtBoundConf>  (50) 
nan

>  <Num_Resolved_Atoms>  (50) 
nan

>  <Num_Not_Resolved_Atoms>  (50) 
nan

$$$$
CHEMBL3670405
     RDKit          3D

  0  0  0  0  0  0  0  0  0  0999 V3000
M  V30 BEGIN CTAB
M  V30 COUNTS 34 36 0 0 0
M  V30 BEGIN ATOM
M  V30 1 N 2.859416 -0.415147 4.867056 0
M  V30 2 C 2.174892 -1.630948 4.584519 0
M  V30 3 O 2.173046 -2.608590 5.391057 0
M  V30 4 C 1.445790 -1.781374 3.335271 0
M  V30 5 C 0.783255 -2.961087 3.064270 0
M  V30 6 C 0.088263 -3.083597 1.855717 0
M  V30 7 C 0.099107 -2.012864 0.988920 0
M  V30 8 C 0.740235 -0.816415 1.206864 0
M  V30 9 C 0.699626 0.197738 0.276449 0
M  V30 10 N -0.010727 0.117713 -0.935212 0
M  V30 11 C -0.854691 -0.509501 -1.872800 0
M  V30 12 C -2.284174 -0.732600 -1.437683 0
M  V30 13 C -2.928354 0.602825 -1.811586 0
M  V30 14 N -2.385351 0.841763 -3.111696 0
M  V30 15 C -1.088033 0.247852 -3.173882 0
M  V30 16 N 1.381907 1.295601 0.634690 0
M  V30 17 C 2.039977 1.397493 1.788020 0
M  V30 18 N 2.046427 0.386470 2.653471 0
M  V30 19 C 1.405349 -0.758914 2.411909 0
M  V30 20 H 2.513942 0.571984 5.038737 0
M  V30 21 H 2.555532 0.576649 5.042317 0
M  V30 22 H 0.820613 -3.748593 3.787495 0
M  V30 23 H -0.422291 -4.004436 1.656349 0
M  V30 24 H -0.436091 -2.177236 0.096649 0
M  V30 25 H 0.163536 1.018743 -1.471394 0
M  V30 26 H -0.402122 -1.518755 -2.121702 0
M  V30 27 H -2.705447 -1.488057 -2.128527 0
M  V30 28 H -2.425264 -0.975846 -0.390491 0
M  V30 29 H -4.021756 0.397829 -1.803018 0
M  V30 30 H -2.736740 1.391595 -1.075883 0
M  V30 31 H -2.452743 1.819481 -3.446254 0
M  V30 32 H -0.272066 0.969043 -3.382468 0
M  V30 33 H -1.109564 -0.501164 -3.991126 0
M  V30 34 H 2.542896 2.348862 1.932202 0
M  V30 END ATOM
M  V30 BEGIN BOND
M  V30 1 1 1 2
M  V30 2 2 2 3
M  V30 3 1 2 4
M  V30 4 2 4 5
M  V30 5 1 5 6
M  V30 6 2 6 7
M  V30 7 1 7 8
M  V30 8 2 8 9
M  V30 9 1 9 10
M  V30 10 1 10 11
M  V30 11 1 11 12
M  V30 12 1 12 13
M  V30 13 1 13 14
M  V30 14 1 14 15
M  V30 15 1 9 16
M  V30 16 2 16 17
M  V30 17 1 17 18
M  V30 18 2 18 19
M  V30 19 1 19 4
M  V30 20 1 19 8
M  V30 21 1 15 11
M  V30 22 1 1 20
M  V30 23 1 1 21
M  V30 24 1 5 22
M  V30 25 1 6 23
M  V30 26 1 7 24
M  V30 27 1 10 25
M  V30 28 1 11 26
M  V30 29 1 12 27
M  V30 30 1 12 28
M  V30 31 1 13 29
M  V30 32 1 13 30
M  V30 33 1 14 31
M  V30 34 1 15 32
M  V30 35 1 15 33
M  V30 36 1 17 34
M  V30 END BOND
M  V30 END CTAB
M  END
>  <Dataset>  (51) 
ChEMBL_Kinases

>  <Ligand_Instance>  (51) 
nan

>  <PDB_ID>  (51) 
nan

>  <Standardized_SMILES>  (51) 
NC(=O)c1cccc2c(NC3CCNC3)ncnc12

>  <Name>  (51) 
nan

>  <Pocket>  (51) 
nan

>  <ATP_Site>  (51) 
nan

>  <Peripheral>  (51) 
nan

>  <Num_H_Atoms_ProtBoundConf>  (51) 
nan

>  <Num_Resolved_Atoms>  (51) 
nan

>  <Num_Not_Resolved_Atoms>  (51) 
nan

$$$$
CHEMBL3670403
     RDKit          3D

  0  0  0  0  0  0  0  0  0  0999 V3000
M  V30 BEGIN CTAB
M  V30 COUNTS 40 42 0 0 0
M  V30 BEGIN ATOM
M  V30 1 N 0.030721 -4.780517 0.250431 0
M  V30 2 C 0.738974 -3.517080 0.336224 0
M  V30 3 C 0.470837 -2.733376 1.573393 0
M  V30 4 N 1.229454 -1.472477 1.593709 0
M  V30 5 C 0.951380 -0.492696 0.602703 0
M  V30 6 N 0.008115 -0.687736 -0.333201 0
M  V30 7 C -0.291446 0.215635 -1.281579 0
M  V30 8 N 0.361736 1.412411 -1.349695 0
M  V30 9 C 1.336611 1.697340 -0.438718 0
M  V30 10 C 2.018334 2.883611 -0.468255 0
M  V30 11 C 1.694712 3.865758 -1.496802 0
M  V30 12 N 0.684815 3.609200 -2.465499 0
M  V30 13 O 2.299952 4.967459 -1.555831 0
M  V30 14 C 3.004145 3.176711 0.448659 0
M  V30 15 C 3.280037 2.217633 1.407673 0
M  V30 16 C 2.569823 1.034916 1.402620 0
M  V30 17 C 1.581008 0.728259 0.491543 0
M  V30 18 C -0.963073 -2.475653 1.849076 0
M  V30 19 C -1.049902 -1.622187 2.958956 0
M  V30 20 C -2.290888 -1.205336 3.445767 0
M  V30 21 C -3.436188 -1.631569 2.836660 0
M  V30 22 C -3.345418 -2.469067 1.747691 0
M  V30 23 Cl -4.727643 -3.103298 0.856174 0
M  V30 24 C -2.132609 -2.891639 1.252008 0
M  V30 25 H 0.630927 -5.524428 -0.171365 0
M  V30 26 H -0.228414 -5.136647 1.198544 0
M  V30 27 H 0.540509 -2.951754 -0.593929 0
M  V30 28 H 1.835387 -3.772912 0.269393 0
M  V30 29 H 0.850124 -3.328825 2.429882 0
M  V30 30 H 1.944773 -1.343407 2.336171 0
M  V30 31 H -1.065629 -0.012639 -2.003706 0
M  V30 32 H 0.495179 3.150999 -3.381307 0
M  V30 33 H -0.194192 4.035394 -2.146097 0
M  V30 34 H 3.500461 4.118080 0.374733 0
M  V30 35 H 4.053811 2.458591 2.119980 0
M  V30 36 H 2.874227 0.369110 2.195019 0
M  V30 37 H -0.241493 -1.188222 3.562617 0
M  V30 38 H -2.432921 -0.550782 4.293488 0
M  V30 39 H -4.442750 -1.369976 3.131734 0
M  V30 40 H -1.940006 -3.527328 0.426964 0
M  V30 END ATOM
M  V30 BEGIN BOND
M  V30 1 1 1 2
M  V30 2 1 2 3
M  V30 3 1 3 4
M  V30 4 1 4 5
M  V30 5 2 5 6
M  V30 6 1 6 7
M  V30 7 2 7 8
M  V30 8 1 8 9
M  V30 9 2 9 10
M  V30 10 1 10 11
M  V30 11 1 11 12
M  V30 12 2 11 13
M  V30 13 1 10 14
M  V30 14 2 14 15
M  V30 15 1 15 16
M  V30 16 2 16 17
M  V30 17 1 3 18
M  V30 18 2 18 19
M  V30 19 1 19 20
M  V30 20 2 20 21
M  V30 21 1 21 22
M  V30 22 1 22 23
M  V30 23 2 22 24
M  V30 24 1 17 5
M  V30 25 1 24 18
M  V30 26 1 17 9
M  V30 27 1 1 25
M  V30 28 1 1 26
M  V30 29 1 2 27
M  V30 30 1 2 28
M  V30 31 1 3 29
M  V30 32 1 4 30
M  V30 33 1 7 31
M  V30 34 1 12 32
M  V30 35 1 12 33
M  V30 36 1 14 34
M  V30 37 1 15 35
M  V30 38 1 16 36
M  V30 39 1 19 37
M  V30 40 1 20 38
M  V30 41 1 21 39
M  V30 42 1 24 40
M  V30 END BOND
M  V30 END CTAB
M  END
>  <Dataset>  (52) 
ChEMBL_Kinases

>  <Ligand_Instance>  (52) 
nan

>  <PDB_ID>  (52) 
nan

>  <Standardized_SMILES>  (52) 
NCC(Nc1ncnc2c(C(N)=O)cccc12)c1cccc(Cl)c1

>  <Name>  (52) 
nan

>  <Pocket>  (52) 
nan

>  <ATP_Site>  (52) 
nan

>  <Peripheral>  (52) 
nan

>  <Num_H_Atoms_ProtBoundConf>  (52) 
nan

>  <Num_Resolved_Atoms>  (52) 
nan

>  <Num_Not_Resolved_Atoms>  (52) 
nan

$$$$
CHEMBL3669636
     RDKit          3D

  0  0  0  0  0  0  0  0  0  0999 V3000
M  V30 BEGIN CTAB
M  V30 COUNTS 61 65 0 0 0
M  V30 BEGIN ATOM
M  V30 1 C 4.509042 0.370430 3.418406 0
M  V30 2 N 3.106843 0.277493 3.692431 0
M  V30 3 C 2.900046 -0.599571 4.840428 0
M  V30 4 C 2.347448 -0.147193 2.567381 0
M  V30 5 C 2.276217 0.866170 1.438083 0 CFG=1
M  V30 6 O 1.523663 0.320758 0.390663 0
M  V30 7 C 1.966140 -0.092236 -0.842427 0
M  V30 8 O 3.209550 0.074900 -0.961391 0
M  V30 9 N 0.978098 -0.624231 -1.750017 0
M  V30 10 C -0.465589 -0.692985 -1.448003 0
M  V30 11 C -0.699830 -2.150606 -1.590418 0
M  V30 12 C 0.144759 -2.511183 -2.650938 0
M  V30 13 N -0.070931 -3.834878 -2.785921 0
M  V30 14 N -0.952937 -4.284974 -1.914488 0
M  V30 15 C -1.397989 -3.267078 -1.118499 0
M  V30 16 N -2.308517 -3.057768 -0.028551 0
M  V30 17 C -3.721149 -2.950739 -0.242905 0
M  V30 18 N -4.340605 -2.041581 -1.053145 0
M  V30 19 C -5.689093 -2.161826 -1.091219 0
M  V30 20 N -6.436491 -3.055962 -0.433820 0
M  V30 21 C -5.814366 -3.966678 0.376772 0
M  V30 22 C -6.538704 -4.898918 1.069916 0
M  V30 23 C -5.740595 -5.770463 1.869661 0
M  V30 24 S -3.970305 -5.161635 1.551239 0
M  V30 25 C -4.450887 -3.885590 0.450476 0
M  V30 26 C 0.839147 -1.229812 -3.056351 0
M  V30 27 C -0.039613 -0.476852 -3.994372 0
M  V30 28 C 2.174443 -1.594667 -3.679458 0
M  V30 29 C 1.612330 2.127460 1.833073 0
M  V30 30 C 1.384165 3.146607 0.943426 0
M  V30 31 C 0.736065 4.288039 1.363749 0
M  V30 32 C 0.282709 4.486040 2.666762 0
M  V30 33 C 0.507814 3.462726 3.577355 0
M  V30 34 C 1.161019 2.326300 3.129662 0
M  V30 35 H 4.979868 1.127705 4.089797 0
M  V30 36 H 4.727339 0.577591 2.376494 0
M  V30 37 H 4.973481 -0.614193 3.713209 0
M  V30 38 H 2.514255 -0.039788 5.723539 0
M  V30 39 H 3.855693 -1.049535 5.174902 0
M  V30 40 H 2.224139 -1.454667 4.588129 0
M  V30 41 H 2.711492 -1.127491 2.188422 0
M  V30 42 H 1.301626 -0.364931 2.927942 0
M  V30 43 H 3.304842 0.984101 1.041883 0
M  V30 44 H -1.075831 -0.173280 -2.201182 0
M  V30 45 H -0.660471 -0.332739 -0.412811 0
M  V30 46 H -1.381408 -5.210149 -1.692265 0
M  V30 47 H -1.798285 -2.995032 0.895617 0
M  V30 48 H -6.205253 -1.436506 -1.742322 0
M  V30 49 H -7.592218 -5.091771 1.125354 0
M  V30 50 H -6.083247 -6.614168 2.528019 0
M  V30 51 H -1.052422 -0.932628 -4.075941 0
M  V30 52 H 0.443992 -0.533064 -5.017213 0
M  V30 53 H -0.114057 0.602397 -3.778272 0
M  V30 54 H 2.738430 -0.721204 -4.023094 0
M  V30 55 H 2.776938 -2.161638 -2.956353 0
M  V30 56 H 1.922519 -2.228718 -4.579088 0
M  V30 57 H 1.708157 3.061265 -0.096537 0
M  V30 58 H 0.550668 5.108577 0.652047 0
M  V30 59 H -0.219801 5.397959 2.948615 0
M  V30 60 H 0.146661 3.656474 4.553398 0
M  V30 61 H 1.253183 1.615317 3.945587 0
M  V30 END ATOM
M  V30 BEGIN BOND
M  V30 1 1 1 2
M  V30 2 1 2 3
M  V30 3 1 2 4
M  V30 4 1 4 5
M  V30 5 1 5 6
M  V30 6 1 6 7
M  V30 7 2 7 8
M  V30 8 1 7 9
M  V30 9 1 9 10
M  V30 10 1 10 11
M  V30 11 1 11 12
M  V30 12 2 12 13
M  V30 13 1 13 14
M  V30 14 1 14 15
M  V30 15 1 15 16
M  V30 16 1 16 17
M  V30 17 2 17 18
M  V30 18 1 18 19
M  V30 19 2 19 20
M  V30 20 1 20 21
M  V30 21 1 21 22
M  V30 22 2 22 23
M  V30 23 1 23 24
M  V30 24 1 24 25
M  V30 25 1 12 26
M  V30 26 1 26 27
M  V30 27 1 26 28
M  V30 28 1 5 29
M  V30 29 2 29 30
M  V30 30 1 30 31
M  V30 31 2 31 32
M  V30 32 1 32 33
M  V30 33 2 33 34
M  V30 34 1 26 9
M  V30 35 1 34 29
M  V30 36 2 15 11
M  V30 37 1 25 17
M  V30 38 2 25 21
M  V30 39 1 1 35
M  V30 40 1 1 36
M  V30 41 1 1 37
M  V30 42 1 3 38
M  V30 43 1 3 39
M  V30 44 1 3 40
M  V30 45 1 4 41
M  V30 46 1 4 42
M  V30 47 1 5 43 CFG=3
M  V30 48 1 10 44
M  V30 49 1 10 45
M  V30 50 1 14 46
M  V30 51 1 16 47
M  V30 52 1 19 48
M  V30 53 1 22 49
M  V30 54 1 23 50
M  V30 55 1 27 51
M  V30 56 1 27 52
M  V30 57 1 27 53
M  V30 58 1 28 54
M  V30 59 1 28 55
M  V30 60 1 28 56
M  V30 61 1 30 57
M  V30 62 1 31 58
M  V30 63 1 32 59
M  V30 64 1 33 60
M  V30 65 1 34 61
M  V30 END BOND
M  V30 END CTAB
M  END
>  <Dataset>  (53) 
ChEMBL_Kinases

>  <Ligand_Instance>  (53) 
nan

>  <PDB_ID>  (53) 
nan

>  <Standardized_SMILES>  (53) 
CN(C)C[C@@H](OC(=O)N1Cc2c(n[nH]c2Nc2ncnc3ccsc23)C1(C)C)c1ccccc1

>  <Name>  (53) 
nan

>  <Pocket>  (53) 
nan

>  <ATP_Site>  (53) 
nan

>  <Peripheral>  (53) 
nan

>  <Num_H_Atoms_ProtBoundConf>  (53) 
nan

>  <Num_Resolved_Atoms>  (53) 
nan

>  <Num_Not_Resolved_Atoms>  (53) 
nan

$$$$
CHEMBL3669635
     RDKit          3D

  0  0  0  0  0  0  0  0  0  0999 V3000
M  V30 BEGIN CTAB
M  V30 COUNTS 59 62 0 0 0
M  V30 BEGIN ATOM
M  V30 1 C 3.672827 -0.744524 1.871841 0
M  V30 2 N 3.460856 -1.894600 2.683850 0
M  V30 3 C 2.863650 -1.584080 3.967086 0
M  V30 4 C 2.913827 -3.045266 2.065691 0
M  V30 5 C 1.471472 -2.916397 1.615838 0 CFG=1
M  V30 6 N 1.319852 -1.860798 0.646667 0
M  V30 7 C 0.666950 -0.635615 0.807336 0
M  V30 8 O 0.077848 -0.208786 1.839695 0
M  V30 9 N 0.526625 0.402181 -0.170115 0
M  V30 10 C -0.181503 1.602619 0.217475 0
M  V30 11 C -1.075768 1.839571 -0.931735 0
M  V30 12 C -0.451679 1.315566 -2.041643 0
M  V30 13 N -1.314528 1.562073 -3.043986 0
M  V30 14 N -2.386817 2.181541 -2.626513 0
M  V30 15 C -2.307889 2.391272 -1.301931 0
M  V30 16 N -3.172273 3.012423 -0.328593 0
M  V30 17 C -4.191192 2.533299 0.540942 0
M  V30 18 N -3.674400 2.171742 1.753169 0
M  V30 19 C -4.473952 1.694619 2.721949 0
M  V30 20 N -5.800833 1.549606 2.555963 0
M  V30 21 C -6.311693 1.903952 1.366215 0
M  V30 22 C -5.545379 2.403667 0.319412 0
M  V30 23 F -5.943332 2.787799 -0.906508 0
M  V30 24 C 0.851426 0.747066 -1.540926 0
M  V30 25 C 1.214071 -0.459588 -2.384506 0
M  V30 26 C 1.877464 1.817166 -1.683974 0
M  V30 27 C 0.944447 -4.211352 1.119539 0
M  V30 28 C 0.125211 -5.097029 1.783194 0
M  V30 29 C -0.263852 -6.263569 1.158066 0
M  V30 30 C 0.122593 -6.613287 -0.121427 0
M  V30 31 C 0.946997 -5.710806 -0.772007 0
M  V30 32 C 1.354014 -4.533277 -0.173406 0
M  V30 33 H 4.750609 -0.435190 2.014021 0
M  V30 34 H 3.571311 -1.006925 0.819400 0
M  V30 35 H 3.103139 0.160696 2.178718 0
M  V30 36 H 3.094157 -2.397859 4.653811 0
M  V30 37 H 3.352438 -0.653723 4.322154 0
M  V30 38 H 1.788195 -1.344828 3.890032 0
M  V30 39 H 3.515084 -3.225374 1.127388 0
M  V30 40 H 3.049649 -3.916115 2.718891 0
M  V30 41 H 0.888198 -2.659157 2.540344 0
M  V30 42 H 1.745977 -2.048156 -0.265154 0
M  V30 43 H 0.548074 2.455157 0.340872 0
M  V30 44 H -0.717429 1.552101 1.163890 0
M  V30 45 H -3.234908 2.512197 -3.147898 0
M  V30 46 H -2.910781 4.021658 -0.348697 0
M  V30 47 H -4.094665 1.397100 3.698087 0
M  V30 48 H -7.376997 1.833556 1.104914 0
M  V30 49 H 2.273458 -0.751528 -2.277975 0
M  V30 50 H 0.959782 -0.172136 -3.439816 0
M  V30 51 H 0.502010 -1.286264 -2.144591 0
M  V30 52 H 1.509575 2.846344 -1.613803 0
M  V30 53 H 2.398076 1.649386 -2.673848 0
M  V30 54 H 2.691459 1.599457 -0.932569 0
M  V30 55 H -0.160788 -4.798180 2.779632 0
M  V30 56 H -0.908940 -6.943227 1.702164 0
M  V30 57 H -0.203372 -7.534446 -0.574216 0
M  V30 58 H 1.225205 -6.034103 -1.779345 0
M  V30 59 H 1.995311 -3.972564 -0.853516 0
M  V30 END ATOM
M  V30 BEGIN BOND
M  V30 1 1 1 2
M  V30 2 1 2 3
M  V30 3 1 2 4
M  V30 4 1 4 5
M  V30 5 1 5 6
M  V30 6 1 6 7
M  V30 7 2 7 8
M  V30 8 1 7 9
M  V30 9 1 9 10
M  V30 10 1 10 11
M  V30 11 1 11 12
M  V30 12 2 12 13
M  V30 13 1 13 14
M  V30 14 1 14 15
M  V30 15 1 15 16
M  V30 16 1 16 17
M  V30 17 2 17 18
M  V30 18 1 18 19
M  V30 19 2 19 20
M  V30 20 1 20 21
M  V30 21 2 21 22
M  V30 22 1 22 23
M  V30 23 1 12 24
M  V30 24 1 24 25
M  V30 25 1 24 26
M  V30 26 1 5 27
M  V30 27 2 27 28
M  V30 28 1 28 29
M  V30 29 2 29 30
M  V30 30 1 30 31
M  V30 31 2 31 32
M  V30 32 1 24 9
M  V30 33 1 32 27
M  V30 34 2 15 11
M  V30 35 1 22 17
M  V30 36 1 1 33
M  V30 37 1 1 34
M  V30 38 1 1 35
M  V30 39 1 3 36
M  V30 40 1 3 37
M  V30 41 1 3 38
M  V30 42 1 4 39
M  V30 43 1 4 40
M  V30 44 1 5 41 CFG=1
M  V30 45 1 6 42
M  V30 46 1 10 43
M  V30 47 1 10 44
M  V30 48 1 14 45
M  V30 49 1 16 46
M  V30 50 1 19 47
M  V30 51 1 21 48
M  V30 52 1 25 49
M  V30 53 1 25 50
M  V30 54 1 25 51
M  V30 55 1 26 52
M  V30 56 1 26 53
M  V30 57 1 26 54
M  V30 58 1 28 55
M  V30 59 1 29 56
M  V30 60 1 30 57
M  V30 61 1 31 58
M  V30 62 1 32 59
M  V30 END BOND
M  V30 END CTAB
M  END
>  <Dataset>  (54) 
ChEMBL_Kinases

>  <Ligand_Instance>  (54) 
nan

>  <PDB_ID>  (54) 
nan

>  <Standardized_SMILES>  (54) 
CN(C)C[C@@H](NC(=O)N1Cc2c(n[nH]c2Nc2ncncc2F)C1(C)C)c1ccccc1

>  <Name>  (54) 
nan

>  <Pocket>  (54) 
nan

>  <ATP_Site>  (54) 
nan

>  <Peripheral>  (54) 
nan

>  <Num_H_Atoms_ProtBoundConf>  (54) 
nan

>  <Num_Resolved_Atoms>  (54) 
nan

>  <Num_Not_Resolved_Atoms>  (54) 
nan

$$$$
CHEMBL3669634
     RDKit          3D

  0  0  0  0  0  0  0  0  0  0999 V3000
M  V30 BEGIN CTAB
M  V30 COUNTS 63 66 0 0 0
M  V30 BEGIN ATOM
M  V30 1 C 3.236681 -3.523388 2.049077 0
M  V30 2 O 3.304400 -2.659535 3.144244 0
M  V30 3 C 3.482352 -1.291908 3.102744 0
M  V30 4 N 3.529985 -0.567730 4.256352 0
M  V30 5 C 3.703164 0.768995 4.220903 0
M  V30 6 C 3.830896 1.380317 2.981642 0
M  V30 7 F 4.000463 2.731484 3.098838 0
M  V30 8 C 3.782716 0.638971 1.796033 0
M  V30 9 N 3.939438 1.506953 0.687421 0
M  V30 10 C 2.855884 2.159398 0.015276 0
M  V30 11 N 2.858340 3.029641 -1.018608 0
M  V30 12 N 1.631078 3.394686 -1.334357 0
M  V30 13 C 0.740248 2.785853 -0.525491 0
M  V30 14 C 1.517833 2.016718 0.312472 0
M  V30 15 C 0.531200 1.336925 1.201900 0
M  V30 16 N -0.604049 1.177210 0.313930 0
M  V30 17 C -1.234390 -0.079003 0.106252 0
M  V30 18 O -0.571500 -0.886422 0.807146 0
M  V30 19 N -2.354570 -0.422617 -0.691124 0
M  V30 20 C -2.825106 -1.795159 -0.757998 0 CFG=2
M  V30 21 C -3.302590 -2.192902 0.577733 0
M  V30 22 N -3.804367 -3.514976 0.704356 0
M  V30 23 C -5.024010 -3.809136 0.031564 0
M  V30 24 C -3.822538 -3.895194 2.100796 0
M  V30 25 C -1.705088 -2.593890 -1.309289 0
M  V30 26 C -1.163602 -1.963992 -2.440036 0
M  V30 27 C -0.094048 -2.523212 -3.148000 0
M  V30 28 C 0.434356 -3.722048 -2.716770 0
M  V30 29 C -0.107597 -4.329737 -1.603673 0
M  V30 30 C -1.162831 -3.787793 -0.897067 0
M  V30 31 C -0.692434 2.559205 -0.114442 0
M  V30 32 C -1.036077 3.412784 1.054868 0
M  V30 33 C -1.614734 2.766500 -1.291922 0
M  V30 34 N 3.609389 -0.673818 1.906735 0
M  V30 35 H 3.956829 -3.251380 1.255579 0
M  V30 36 H 2.225079 -3.487589 1.615870 0
M  V30 37 H 3.385039 -4.564462 2.420247 0
M  V30 38 H 3.731266 1.275043 5.169756 0
M  V30 39 H 4.895388 1.693956 0.324800 0
M  V30 40 H 3.729437 3.358330 -1.494621 0
M  V30 41 H 0.309171 1.992453 2.072903 0
M  V30 42 H 0.908135 0.363438 1.560262 0
M  V30 43 H -2.762010 0.394864 -1.186594 0
M  V30 44 H -3.607019 -1.809090 -1.549079 0
M  V30 45 H -2.545875 -2.008654 1.338931 0
M  V30 46 H -4.161240 -1.505046 0.827985 0
M  V30 47 H -5.604682 -4.500927 0.709323 0
M  V30 48 H -5.649008 -2.962270 -0.243300 0
M  V30 49 H -4.758783 -4.467240 -0.840319 0
M  V30 50 H -3.897094 -2.975668 2.711338 0
M  V30 51 H -4.706969 -4.525436 2.354691 0
M  V30 52 H -2.871680 -4.405985 2.401884 0
M  V30 53 H -1.499113 -1.010437 -2.877838 0
M  V30 54 H 0.332472 -2.050476 -4.020059 0
M  V30 55 H 1.261620 -4.164090 -3.256425 0
M  V30 56 H 0.274028 -5.260326 -1.237579 0
M  V30 57 H -1.648711 -4.175240 -0.031752 0
M  V30 58 H -1.696691 4.269363 0.803330 0
M  V30 59 H -1.537480 2.816177 1.840150 0
M  V30 60 H -0.103313 3.882265 1.449041 0
M  V30 61 H -2.663785 2.776979 -0.947322 0
M  V30 62 H -1.395162 2.112678 -2.132407 0
M  V30 63 H -1.424200 3.823026 -1.640009 0
M  V30 END ATOM
M  V30 BEGIN BOND
M  V30 1 1 1 2
M  V30 2 1 2 3
M  V30 3 2 3 4
M  V30 4 1 4 5
M  V30 5 2 5 6
M  V30 6 1 6 7
M  V30 7 1 6 8
M  V30 8 1 8 9
M  V30 9 1 9 10
M  V30 10 1 10 11
M  V30 11 1 11 12
M  V30 12 2 12 13
M  V30 13 1 13 14
M  V30 14 1 14 15
M  V30 15 1 15 16
M  V30 16 1 16 17
M  V30 17 2 17 18
M  V30 18 1 17 19
M  V30 19 1 19 20
M  V30 20 1 20 21
M  V30 21 1 21 22
M  V30 22 1 22 23
M  V30 23 1 22 24
M  V30 24 1 20 25
M  V30 25 2 25 26
M  V30 26 1 26 27
M  V30 27 2 27 28
M  V30 28 1 28 29
M  V30 29 2 29 30
M  V30 30 1 16 31
M  V30 31 1 31 32
M  V30 32 1 31 33
M  V30 33 2 8 34
M  V30 34 1 34 3
M  V30 35 2 14 10
M  V30 36 1 30 25
M  V30 37 1 31 13
M  V30 38 1 1 35
M  V30 39 1 1 36
M  V30 40 1 1 37
M  V30 41 1 5 38
M  V30 42 1 9 39
M  V30 43 1 11 40
M  V30 44 1 15 41
M  V30 45 1 15 42
M  V30 46 1 19 43
M  V30 47 1 20 44 CFG=3
M  V30 48 1 21 45
M  V30 49 1 21 46
M  V30 50 1 23 47
M  V30 51 1 23 48
M  V30 52 1 23 49
M  V30 53 1 24 50
M  V30 54 1 24 51
M  V30 55 1 24 52
M  V30 56 1 26 53
M  V30 57 1 27 54
M  V30 58 1 28 55
M  V30 59 1 29 56
M  V30 60 1 30 57
M  V30 61 1 32 58
M  V30 62 1 32 59
M  V30 63 1 32 60
M  V30 64 1 33 61
M  V30 65 1 33 62
M  V30 66 1 33 63
M  V30 END BOND
M  V30 END CTAB
M  END
>  <Dataset>  (55) 
ChEMBL_Kinases

>  <Ligand_Instance>  (55) 
nan

>  <PDB_ID>  (55) 
nan

>  <Standardized_SMILES>  (55) 
COc1ncc(F)c(Nc2[nH]nc3c2CN(C(=O)N[C@H](CN(C)C)c2ccccc2)C3(C)C)n1

>  <Name>  (55) 
nan

>  <Pocket>  (55) 
nan

>  <ATP_Site>  (55) 
nan

>  <Peripheral>  (55) 
nan

>  <Num_H_Atoms_ProtBoundConf>  (55) 
nan

>  <Num_Resolved_Atoms>  (55) 
nan

>  <Num_Not_Resolved_Atoms>  (55) 
nan

$$$$
CHEMBL3669633
     RDKit          3D

  0  0  0  0  0  0  0  0  0  0999 V3000
M  V30 BEGIN CTAB
M  V30 COUNTS 62 65 0 0 0
M  V30 BEGIN ATOM
M  V30 1 C -0.072291 -0.652748 6.082372 0
M  V30 2 C 0.865175 -0.881124 4.932869 0
M  V30 3 N 0.965133 -2.078762 4.287793 0
M  V30 4 C 1.836014 -2.182213 3.251336 0
M  V30 5 C 2.584176 -1.058675 2.899192 0
M  V30 6 C 2.462520 0.158293 3.578796 0
M  V30 7 N 3.346980 1.084519 2.969483 0
M  V30 8 C 2.693436 1.945404 2.023554 0
M  V30 9 N 2.416721 3.272777 2.181962 0
M  V30 10 N 1.803512 3.812308 1.153689 0
M  V30 11 C 1.632503 2.834288 0.217967 0
M  V30 12 C 2.185954 1.701176 0.774372 0
M  V30 13 C 2.012786 0.611147 -0.212104 0
M  V30 14 N 0.789654 1.044901 -0.906070 0
M  V30 15 C -0.412701 0.367052 -1.252604 0
M  V30 16 O -1.253445 1.028237 -1.921955 0
M  V30 17 N -0.723521 -0.989629 -0.894943 0
M  V30 18 C -1.974137 -1.591309 -1.306610 0 CFG=2
M  V30 19 C -3.080298 -1.467728 -0.331816 0
M  V30 20 N -2.967754 -2.009581 0.937794 0
M  V30 21 C -4.080373 -1.840289 1.810570 0
M  V30 22 C -2.052563 -3.015136 1.272281 0
M  V30 23 C -1.820997 -2.947516 -1.876650 0
M  V30 24 C -2.721163 -3.989418 -1.643313 0
M  V30 25 C -2.580849 -5.271584 -2.146652 0
M  V30 26 C -1.490786 -5.554919 -2.929652 0
M  V30 27 C -0.574201 -4.556000 -3.188783 0
M  V30 28 C -0.739210 -3.269110 -2.667488 0
M  V30 29 C 1.125826 2.431404 -1.126870 0
M  V30 30 C 2.216398 2.637465 -2.148318 0
M  V30 31 C -0.065285 3.263873 -1.533096 0
M  V30 32 N 1.583718 0.213866 4.602113 0
M  V30 33 H -0.794166 0.148286 5.773340 0
M  V30 34 H -0.676605 -1.584556 6.190462 0
M  V30 35 H 0.523806 -0.383854 6.954401 0
M  V30 36 H 1.874580 -3.142563 2.776073 0
M  V30 37 H 3.228716 -1.315626 2.053151 0
M  V30 38 H 4.364295 1.152327 3.165614 0
M  V30 39 H 2.696935 3.776360 3.074858 0
M  V30 40 H 2.809237 0.662927 -1.001398 0
M  V30 41 H 1.895124 -0.385875 0.201431 0
M  V30 42 H 0.096439 -1.370469 -0.332689 0
M  V30 43 H -2.301662 -0.933794 -2.171968 0
M  V30 44 H -3.346938 -0.362779 -0.281947 0
M  V30 45 H -4.005078 -1.857256 -0.856959 0
M  V30 46 H -3.840529 -1.870685 2.891575 0
M  V30 47 H -4.896071 -2.570651 1.565450 0
M  V30 48 H -4.520532 -0.826685 1.627100 0
M  V30 49 H -1.182990 -3.101326 0.616018 0
M  V30 50 H -1.626393 -2.754240 2.291743 0
M  V30 51 H -2.484378 -4.032407 1.401637 0
M  V30 52 H -3.578845 -3.827373 -1.042586 0
M  V30 53 H -3.313188 -6.034394 -1.929505 0
M  V30 54 H -1.382272 -6.564789 -3.327555 0
M  V30 55 H 0.271265 -4.859641 -3.818469 0
M  V30 56 H 0.015442 -2.545523 -2.913259 0
M  V30 57 H 3.225693 2.623196 -1.652220 0
M  V30 58 H 2.106823 3.674496 -2.536700 0
M  V30 59 H 2.126876 1.935520 -2.986484 0
M  V30 60 H -0.276458 3.039380 -2.598287 0
M  V30 61 H -0.946335 3.112599 -0.906398 0
M  V30 62 H 0.225093 4.326187 -1.431938 0
M  V30 END ATOM
M  V30 BEGIN BOND
M  V30 1 1 1 2
M  V30 2 2 2 3
M  V30 3 1 3 4
M  V30 4 2 4 5
M  V30 5 1 5 6
M  V30 6 1 6 7
M  V30 7 1 7 8
M  V30 8 1 8 9
M  V30 9 1 9 10
M  V30 10 2 10 11
M  V30 11 1 11 12
M  V30 12 1 12 13
M  V30 13 1 13 14
M  V30 14 1 14 15
M  V30 15 2 15 16
M  V30 16 1 15 17
M  V30 17 1 17 18
M  V30 18 1 18 19
M  V30 19 1 19 20
M  V30 20 1 20 21
M  V30 21 1 20 22
M  V30 22 1 18 23
M  V30 23 2 23 24
M  V30 24 1 24 25
M  V30 25 2 25 26
M  V30 26 1 26 27
M  V30 27 2 27 28
M  V30 28 1 14 29
M  V30 29 1 29 30
M  V30 30 1 29 31
M  V30 31 2 6 32
M  V30 32 1 32 2
M  V30 33 2 12 8
M  V30 34 1 28 23
M  V30 35 1 29 11
M  V30 36 1 1 33
M  V30 37 1 1 34
M  V30 38 1 1 35
M  V30 39 1 4 36
M  V30 40 1 5 37
M  V30 41 1 7 38
M  V30 42 1 9 39
M  V30 43 1 13 40
M  V30 44 1 13 41
M  V30 45 1 17 42
M  V30 46 1 18 43 CFG=3
M  V30 47 1 19 44
M  V30 48 1 19 45
M  V30 49 1 21 46
M  V30 50 1 21 47
M  V30 51 1 21 48
M  V30 52 1 22 49
M  V30 53 1 22 50
M  V30 54 1 22 51
M  V30 55 1 24 52
M  V30 56 1 25 53
M  V30 57 1 26 54
M  V30 58 1 27 55
M  V30 59 1 28 56
M  V30 60 1 30 57
M  V30 61 1 30 58
M  V30 62 1 30 59
M  V30 63 1 31 60
M  V30 64 1 31 61
M  V30 65 1 31 62
M  V30 END BOND
M  V30 END CTAB
M  END
>  <Dataset>  (56) 
ChEMBL_Kinases

>  <Ligand_Instance>  (56) 
nan

>  <PDB_ID>  (56) 
nan

>  <Standardized_SMILES>  (56) 
Cc1nccc(Nc2[nH]nc3c2CN(C(=O)N[C@H](CN(C)C)c2ccccc2)C3(C)C)n1

>  <Name>  (56) 
nan

>  <Pocket>  (56) 
nan

>  <ATP_Site>  (56) 
nan

>  <Peripheral>  (56) 
nan

>  <Num_H_Atoms_ProtBoundConf>  (56) 
nan

>  <Num_Resolved_Atoms>  (56) 
nan

>  <Num_Not_Resolved_Atoms>  (56) 
nan

$$$$
CHEMBL3669632
     RDKit          3D

  0  0  0  0  0  0  0  0  0  0999 V3000
M  V30 BEGIN CTAB
M  V30 COUNTS 66 70 0 0 0
M  V30 BEGIN ATOM
M  V30 1 C 1.126634 1.260844 6.445933 0
M  V30 2 N 1.446677 1.009654 5.041836 0
M  V30 3 C 1.707067 -0.417287 4.850833 0
M  V30 4 C 0.336354 1.425912 4.191451 0
M  V30 5 C 0.761810 1.270302 2.773438 0 CFG=1
M  V30 6 N -0.272974 1.638218 1.805417 0
M  V30 7 C -0.135174 0.930766 0.590990 0
M  V30 8 O 0.835067 0.089980 0.489581 0
M  V30 9 N -0.645336 0.714515 -0.712232 0
M  V30 10 C 0.051780 -0.254312 -1.534359 0
M  V30 11 C -1.092832 -0.938087 -2.221072 0
M  V30 12 C -2.149790 -0.059432 -2.240040 0
M  V30 13 N -3.122748 -0.742074 -2.866842 0
M  V30 14 N -2.702656 -1.946109 -3.208999 0
M  V30 15 C -1.424898 -2.153231 -2.837110 0
M  V30 16 N -0.484877 -3.218046 -2.932806 0
M  V30 17 C -0.835441 -4.048191 -1.833671 0
M  V30 18 N -0.879957 -3.698316 -0.536501 0
M  V30 19 C -1.239869 -4.591416 0.426253 0
M  V30 20 C -1.270878 -4.163656 1.794713 0
M  V30 21 N -1.304702 -3.797175 2.912565 0
M  V30 22 N -1.564709 -5.869926 0.085773 0
M  V30 23 C -1.532913 -6.264864 -1.211637 0
M  V30 24 C -1.864148 -7.552790 -1.529467 0
M  V30 25 C -1.827589 -7.947701 -2.871203 0
M  V30 26 C -1.463399 -7.058746 -3.864541 0
M  V30 27 C -1.130999 -5.763199 -3.541389 0
M  V30 28 C -1.165956 -5.359782 -2.201507 0
M  V30 29 C -1.707790 1.196335 -1.579684 0
M  V30 30 C -2.814700 1.897271 -0.874123 0
M  V30 31 C -1.099393 2.064033 -2.670477 0
M  V30 32 C 1.940826 2.209809 2.530172 0
M  V30 33 C 1.498968 3.529156 2.422980 0
M  V30 34 C 2.363666 4.584687 2.171646 0
M  V30 35 C 3.712859 4.284048 2.026895 0
M  V30 36 C 4.158632 2.972944 2.133420 0
M  V30 37 C 3.282608 1.948441 2.382138 0
M  V30 38 H 0.391827 2.057035 6.558663 0
M  V30 39 H 0.908410 0.304310 6.919053 0
M  V30 40 H 2.097178 1.623538 6.895550 0
M  V30 41 H 2.233723 -0.764247 5.757425 0
M  V30 42 H 2.404679 -0.550915 4.010134 0
M  V30 43 H 0.739945 -0.930349 4.698148 0
M  V30 44 H 0.028101 2.463344 4.444793 0
M  V30 45 H -0.486403 0.718307 4.411533 0
M  V30 46 H 1.180492 0.271783 2.608900 0
M  V30 47 H -1.101426 2.218822 1.621935 0
M  V30 48 H 0.682951 0.274964 -2.295299 0
M  V30 49 H 0.686553 -0.965071 -1.008762 0
M  V30 50 H -3.193378 -2.744130 -3.710898 0
M  V30 51 H 0.268320 -3.326618 -3.647636 0
M  V30 52 H -2.156359 -8.280542 -0.766350 0
M  V30 53 H -2.084345 -8.969530 -3.190577 0
M  V30 54 H -1.415169 -7.311675 -4.925771 0
M  V30 55 H -0.842914 -5.062499 -4.307856 0
M  V30 56 H -3.146358 1.351889 0.006458 0
M  V30 57 H -2.453521 2.895181 -0.573878 0
M  V30 58 H -3.631290 2.034223 -1.616451 0
M  V30 59 H -0.035601 2.293322 -2.403022 0
M  V30 60 H -1.141646 1.586409 -3.671084 0
M  V30 61 H -1.630325 3.035309 -2.645923 0
M  V30 62 H 0.468569 3.873418 2.521182 0
M  V30 63 H 2.087327 5.617022 2.077362 0
M  V30 64 H 4.520295 4.985834 1.825859 0
M  V30 65 H 5.195928 2.650658 2.031465 0
M  V30 66 H 3.491999 0.893331 2.483914 0
M  V30 END ATOM
M  V30 BEGIN BOND
M  V30 1 1 1 2
M  V30 2 1 2 3
M  V30 3 1 2 4
M  V30 4 1 4 5
M  V30 5 1 5 6
M  V30 6 1 6 7
M  V30 7 2 7 8
M  V30 8 1 7 9
M  V30 9 1 9 10
M  V30 10 1 10 11
M  V30 11 1 11 12
M  V30 12 2 12 13
M  V30 13 1 13 14
M  V30 14 1 14 15
M  V30 15 1 15 16
M  V30 16 1 16 17
M  V30 17 2 17 18
M  V30 18 1 18 19
M  V30 19 1 19 20
M  V30 20 3 20 21
M  V30 21 2 19 22
M  V30 22 1 22 23
M  V30 23 2 23 24
M  V30 24 1 24 25
M  V30 25 2 25 26
M  V30 26 1 26 27
M  V30 27 2 27 28
M  V30 28 1 12 29
M  V30 29 1 29 30
M  V30 30 1 29 31
M  V30 31 1 5 32
M  V30 32 2 32 33
M  V30 33 1 33 34
M  V30 34 2 34 35
M  V30 35 1 35 36
M  V30 36 2 36 37
M  V30 37 1 29 9
M  V30 38 1 37 32
M  V30 39 2 15 11
M  V30 40 1 28 17
M  V30 41 1 28 23
M  V30 42 1 1 38
M  V30 43 1 1 39
M  V30 44 1 1 40
M  V30 45 1 3 41
M  V30 46 1 3 42
M  V30 47 1 3 43
M  V30 48 1 4 44
M  V30 49 1 4 45
M  V30 50 1 5 46 CFG=1
M  V30 51 1 6 47
M  V30 52 1 10 48
M  V30 53 1 10 49
M  V30 54 1 14 50
M  V30 55 1 16 51
M  V30 56 1 24 52
M  V30 57 1 25 53
M  V30 58 1 26 54
M  V30 59 1 27 55
M  V30 60 1 30 56
M  V30 61 1 30 57
M  V30 62 1 30 58
M  V30 63 1 31 59
M  V30 64 1 31 60
M  V30 65 1 31 61
M  V30 66 1 33 62
M  V30 67 1 34 63
M  V30 68 1 35 64
M  V30 69 1 36 65
M  V30 70 1 37 66
M  V30 END BOND
M  V30 END CTAB
M  END
>  <Dataset>  (57) 
ChEMBL_Kinases

>  <Ligand_Instance>  (57) 
nan

>  <PDB_ID>  (57) 
nan

>  <Standardized_SMILES>  (57) 
CN(C)C[C@@H](NC(=O)N1Cc2c(n[nH]c2Nc2nc(C#N)nc3ccccc23)C1(C)C)c1ccccc1

>  <Name>  (57) 
nan

>  <Pocket>  (57) 
nan

>  <ATP_Site>  (57) 
nan

>  <Peripheral>  (57) 
nan

>  <Num_H_Atoms_ProtBoundConf>  (57) 
nan

>  <Num_Resolved_Atoms>  (57) 
nan

>  <Num_Not_Resolved_Atoms>  (57) 
nan

$$$$
CHEMBL3669631
     RDKit          3D

  0  0  0  0  0  0  0  0  0  0999 V3000
M  V30 BEGIN CTAB
M  V30 COUNTS 65 69 0 0 0
M  V30 BEGIN ATOM
M  V30 1 C -0.625272 0.896305 6.604869 0
M  V30 2 C -0.097890 1.798991 5.617969 0
M  V30 3 C 1.051822 1.857787 4.828170 0
M  V30 4 C 1.216642 2.911235 3.974169 0
M  V30 5 C 2.291198 3.109236 3.137303 0
M  V30 6 N 3.377595 2.229391 3.050897 0
M  V30 7 C 3.669415 1.117796 2.214853 0
M  V30 8 N 4.790790 0.384079 2.322347 0
M  V30 9 N 4.668462 -0.527867 1.373027 0
M  V30 10 C 3.543546 -0.411177 0.679495 0
M  V30 11 C 2.854484 0.660624 1.200311 0
M  V30 12 C 1.591343 0.823854 0.450744 0
M  V30 13 N 1.389121 -0.458783 -0.190325 0
M  V30 14 C 0.047735 -0.872947 -0.417411 0
M  V30 15 O -0.536585 0.148109 0.077899 0
M  V30 16 N -0.569877 -2.012807 -0.991288 0
M  V30 17 C -2.050238 -2.015271 -1.017103 0 CFG=2
M  V30 18 C -2.537596 -3.244080 -0.301786 0
M  V30 19 N -3.933010 -3.420936 -0.196428 0
M  V30 20 C -4.693329 -3.708216 -1.352500 0
M  V30 21 C -4.583159 -2.539808 0.740502 0
M  V30 22 C -2.412352 -2.115812 -2.461018 0
M  V30 23 C -3.377278 -1.415859 -3.170226 0
M  V30 24 C -3.570919 -1.623389 -4.513329 0
M  V30 25 C -2.801185 -2.537920 -5.176904 0
M  V30 26 C -1.832536 -3.269236 -4.562619 0
M  V30 27 C -1.654359 -3.039887 -3.194371 0
M  V30 28 C 2.730927 -0.955926 -0.418762 0
M  V30 29 C 2.710625 -2.446137 -0.342846 0
M  V30 30 C 3.312529 -0.431711 -1.708620 0
M  V30 31 N 2.298071 4.192376 2.367288 0
M  V30 32 C 1.379750 5.139255 2.293562 0
M  V30 33 N 0.320269 4.971821 3.099217 0
M  V30 34 C 0.218601 3.897686 3.924311 0
M  V30 35 S -1.031975 3.384395 5.101837 0
M  V30 36 H -0.930684 -0.069483 6.156287 0
M  V30 37 H 0.056600 0.692294 7.469424 0
M  V30 38 H -1.540463 1.335768 7.097040 0
M  V30 39 H 1.706488 1.020573 4.995524 0
M  V30 40 H 4.025617 2.560815 3.794273 0
M  V30 41 H 5.557462 0.535407 3.012180 0
M  V30 42 H 1.712413 1.549926 -0.404287 0
M  V30 43 H 0.768933 1.172040 1.071154 0
M  V30 44 H 0.185449 -2.653240 -1.294900 0
M  V30 45 H -2.402001 -1.085898 -0.574765 0
M  V30 46 H -2.122351 -3.222537 0.750744 0
M  V30 47 H -2.122666 -4.179625 -0.765523 0
M  V30 48 H -5.462392 -4.525394 -1.147457 0
M  V30 49 H -4.090418 -4.102731 -2.179453 0
M  V30 50 H -5.351292 -2.847010 -1.669574 0
M  V30 51 H -5.027182 -3.142535 1.554853 0
M  V30 52 H -3.874669 -1.790092 1.148569 0
M  V30 53 H -5.399871 -1.963543 0.247101 0
M  V30 54 H -3.920592 -0.720564 -2.533143 0
M  V30 55 H -4.350062 -1.024071 -4.969221 0
M  V30 56 H -3.006272 -2.648655 -6.222381 0
M  V30 57 H -1.214323 -3.996645 -5.069961 0
M  V30 58 H -0.867423 -3.645051 -2.722328 0
M  V30 59 H 3.680255 -2.749523 0.144911 0
M  V30 60 H 2.589846 -2.952849 -1.322413 0
M  V30 61 H 1.912982 -2.751821 0.364457 0
M  V30 62 H 2.477902 -0.319671 -2.429644 0
M  V30 63 H 4.050266 -1.146164 -2.078053 0
M  V30 64 H 3.722529 0.573538 -1.523496 0
M  V30 65 H 1.399486 6.013765 1.661639 0
M  V30 END ATOM
M  V30 BEGIN BOND
M  V30 1 1 1 2
M  V30 2 2 2 3
M  V30 3 1 3 4
M  V30 4 2 4 5
M  V30 5 1 5 6
M  V30 6 1 6 7
M  V30 7 1 7 8
M  V30 8 1 8 9
M  V30 9 2 9 10
M  V30 10 1 10 11
M  V30 11 1 11 12
M  V30 12 1 12 13
M  V30 13 1 13 14
M  V30 14 2 14 15
M  V30 15 1 14 16
M  V30 16 1 16 17
M  V30 17 1 17 18
M  V30 18 1 18 19
M  V30 19 1 19 20
M  V30 20 1 19 21
M  V30 21 1 17 22
M  V30 22 2 22 23
M  V30 23 1 23 24
M  V30 24 2 24 25
M  V30 25 1 25 26
M  V30 26 2 26 27
M  V30 27 1 13 28
M  V30 28 1 28 29
M  V30 29 1 28 30
M  V30 30 1 5 31
M  V30 31 2 31 32
M  V30 32 1 32 33
M  V30 33 2 33 34
M  V30 34 1 34 35
M  V30 35 1 35 2
M  V30 36 1 34 4
M  V30 37 2 11 7
M  V30 38 1 27 22
M  V30 39 1 28 10
M  V30 40 1 1 36
M  V30 41 1 1 37
M  V30 42 1 1 38
M  V30 43 1 3 39
M  V30 44 1 6 40
M  V30 45 1 8 41
M  V30 46 1 12 42
M  V30 47 1 12 43
M  V30 48 1 16 44
M  V30 49 1 17 45 CFG=1
M  V30 50 1 18 46
M  V30 51 1 18 47
M  V30 52 1 20 48
M  V30 53 1 20 49
M  V30 54 1 20 50
M  V30 55 1 21 51
M  V30 56 1 21 52
M  V30 57 1 21 53
M  V30 58 1 23 54
M  V30 59 1 24 55
M  V30 60 1 25 56
M  V30 61 1 26 57
M  V30 62 1 27 58
M  V30 63 1 29 59
M  V30 64 1 29 60
M  V30 65 1 29 61
M  V30 66 1 30 62
M  V30 67 1 30 63
M  V30 68 1 30 64
M  V30 69 1 32 65
M  V30 END BOND
M  V30 END CTAB
M  END
>  <Dataset>  (58) 
ChEMBL_Kinases

>  <Ligand_Instance>  (58) 
nan

>  <PDB_ID>  (58) 
nan

>  <Standardized_SMILES>  (58) 
Cc1cc2c(Nc3[nH]nc4c3CN(C(=O)N[C@H](CN(C)C)c3ccccc3)C4(C)C)ncnc2s1

>  <Name>  (58) 
nan

>  <Pocket>  (58) 
nan

>  <ATP_Site>  (58) 
nan

>  <Peripheral>  (58) 
nan

>  <Num_H_Atoms_ProtBoundConf>  (58) 
nan

>  <Num_Resolved_Atoms>  (58) 
nan

>  <Num_Not_Resolved_Atoms>  (58) 
nan

$$$$
CHEMBL3669630
     RDKit          3D

  0  0  0  0  0  0  0  0  0  0999 V3000
M  V30 BEGIN CTAB
M  V30 COUNTS 62 66 0 0 0
M  V30 BEGIN ATOM
M  V30 1 C 3.079913 -0.340488 2.575628 0
M  V30 2 N 3.011871 0.977986 3.118123 0
M  V30 3 C 4.068111 1.184860 4.084848 0
M  V30 4 C 2.999586 1.986615 2.125863 0
M  V30 5 C 1.762066 2.107358 1.286697 0 CFG=1
M  V30 6 N 1.396971 0.959445 0.528165 0
M  V30 7 C 1.434387 0.699851 -0.886523 0
M  V30 8 O 1.874443 1.678315 -1.565744 0
M  V30 9 N 0.983227 -0.594914 -1.340785 0
M  V30 10 C 0.465605 -1.762426 -0.610330 0
M  V30 11 C -0.632746 -2.156954 -1.536919 0
M  V30 12 C -0.342459 -1.693799 -2.802269 0
M  V30 13 N -1.369369 -2.082385 -3.584558 0
M  V30 14 N -2.251594 -2.755901 -2.826734 0
M  V30 15 C -1.839012 -2.828348 -1.551192 0
M  V30 16 N -2.557613 -3.474715 -0.522797 0
M  V30 17 C -3.799275 -4.147247 -0.634451 0
M  V30 18 N -4.426022 -4.231475 -1.787791 0
M  V30 19 C -5.573256 -4.812783 -2.060563 0
M  V30 20 N -6.171903 -5.391480 -1.017491 0
M  V30 21 C -5.583005 -5.347367 0.217361 0
M  V30 22 S -6.108105 -6.029320 1.880961 0
M  V30 23 C -4.650711 -5.411638 2.746797 0
M  V30 24 C -3.901578 -4.761736 1.761995 0
M  V30 25 C -4.356989 -4.718635 0.476082 0
M  V30 26 C 0.974427 -0.973803 -2.743063 0
M  V30 27 C 2.018409 -2.030530 -3.041901 0
M  V30 28 C 1.016641 0.177029 -3.685563 0
M  V30 29 C 0.642009 2.576730 2.162809 0
M  V30 30 C -0.128833 1.710313 2.923835 0
M  V30 31 C -1.155068 2.169753 3.724419 0
M  V30 32 C -1.438314 3.516117 3.784629 0
M  V30 33 C -0.694464 4.436935 3.039096 0
M  V30 34 C 0.316960 3.913533 2.259368 0
M  V30 35 H 3.312499 -0.285943 1.489025 0
M  V30 36 H 2.186384 -0.985463 2.802275 0
M  V30 37 H 3.938113 -0.886021 3.064662 0
M  V30 38 H 4.118200 2.237704 4.431021 0
M  V30 39 H 5.065534 0.963275 3.627418 0
M  V30 40 H 3.930012 0.523117 4.978489 0
M  V30 41 H 3.149249 2.999164 2.606312 0
M  V30 42 H 3.851379 1.864839 1.390731 0
M  V30 43 H 1.978207 2.940855 0.566525 0
M  V30 44 H 1.029383 0.196110 1.131125 0
M  V30 45 H 1.204670 -2.561178 -0.604922 0
M  V30 46 H 0.095242 -1.452268 0.383751 0
M  V30 47 H -3.082718 -3.096014 -3.352640 0
M  V30 48 H -2.069285 -3.421428 0.418855 0
M  V30 49 H -6.128513 -4.914611 -2.963958 0
M  V30 50 H -4.509165 -5.568662 3.763458 0
M  V30 51 H -2.981364 -4.327028 2.117582 0
M  V30 52 H 2.374206 -1.997808 -4.075723 0
M  V30 53 H 1.625285 -3.063566 -2.890551 0
M  V30 54 H 2.895456 -1.960825 -2.332988 0
M  V30 55 H 0.748803 -0.177396 -4.688599 0
M  V30 56 H 2.052113 0.573744 -3.685995 0
M  V30 57 H 0.256214 0.909730 -3.349018 0
M  V30 58 H 0.080981 0.647074 2.887679 0
M  V30 59 H -1.744898 1.479711 4.309897 0
M  V30 60 H -2.257025 3.874908 4.424977 0
M  V30 61 H -0.889943 5.488730 3.064694 0
M  V30 62 H 0.905488 4.628121 1.671624 0
M  V30 END ATOM
M  V30 BEGIN BOND
M  V30 1 1 1 2
M  V30 2 1 2 3
M  V30 3 1 2 4
M  V30 4 1 4 5
M  V30 5 1 5 6
M  V30 6 1 6 7
M  V30 7 2 7 8
M  V30 8 1 7 9
M  V30 9 1 9 10
M  V30 10 1 10 11
M  V30 11 1 11 12
M  V30 12 2 12 13
M  V30 13 1 13 14
M  V30 14 1 14 15
M  V30 15 1 15 16
M  V30 16 1 16 17
M  V30 17 2 17 18
M  V30 18 1 18 19
M  V30 19 2 19 20
M  V30 20 1 20 21
M  V30 21 1 21 22
M  V30 22 1 22 23
M  V30 23 2 23 24
M  V30 24 1 24 25
M  V30 25 1 12 26
M  V30 26 1 26 27
M  V30 27 1 26 28
M  V30 28 1 5 29
M  V30 29 2 29 30
M  V30 30 1 30 31
M  V30 31 2 31 32
M  V30 32 1 32 33
M  V30 33 2 33 34
M  V30 34 1 26 9
M  V30 35 1 34 29
M  V30 36 2 15 11
M  V30 37 1 25 17
M  V30 38 2 25 21
M  V30 39 1 1 35
M  V30 40 1 1 36
M  V30 41 1 1 37
M  V30 42 1 3 38
M  V30 43 1 3 39
M  V30 44 1 3 40
M  V30 45 1 4 41
M  V30 46 1 4 42
M  V30 47 1 5 43 CFG=3
M  V30 48 1 6 44
M  V30 49 1 10 45
M  V30 50 1 10 46
M  V30 51 1 14 47
M  V30 52 1 16 48
M  V30 53 1 19 49
M  V30 54 1 23 50
M  V30 55 1 24 51
M  V30 56 1 27 52
M  V30 57 1 27 53
M  V30 58 1 27 54
M  V30 59 1 28 55
M  V30 60 1 28 56
M  V30 61 1 28 57
M  V30 62 1 30 58
M  V30 63 1 31 59
M  V30 64 1 32 60
M  V30 65 1 33 61
M  V30 66 1 34 62
M  V30 END BOND
M  V30 END CTAB
M  END
>  <Dataset>  (59) 
ChEMBL_Kinases

>  <Ligand_Instance>  (59) 
nan

>  <PDB_ID>  (59) 
nan

>  <Standardized_SMILES>  (59) 
CN(C)C[C@@H](NC(=O)N1Cc2c(n[nH]c2Nc2ncnc3sccc23)C1(C)C)c1ccccc1

>  <Name>  (59) 
nan

>  <Pocket>  (59) 
nan

>  <ATP_Site>  (59) 
nan

>  <Peripheral>  (59) 
nan

>  <Num_H_Atoms_ProtBoundConf>  (59) 
nan

>  <Num_Resolved_Atoms>  (59) 
nan

>  <Num_Not_Resolved_Atoms>  (59) 
nan

$$$$
CHEMBL3669629
     RDKit          3D

  0  0  0  0  0  0  0  0  0  0999 V3000
M  V30 BEGIN CTAB
M  V30 COUNTS 60 63 0 0 0
M  V30 BEGIN ATOM
M  V30 1 C 0.756834 -2.975012 3.689443 0
M  V30 2 N 0.554465 -2.953295 2.247813 0
M  V30 3 C -0.084936 -4.235230 1.918819 0
M  V30 4 C 1.797515 -2.818214 1.553423 0
M  V30 5 C 1.649819 -2.784091 0.047542 0 CFG=1
M  V30 6 N 0.821578 -1.667275 -0.361853 0
M  V30 7 C -0.433559 -1.738234 -1.056702 0
M  V30 8 O -0.854267 -2.878108 -1.336970 0
M  V30 9 N -1.029667 -0.473277 -1.331676 0
M  V30 10 C -0.590301 0.888094 -1.031217 0
M  V30 11 C -1.852215 1.504479 -0.580959 0
M  V30 12 C -2.900832 0.829237 -1.175145 0
M  V30 13 N -4.036234 1.429034 -0.732748 0
M  V30 14 N -3.700746 2.419131 0.088796 0
M  V30 15 C -2.365874 2.517233 0.223964 0
M  V30 16 N -1.676332 3.469697 1.029031 0
M  V30 17 C -1.560848 2.802246 2.293241 0
M  V30 18 C -0.548760 1.978635 2.749252 0
M  V30 19 C -0.656329 1.447519 4.007234 0
M  V30 20 N -1.737876 1.724881 4.792961 0
M  V30 21 C -2.731496 2.540028 4.331403 0
M  V30 22 C -3.876330 2.825523 5.180281 0
M  V30 23 N -4.784176 3.036864 5.867345 0
M  V30 24 N -2.632954 3.074019 3.078691 0
M  V30 25 C -2.286001 -0.231615 -2.015221 0
M  V30 26 C -3.150275 -1.486215 -2.024456 0
M  V30 27 C -2.108636 0.310638 -3.395527 0
M  V30 28 C 2.984771 -2.717949 -0.601622 0
M  V30 29 C 3.696984 -1.525700 -0.662180 0
M  V30 30 C 4.931057 -1.551068 -1.283797 0
M  V30 31 C 5.488385 -2.694614 -1.844308 0
M  V30 32 C 4.768597 -3.889837 -1.780733 0
M  V30 33 C 3.547606 -3.847080 -1.161305 0
M  V30 34 H -0.207941 -2.745160 4.169088 0
M  V30 35 H 1.090129 -3.963326 4.035902 0
M  V30 36 H 1.458376 -2.149247 3.982363 0
M  V30 37 H 0.675143 -5.031307 1.755991 0
M  V30 38 H -0.813676 -4.140715 1.102679 0
M  V30 39 H -0.688475 -4.566931 2.812378 0
M  V30 40 H 2.332602 -1.940987 1.938554 0
M  V30 41 H 2.411846 -3.712370 1.814206 0
M  V30 42 H 1.144285 -3.715858 -0.259900 0
M  V30 43 H 1.260041 -0.774619 -0.082116 0
M  V30 44 H -0.155377 1.388166 -1.912818 0
M  V30 45 H 0.148274 0.949868 -0.230604 0
M  V30 46 H -4.366978 3.066761 0.589436 0
M  V30 47 H -1.302665 4.430793 0.858003 0
M  V30 48 H 0.231336 1.848725 2.034616 0
M  V30 49 H 0.153036 0.809234 4.329143 0
M  V30 50 H -4.193719 -1.253039 -2.302895 0
M  V30 51 H -2.706655 -2.274501 -2.629038 0
M  V30 52 H -3.163357 -1.842516 -0.960305 0
M  V30 53 H -2.972489 0.031724 -4.051034 0
M  V30 54 H -2.095982 1.419741 -3.362863 0
M  V30 55 H -1.140168 -0.000092 -3.843962 0
M  V30 56 H 3.293681 -0.622343 -0.237778 0
M  V30 57 H 5.537843 -0.650740 -1.363710 0
M  V30 58 H 6.467304 -2.653616 -2.322310 0
M  V30 59 H 5.162809 -4.805831 -2.203537 0
M  V30 60 H 2.998485 -4.777221 -1.117441 0
M  V30 END ATOM
M  V30 BEGIN BOND
M  V30 1 1 1 2
M  V30 2 1 2 3
M  V30 3 1 2 4
M  V30 4 1 4 5
M  V30 5 1 5 6
M  V30 6 1 6 7
M  V30 7 2 7 8
M  V30 8 1 7 9
M  V30 9 1 9 10
M  V30 10 1 10 11
M  V30 11 1 11 12
M  V30 12 2 12 13
M  V30 13 1 13 14
M  V30 14 1 14 15
M  V30 15 1 15 16
M  V30 16 1 16 17
M  V30 17 2 17 18
M  V30 18 1 18 19
M  V30 19 2 19 20
M  V30 20 1 20 21
M  V30 21 1 21 22
M  V30 22 3 22 23
M  V30 23 2 21 24
M  V30 24 1 12 25
M  V30 25 1 25 26
M  V30 26 1 25 27
M  V30 27 1 5 28
M  V30 28 2 28 29
M  V30 29 1 29 30
M  V30 30 2 30 31
M  V30 31 1 31 32
M  V30 32 2 32 33
M  V30 33 1 25 9
M  V30 34 1 33 28
M  V30 35 2 15 11
M  V30 36 1 24 17
M  V30 37 1 1 34
M  V30 38 1 1 35
M  V30 39 1 1 36
M  V30 40 1 3 37
M  V30 41 1 3 38
M  V30 42 1 3 39
M  V30 43 1 4 40
M  V30 44 1 4 41
M  V30 45 1 5 42 CFG=3
M  V30 46 1 6 43
M  V30 47 1 10 44
M  V30 48 1 10 45
M  V30 49 1 14 46
M  V30 50 1 16 47
M  V30 51 1 18 48
M  V30 52 1 19 49
M  V30 53 1 26 50
M  V30 54 1 26 51
M  V30 55 1 26 52
M  V30 56 1 27 53
M  V30 57 1 27 54
M  V30 58 1 27 55
M  V30 59 1 29 56
M  V30 60 1 30 57
M  V30 61 1 31 58
M  V30 62 1 32 59
M  V30 63 1 33 60
M  V30 END BOND
M  V30 END CTAB
M  END
>  <Dataset>  (60) 
ChEMBL_Kinases

>  <Ligand_Instance>  (60) 
nan

>  <PDB_ID>  (60) 
nan

>  <Standardized_SMILES>  (60) 
CN(C)C[C@@H](NC(=O)N1Cc2c(n[nH]c2Nc2ccnc(C#N)n2)C1(C)C)c1ccccc1

>  <Name>  (60) 
nan

>  <Pocket>  (60) 
nan

>  <ATP_Site>  (60) 
nan

>  <Peripheral>  (60) 
nan

>  <Num_H_Atoms_ProtBoundConf>  (60) 
nan

>  <Num_Resolved_Atoms>  (60) 
nan

>  <Num_Not_Resolved_Atoms>  (60) 
nan

$$$$
CHEMBL3669628
     RDKit          3D

  0  0  0  0  0  0  0  0  0  0999 V3000
M  V30 BEGIN CTAB
M  V30 COUNTS 66 69 0 0 0
M  V30 BEGIN ATOM
M  V30 1 C 4.693291 -1.753705 2.919450 0
M  V30 2 C 4.858660 -1.084643 1.558648 0
M  V30 3 O 3.884056 -0.105533 1.388185 0
M  V30 4 C 3.738431 0.701923 0.266902 0
M  V30 5 N 4.558551 0.604559 -0.794439 0
M  V30 6 C 4.453095 1.357695 -1.884806 0
M  V30 7 C 3.414851 2.282716 -1.869358 0
M  V30 8 F 3.215538 3.099398 -2.924594 0
M  V30 9 C 2.536442 2.430150 -0.803928 0
M  V30 10 N 1.495260 3.395273 -0.844176 0
M  V30 11 C 0.617485 3.470294 0.298577 0
M  V30 12 N 0.666666 4.168309 1.449414 0
M  V30 13 N -0.416206 3.857846 2.158262 0
M  V30 14 C -1.157745 2.963842 1.464810 0
M  V30 15 C -0.537356 2.680797 0.261298 0
M  V30 16 C -1.450376 1.694410 -0.397715 0
M  V30 17 N -1.974493 0.988567 0.763747 0
M  V30 18 C -2.077863 -0.381201 1.147698 0
M  V30 19 O -2.611861 -0.618407 2.287463 0
M  V30 20 N -1.624347 -1.460849 0.337357 0
M  V30 21 C -1.780428 -2.820016 0.833136 0 CFG=2
M  V30 22 C -0.495580 -3.468851 1.096543 0
M  V30 23 N 0.460671 -3.683325 0.117020 0
M  V30 24 C 1.627876 -4.336859 0.669867 0
M  V30 25 C 0.848281 -2.681431 -0.785657 0
M  V30 26 C -2.757875 -3.582077 0.034141 0
M  V30 27 C -2.471932 -4.873224 -0.343625 0
M  V30 28 C -3.387982 -5.593522 -1.096951 0
M  V30 29 C -4.583732 -4.988244 -1.455547 0
M  V30 30 C -4.826615 -3.691256 -1.053899 0
M  V30 31 C -3.940174 -2.943227 -0.304193 0
M  V30 32 C -2.411987 2.154570 1.505383 0
M  V30 33 C -3.470269 2.949961 0.787843 0
M  V30 34 C -2.792078 1.853251 2.933301 0
M  V30 35 N 2.744187 1.611087 0.243456 0
M  V30 36 H 4.781542 -0.978819 3.707521 0
M  V30 37 H 5.453582 -2.551340 3.054827 0
M  V30 38 H 3.678762 -2.243911 2.915481 0
M  V30 39 H 5.888380 -0.700303 1.459403 0
M  V30 40 H 4.686682 -1.872356 0.776011 0
M  V30 41 H 5.128007 1.269587 -2.744237 0
M  V30 42 H 1.409463 3.995977 -1.678327 0
M  V30 43 H 1.472715 4.819127 1.649389 0
M  V30 44 H -2.224967 2.178538 -0.999482 0
M  V30 45 H -0.834961 1.058560 -1.055750 0
M  V30 46 H -1.224020 -1.109126 -0.553599 0
M  V30 47 H -2.266037 -2.727186 1.830124 0
M  V30 48 H -0.692880 -4.451102 1.610874 0
M  V30 49 H -0.008601 -2.864869 1.924760 0
M  V30 50 H 2.519280 -3.666285 0.498227 0
M  V30 51 H 1.564653 -4.563546 1.740428 0
M  V30 52 H 1.857035 -5.269800 0.073644 0
M  V30 53 H 0.155433 -2.685845 -1.677677 0
M  V30 54 H 1.820501 -3.036003 -1.256589 0
M  V30 55 H 1.081305 -1.689202 -0.398796 0
M  V30 56 H -1.535799 -5.304668 -0.045435 0
M  V30 57 H -3.079224 -6.601330 -1.347656 0
M  V30 58 H -5.258395 -5.596186 -2.043688 0
M  V30 59 H -5.786402 -3.283830 -1.374035 0
M  V30 60 H -4.184348 -1.921325 -0.014038 0
M  V30 61 H -4.179191 2.313479 0.211838 0
M  V30 62 H -4.109549 3.388607 1.603492 0
M  V30 63 H -3.058448 3.800854 0.247067 0
M  V30 64 H -2.846678 2.838619 3.463387 0
M  V30 65 H -1.938223 1.325733 3.383644 0
M  V30 66 H -3.757276 1.355374 2.992816 0
M  V30 END ATOM
M  V30 BEGIN BOND
M  V30 1 1 1 2
M  V30 2 1 2 3
M  V30 3 1 3 4
M  V30 4 2 4 5
M  V30 5 1 5 6
M  V30 6 2 6 7
M  V30 7 1 7 8
M  V30 8 1 7 9
M  V30 9 1 9 10
M  V30 10 1 10 11
M  V30 11 1 11 12
M  V30 12 1 12 13
M  V30 13 2 13 14
M  V30 14 1 14 15
M  V30 15 1 15 16
M  V30 16 1 16 17
M  V30 17 1 17 18
M  V30 18 2 18 19
M  V30 19 1 18 20
M  V30 20 1 20 21
M  V30 21 1 21 22
M  V30 22 1 22 23
M  V30 23 1 23 24
M  V30 24 1 23 25
M  V30 25 1 21 26
M  V30 26 2 26 27
M  V30 27 1 27 28
M  V30 28 2 28 29
M  V30 29 1 29 30
M  V30 30 2 30 31
M  V30 31 1 17 32
M  V30 32 1 32 33
M  V30 33 1 32 34
M  V30 34 2 9 35
M  V30 35 1 35 4
M  V30 36 2 15 11
M  V30 37 1 31 26
M  V30 38 1 32 14
M  V30 39 1 1 36
M  V30 40 1 1 37
M  V30 41 1 1 38
M  V30 42 1 2 39
M  V30 43 1 2 40
M  V30 44 1 6 41
M  V30 45 1 10 42
M  V30 46 1 12 43
M  V30 47 1 16 44
M  V30 48 1 16 45
M  V30 49 1 20 46
M  V30 50 1 21 47 CFG=1
M  V30 51 1 22 48
M  V30 52 1 22 49
M  V30 53 1 24 50
M  V30 54 1 24 51
M  V30 55 1 24 52
M  V30 56 1 25 53
M  V30 57 1 25 54
M  V30 58 1 25 55
M  V30 59 1 27 56
M  V30 60 1 28 57
M  V30 61 1 29 58
M  V30 62 1 30 59
M  V30 63 1 31 60
M  V30 64 1 33 61
M  V30 65 1 33 62
M  V30 66 1 33 63
M  V30 67 1 34 64
M  V30 68 1 34 65
M  V30 69 1 34 66
M  V30 END BOND
M  V30 END CTAB
M  END
>  <Dataset>  (61) 
ChEMBL_Kinases

>  <Ligand_Instance>  (61) 
nan

>  <PDB_ID>  (61) 
nan

>  <Standardized_SMILES>  (61) 
CCOc1ncc(F)c(Nc2[nH]nc3c2CN(C(=O)N[C@H](CN(C)C)c2ccccc2)C3(C)C)n1

>  <Name>  (61) 
nan

>  <Pocket>  (61) 
nan

>  <ATP_Site>  (61) 
nan

>  <Peripheral>  (61) 
nan

>  <Num_H_Atoms_ProtBoundConf>  (61) 
nan

>  <Num_Resolved_Atoms>  (61) 
nan

>  <Num_Not_Resolved_Atoms>  (61) 
nan

$$$$
CHEMBL3669627
     RDKit          3D

  0  0  0  0  0  0  0  0  0  0999 V3000
M  V30 BEGIN CTAB
M  V30 COUNTS 65 69 0 0 0
M  V30 BEGIN ATOM
M  V30 1 C 1.444850 -1.739835 5.263629 0
M  V30 2 N 1.923110 -1.083400 4.040371 0
M  V30 3 C 3.355931 -1.091469 4.122244 0
M  V30 4 C 1.361441 0.237101 3.975670 0
M  V30 5 C 1.833426 0.939899 2.724453 0 CFG=1
M  V30 6 N 1.410884 0.184412 1.589739 0
M  V30 7 C 2.187390 -0.427996 0.540896 0
M  V30 8 O 3.440882 -0.313818 0.575425 0
M  V30 9 N 1.367564 -1.099283 -0.416298 0
M  V30 10 C -0.064191 -1.320627 -0.598874 0
M  V30 11 C -0.205473 -0.842891 -2.004310 0
M  V30 12 C 0.988358 -1.158416 -2.623561 0
M  V30 13 N 0.909884 -0.740089 -3.917258 0
M  V30 14 N -0.273898 -0.183388 -4.121480 0
M  V30 15 C -0.991290 -0.222246 -2.982622 0
M  V30 16 N -2.303540 0.217164 -2.614025 0
M  V30 17 C -3.398291 -0.668573 -2.772133 0
M  V30 18 N -4.044259 -0.622915 -3.949967 0
M  V30 19 C -5.100199 -1.452663 -4.150984 0
M  V30 20 N -5.548527 -2.336198 -3.223452 0
M  V30 21 C -4.917234 -2.401950 -2.032140 0
M  V30 22 C -3.840040 -1.562758 -1.813199 0
M  V30 23 N -3.365907 -1.789758 -0.580074 0
M  V30 24 C -4.122712 -2.752136 -0.023588 0
M  V30 25 N -5.048468 -3.110328 -0.903648 0
M  V30 26 C -6.043315 -4.119650 -0.659511 0
M  V30 27 C 1.836875 -1.819232 -1.596509 0
M  V30 28 C 1.457701 -3.268297 -1.543635 0
M  V30 29 C 3.300054 -1.665559 -1.865117 0
M  V30 30 C 1.344675 2.352130 2.681712 0
M  V30 31 C 0.039037 2.662884 2.345703 0
M  V30 32 C -0.383954 3.981113 2.314668 0
M  V30 33 C 0.462644 5.028249 2.612345 0
M  V30 34 C 1.743549 4.715492 2.941477 0
M  V30 35 C 2.185813 3.429693 2.979848 0
M  V30 36 H 1.323528 -2.817581 5.119970 0
M  V30 37 H 2.106200 -1.480303 6.113733 0
M  V30 38 H 0.432198 -1.302564 5.495074 0
M  V30 39 H 3.669791 -2.032095 4.655570 0
M  V30 40 H 3.886239 -1.121860 3.164057 0
M  V30 41 H 3.741395 -0.213004 4.708763 0
M  V30 42 H 1.713671 0.778768 4.890850 0
M  V30 43 H 0.271072 0.189161 3.919692 0
M  V30 44 H 2.941451 1.009123 2.716191 0
M  V30 45 H 0.359330 0.145809 1.650479 0
M  V30 46 H -0.306603 -2.401273 -0.632255 0
M  V30 47 H -0.689395 -0.750924 0.101140 0
M  V30 48 H -0.751473 0.261509 -4.943218 0
M  V30 49 H -2.499181 1.172182 -2.228460 0
M  V30 50 H -5.599026 -1.394692 -5.104042 0
M  V30 51 H -3.989281 -3.152744 0.964950 0
M  V30 52 H -6.584713 -3.963625 0.305126 0
M  V30 53 H -6.810717 -4.130185 -1.473709 0
M  V30 54 H -5.627025 -5.156481 -0.611316 0
M  V30 55 H 0.541549 -3.493224 -2.154635 0
M  V30 56 H 1.359584 -3.659729 -0.493218 0
M  V30 57 H 2.285397 -3.877764 -1.986825 0
M  V30 58 H 3.886641 -2.416358 -1.297278 0
M  V30 59 H 3.664463 -0.635203 -1.785699 0
M  V30 60 H 3.435480 -1.961703 -2.948187 0
M  V30 61 H -0.667419 1.889330 2.103799 0
M  V30 62 H -1.419500 4.211127 2.047155 0
M  V30 63 H 0.075209 6.041088 2.571482 0
M  V30 64 H 2.424816 5.527668 3.179141 0
M  V30 65 H 3.202487 3.173082 3.240664 0
M  V30 END ATOM
M  V30 BEGIN BOND
M  V30 1 1 1 2
M  V30 2 1 2 3
M  V30 3 1 2 4
M  V30 4 1 4 5
M  V30 5 1 5 6
M  V30 6 1 6 7
M  V30 7 2 7 8
M  V30 8 1 7 9
M  V30 9 1 9 10
M  V30 10 1 10 11
M  V30 11 1 11 12
M  V30 12 2 12 13
M  V30 13 1 13 14
M  V30 14 1 14 15
M  V30 15 1 15 16
M  V30 16 1 16 17
M  V30 17 2 17 18
M  V30 18 1 18 19
M  V30 19 2 19 20
M  V30 20 1 20 21
M  V30 21 2 21 22
M  V30 22 1 22 23
M  V30 23 2 23 24
M  V30 24 1 24 25
M  V30 25 1 25 26
M  V30 26 1 12 27
M  V30 27 1 27 28
M  V30 28 1 27 29
M  V30 29 1 5 30
M  V30 30 2 30 31
M  V30 31 1 31 32
M  V30 32 2 32 33
M  V30 33 1 33 34
M  V30 34 2 34 35
M  V30 35 1 27 9
M  V30 36 1 35 30
M  V30 37 2 15 11
M  V30 38 1 22 17
M  V30 39 1 25 21
M  V30 40 1 1 36
M  V30 41 1 1 37
M  V30 42 1 1 38
M  V30 43 1 3 39
M  V30 44 1 3 40
M  V30 45 1 3 41
M  V30 46 1 4 42
M  V30 47 1 4 43
M  V30 48 1 5 44 CFG=1
M  V30 49 1 6 45
M  V30 50 1 10 46
M  V30 51 1 10 47
M  V30 52 1 14 48
M  V30 53 1 16 49
M  V30 54 1 19 50
M  V30 55 1 24 51
M  V30 56 1 26 52
M  V30 57 1 26 53
M  V30 58 1 26 54
M  V30 59 1 28 55
M  V30 60 1 28 56
M  V30 61 1 28 57
M  V30 62 1 29 58
M  V30 63 1 29 59
M  V30 64 1 29 60
M  V30 65 1 31 61
M  V30 66 1 32 62
M  V30 67 1 33 63
M  V30 68 1 34 64
M  V30 69 1 35 65
M  V30 END BOND
M  V30 END CTAB
M  END
>  <Dataset>  (62) 
ChEMBL_Kinases

>  <Ligand_Instance>  (62) 
nan

>  <PDB_ID>  (62) 
nan

>  <Standardized_SMILES>  (62) 
CN(C)C[C@@H](NC(=O)N1Cc2c(n[nH]c2Nc2ncnc3c2ncn3C)C1(C)C)c1ccccc1

>  <Name>  (62) 
nan

>  <Pocket>  (62) 
nan

>  <ATP_Site>  (62) 
nan

>  <Peripheral>  (62) 
nan

>  <Num_H_Atoms_ProtBoundConf>  (62) 
nan

>  <Num_Resolved_Atoms>  (62) 
nan

>  <Num_Not_Resolved_Atoms>  (62) 
nan

$$$$
CHEMBL3669626
     RDKit          3D

  0  0  0  0  0  0  0  0  0  0999 V3000
M  V30 BEGIN CTAB
M  V30 COUNTS 62 65 0 0 0
M  V30 BEGIN ATOM
M  V30 1 C -1.352976 1.536392 4.718730 0
M  V30 2 C -0.138942 2.106405 4.049564 0
M  V30 3 N -0.184210 3.392864 3.635009 0
M  V30 4 C 0.907330 3.906979 3.032795 0
M  V30 5 N 2.049576 3.201511 2.820512 0
M  V30 6 C 2.092883 1.913969 3.236162 0
M  V30 7 N 3.270349 1.170129 3.023351 0
M  V30 8 C 3.682667 0.348855 1.938656 0
M  V30 9 N 4.865507 -0.289818 1.912930 0
M  V30 10 N 4.875124 -0.935400 0.763401 0
M  V30 11 C 3.756808 -0.739919 0.054988 0
M  V30 12 C 2.950368 0.098990 0.796543 0
M  V30 13 C 1.694166 0.337585 0.035685 0
M  V30 14 N 1.667341 -0.866946 -0.814277 0
M  V30 15 C 0.600413 -1.742203 -1.242531 0
M  V30 16 O 0.790529 -2.735246 -1.982391 0
M  V30 17 N -0.723318 -1.434892 -0.784192 0
M  V30 18 C -1.861958 -2.250865 -1.156896 0 CFG=2
M  V30 19 C -2.803485 -1.566376 -2.074686 0
M  V30 20 N -3.398114 -0.361184 -1.675848 0
M  V30 21 C -4.336226 -0.340310 -0.621214 0
M  V30 22 C -3.973328 0.284487 -2.841020 0
M  V30 23 C -2.452411 -3.025340 -0.054525 0
M  V30 24 C -3.726267 -3.439849 0.268451 0
M  V30 25 C -3.996250 -4.150149 1.404928 0
M  V30 26 C -3.027262 -4.500852 2.300591 0
M  V30 27 C -1.738922 -4.104541 2.011678 0
M  V30 28 C -1.449044 -3.381634 0.860185 0
M  V30 29 C 3.050935 -1.073628 -1.211437 0
M  V30 30 C 3.491347 -0.067744 -2.239521 0
M  V30 31 C 3.318171 -2.493033 -1.645119 0
M  V30 32 C 0.990320 1.359912 3.856168 0
M  V30 33 F 1.025235 0.059728 4.279402 0
M  V30 34 H -1.066592 0.631752 5.287341 0
M  V30 35 H -1.791170 2.316783 5.383952 0
M  V30 36 H -2.129204 1.281560 3.978402 0
M  V30 37 H 0.873397 4.946162 2.696464 0
M  V30 38 H 3.835581 1.335373 3.861529 0
M  V30 39 H 5.643594 -0.310898 2.612366 0
M  V30 40 H 1.825546 1.241316 -0.573557 0
M  V30 41 H 0.808890 0.368123 0.700638 0
M  V30 42 H -0.958055 -0.615552 -0.159898 0
M  V30 43 H -1.386143 -3.051961 -1.817490 0
M  V30 44 H -2.312504 -1.436524 -3.061934 0
M  V30 45 H -3.638861 -2.301967 -2.280617 0
M  V30 46 H -5.266639 -0.916308 -0.797972 0
M  V30 47 H -3.886977 -0.544956 0.390616 0
M  V30 48 H -4.677665 0.732834 -0.520776 0
M  V30 49 H -4.910485 0.829501 -2.622508 0
M  V30 50 H -4.245662 -0.479838 -3.605407 0
M  V30 51 H -3.277837 1.045808 -3.279233 0
M  V30 52 H -4.432098 -3.142619 -0.487532 0
M  V30 53 H -5.052923 -4.403643 1.518033 0
M  V30 54 H -3.388456 -5.056175 3.143534 0
M  V30 55 H -0.992818 -4.401949 2.747999 0
M  V30 56 H -0.385650 -3.158685 0.800183 0
M  V30 57 H 3.970278 -0.595308 -3.090480 0
M  V30 58 H 2.639192 0.516283 -2.672618 0
M  V30 59 H 4.250909 0.650356 -1.872097 0
M  V30 60 H 4.395738 -2.715994 -1.612437 0
M  V30 61 H 2.828820 -3.186329 -0.941208 0
M  V30 62 H 3.010256 -2.617262 -2.697658 0
M  V30 END ATOM
M  V30 BEGIN BOND
M  V30 1 1 1 2
M  V30 2 2 2 3
M  V30 3 1 3 4
M  V30 4 2 4 5
M  V30 5 1 5 6
M  V30 6 1 6 7
M  V30 7 1 7 8
M  V30 8 1 8 9
M  V30 9 1 9 10
M  V30 10 2 10 11
M  V30 11 1 11 12
M  V30 12 1 12 13
M  V30 13 1 13 14
M  V30 14 1 14 15
M  V30 15 2 15 16
M  V30 16 1 15 17
M  V30 17 1 17 18
M  V30 18 1 18 19
M  V30 19 1 19 20
M  V30 20 1 20 21
M  V30 21 1 20 22
M  V30 22 1 18 23
M  V30 23 2 23 24
M  V30 24 1 24 25
M  V30 25 2 25 26
M  V30 26 1 26 27
M  V30 27 2 27 28
M  V30 28 1 14 29
M  V30 29 1 29 30
M  V30 30 1 29 31
M  V30 31 2 6 32
M  V30 32 1 32 33
M  V30 33 1 32 2
M  V30 34 2 12 8
M  V30 35 1 28 23
M  V30 36 1 29 11
M  V30 37 1 1 34
M  V30 38 1 1 35
M  V30 39 1 1 36
M  V30 40 1 4 37
M  V30 41 1 7 38
M  V30 42 1 9 39
M  V30 43 1 13 40
M  V30 44 1 13 41
M  V30 45 1 17 42
M  V30 46 1 18 43 CFG=3
M  V30 47 1 19 44
M  V30 48 1 19 45
M  V30 49 1 21 46
M  V30 50 1 21 47
M  V30 51 1 21 48
M  V30 52 1 22 49
M  V30 53 1 22 50
M  V30 54 1 22 51
M  V30 55 1 24 52
M  V30 56 1 25 53
M  V30 57 1 26 54
M  V30 58 1 27 55
M  V30 59 1 28 56
M  V30 60 1 30 57
M  V30 61 1 30 58
M  V30 62 1 30 59
M  V30 63 1 31 60
M  V30 64 1 31 61
M  V30 65 1 31 62
M  V30 END BOND
M  V30 END CTAB
M  END
>  <Dataset>  (63) 
ChEMBL_Kinases

>  <Ligand_Instance>  (63) 
nan

>  <PDB_ID>  (63) 
nan

>  <Standardized_SMILES>  (63) 
Cc1ncnc(Nc2[nH]nc3c2CN(C(=O)N[C@H](CN(C)C)c2ccccc2)C3(C)C)c1F

>  <Name>  (63) 
nan

>  <Pocket>  (63) 
nan

>  <ATP_Site>  (63) 
nan

>  <Peripheral>  (63) 
nan

>  <Num_H_Atoms_ProtBoundConf>  (63) 
nan

>  <Num_Resolved_Atoms>  (63) 
nan

>  <Num_Not_Resolved_Atoms>  (63) 
nan

$$$$
CHEMBL3669624
     RDKit          3D

  0  0  0  0  0  0  0  0  0  0999 V3000
M  V30 BEGIN CTAB
M  V30 COUNTS 65 68 0 0 0
M  V30 BEGIN ATOM
M  V30 1 C 1.437412 -1.197734 4.485021 0
M  V30 2 C 0.772180 -0.176399 5.373674 0
M  V30 3 C 1.111595 1.216582 5.064537 0
M  V30 4 C 1.961626 1.587903 4.027383 0
M  V30 5 C 2.292862 2.895022 3.711264 0
M  V30 6 N 3.173818 3.199241 2.611487 0
M  V30 7 C 3.598522 1.988967 1.937675 0
M  V30 8 N 4.668195 1.172924 1.909123 0
M  V30 9 N 4.413841 0.174690 1.081228 0
M  V30 10 C 3.196524 0.296477 0.548655 0
M  V30 11 C 2.646806 1.436451 1.065041 0
M  V30 12 C 1.283779 1.637620 0.497182 0
M  V30 13 N 1.011290 0.406117 -0.203325 0
M  V30 14 C -0.371555 0.349191 -0.515598 0
M  V30 15 O -1.039485 1.350598 -0.192979 0
M  V30 16 N -0.963965 -0.766785 -1.149105 0
M  V30 17 C -2.367272 -1.008405 -1.555549 0 CFG=2
M  V30 18 C -3.046087 -1.643271 -0.351528 0
M  V30 19 N -4.401279 -1.958620 -0.457098 0
M  V30 20 C -4.855867 -3.011051 -1.274003 0
M  V30 21 C -5.344339 -0.870713 -0.308891 0
M  V30 22 C -2.347180 -1.956927 -2.673350 0
M  V30 23 C -2.916633 -1.959462 -3.925585 0
M  V30 24 C -2.707990 -3.012500 -4.776500 0
M  V30 25 C -1.951583 -4.093430 -4.457505 0
M  V30 26 C -1.349007 -4.145902 -3.197808 0
M  V30 27 C -1.560691 -3.068953 -2.324018 0
M  V30 28 C 2.222543 -0.366177 -0.382344 0
M  V30 29 C 1.964544 -1.781537 0.050503 0
M  V30 30 C 2.811113 -0.272536 -1.760173 0
M  V30 31 N 1.741017 3.849667 4.475357 0
M  V30 32 C 0.908793 3.524847 5.491426 0
M  V30 33 N 0.608836 2.264969 5.772952 0
M  V30 34 H 1.353769 -1.015637 3.414369 0
M  V30 35 H 2.491471 -1.385386 4.820364 0
M  V30 36 H 0.901348 -2.174328 4.662615 0
M  V30 37 H 0.922195 -0.467826 6.417154 0
M  V30 38 H -0.333171 -0.311579 5.190113 0
M  V30 39 H 2.351806 0.749774 3.478535 0
M  V30 40 H 3.419952 4.169378 2.393220 0
M  V30 41 H 5.467968 1.463777 2.519927 0
M  V30 42 H 0.578050 1.860185 1.331340 0
M  V30 43 H 1.211491 2.465054 -0.222573 0
M  V30 44 H -0.274025 -1.499921 -1.349747 0
M  V30 45 H -2.914027 -0.090625 -1.765591 0
M  V30 46 H -2.499066 -2.594022 -0.073597 0
M  V30 47 H -2.842990 -0.972109 0.512820 0
M  V30 48 H -4.097994 -3.822662 -1.327985 0
M  V30 49 H -5.779848 -3.432667 -0.747850 0
M  V30 50 H -5.126592 -2.700718 -2.284728 0
M  V30 51 H -5.973443 -1.110021 0.599809 0
M  V30 52 H -4.816210 0.066522 -0.129884 0
M  V30 53 H -5.986928 -0.831089 -1.204839 0
M  V30 54 H -3.500644 -1.053865 -4.076980 0
M  V30 55 H -3.194409 -2.929124 -5.735147 0
M  V30 56 H -1.813933 -4.907855 -5.172425 0
M  V30 57 H -0.753731 -5.019247 -2.985679 0
M  V30 58 H -1.018187 -3.306111 -1.387873 0
M  V30 59 H 2.839942 -2.087277 0.673250 0
M  V30 60 H 1.855678 -2.407427 -0.847352 0
M  V30 61 H 1.023901 -1.812718 0.626611 0
M  V30 62 H 1.998537 -0.078538 -2.485273 0
M  V30 63 H 3.217430 -1.279779 -2.069744 0
M  V30 64 H 3.551664 0.538839 -1.877690 0
M  V30 65 H 0.456569 4.308333 6.112472 0
M  V30 END ATOM
M  V30 BEGIN BOND
M  V30 1 1 1 2
M  V30 2 1 2 3
M  V30 3 2 3 4
M  V30 4 1 4 5
M  V30 5 1 5 6
M  V30 6 1 6 7
M  V30 7 1 7 8
M  V30 8 1 8 9
M  V30 9 2 9 10
M  V30 10 1 10 11
M  V30 11 1 11 12
M  V30 12 1 12 13
M  V30 13 1 13 14
M  V30 14 2 14 15
M  V30 15 1 14 16
M  V30 16 1 16 17
M  V30 17 1 17 18
M  V30 18 1 18 19
M  V30 19 1 19 20
M  V30 20 1 19 21
M  V30 21 1 17 22
M  V30 22 2 22 23
M  V30 23 1 23 24
M  V30 24 2 24 25
M  V30 25 1 25 26
M  V30 26 2 26 27
M  V30 27 1 13 28
M  V30 28 1 28 29
M  V30 29 1 28 30
M  V30 30 2 5 31
M  V30 31 1 31 32
M  V30 32 2 32 33
M  V30 33 1 33 3
M  V30 34 2 11 7
M  V30 35 1 27 22
M  V30 36 1 28 10
M  V30 37 1 1 34
M  V30 38 1 1 35
M  V30 39 1 1 36
M  V30 40 1 2 37
M  V30 41 1 2 38
M  V30 42 1 4 39
M  V30 43 1 6 40
M  V30 44 1 8 41
M  V30 45 1 12 42
M  V30 46 1 12 43
M  V30 47 1 16 44
M  V30 48 1 17 45 CFG=3
M  V30 49 1 18 46
M  V30 50 1 18 47
M  V30 51 1 20 48
M  V30 52 1 20 49
M  V30 53 1 20 50
M  V30 54 1 21 51
M  V30 55 1 21 52
M  V30 56 1 21 53
M  V30 57 1 23 54
M  V30 58 1 24 55
M  V30 59 1 25 56
M  V30 60 1 26 57
M  V30 61 1 27 58
M  V30 62 1 29 59
M  V30 63 1 29 60
M  V30 64 1 29 61
M  V30 65 1 30 62
M  V30 66 1 30 63
M  V30 67 1 30 64
M  V30 68 1 32 65
M  V30 END BOND
M  V30 END CTAB
M  END
>  <Dataset>  (64) 
ChEMBL_Kinases

>  <Ligand_Instance>  (64) 
nan

>  <PDB_ID>  (64) 
nan

>  <Standardized_SMILES>  (64) 
CCc1cc(Nc2[nH]nc3c2CN(C(=O)N[C@H](CN(C)C)c2ccccc2)C3(C)C)ncn1

>  <Name>  (64) 
nan

>  <Pocket>  (64) 
nan

>  <ATP_Site>  (64) 
nan

>  <Peripheral>  (64) 
nan

>  <Num_H_Atoms_ProtBoundConf>  (64) 
nan

>  <Num_Resolved_Atoms>  (64) 
nan

>  <Num_Not_Resolved_Atoms>  (64) 
nan

$$$$
CHEMBL3671105
     RDKit          3D

  0  0  0  0  0  0  0  0  0  0999 V3000
M  V30 BEGIN CTAB
M  V30 COUNTS 60 63 0 0 0
M  V30 BEGIN ATOM
M  V30 1 C 3.212645 1.414348 1.590583 0
M  V30 2 C 2.228037 1.349046 0.485447 0 CFG=2
M  V30 3 C 2.584674 1.744095 -0.886614 0
M  V30 4 C 3.694941 0.944895 -1.466945 0
M  V30 5 C 5.068843 1.132177 -0.914014 0
M  V30 6 C 5.605170 2.493874 -1.176299 0
M  V30 7 C 5.640032 3.697102 -0.527797 0
M  V30 8 C 6.195071 4.855152 -0.987098 0
M  V30 9 C 6.796878 4.887357 -2.217599 0
M  V30 10 C 6.824786 3.733013 -2.966604 0
M  V30 11 C 6.243251 2.611616 -2.430506 0
M  V30 12 N 0.921152 1.899204 0.891818 0
M  V30 13 C -0.220035 1.095741 1.079341 0
M  V30 14 O -0.219216 -0.146351 0.917167 0
M  V30 15 N -1.471001 1.647340 1.471694 0
M  V30 16 C -2.629495 0.845577 1.663846 0
M  V30 17 C -3.820017 1.429307 2.045971 0
M  V30 18 C -4.992182 0.733870 2.255518 0
M  V30 19 C -4.949421 -0.633999 2.065038 0
M  V30 20 N -6.016189 -1.439557 2.233026 0
M  V30 21 C -5.941440 -2.775287 2.038466 0
M  V30 22 C -4.759403 -3.373311 1.656593 0
M  V30 23 C -4.619347 -4.786350 1.434994 0
M  V30 24 C -3.372606 -5.264730 1.052030 0
M  V30 25 C -3.147763 -6.625796 0.815596 0
M  V30 26 C -4.223601 -7.489742 0.978412 0
M  V30 27 C -3.918917 -8.932104 0.710787 0
M  V30 28 O -4.146169 -9.222030 -0.632888 0
M  V30 29 C -5.482248 -7.072126 1.356454 0
M  V30 30 C -5.636465 -5.708177 1.575142 0
M  V30 31 N -3.677175 -2.595144 1.481050 0
M  V30 32 C -3.753553 -1.246616 1.677720 0
M  V30 33 N -2.660353 -0.467872 1.499381 0
M  V30 34 H 2.575295 1.598777 2.539789 0
M  V30 35 H 3.905390 2.242231 1.608721 0
M  V30 36 H 3.660589 0.411752 1.859271 0
M  V30 37 H 1.975911 0.227397 0.403274 0
M  V30 38 H 2.910925 2.817118 -0.973077 0
M  V30 39 H 1.649346 1.622833 -1.509123 0
M  V30 40 H 3.721800 1.144986 -2.585186 0
M  V30 41 H 3.444111 -0.165863 -1.448881 0
M  V30 42 H 5.733076 0.404252 -1.451562 0
M  V30 43 H 5.122969 0.861090 0.136331 0
M  V30 44 H 5.171488 3.665420 0.436192 0
M  V30 45 H 6.124375 5.707197 -0.330456 0
M  V30 46 H 7.207906 5.831897 -2.505942 0
M  V30 47 H 7.297708 3.762046 -3.931181 0
M  V30 48 H 6.322663 1.747984 -3.112134 0
M  V30 49 H 0.892986 2.944980 1.035319 0
M  V30 50 H -1.505775 2.659595 1.612582 0
M  V30 51 H -3.818555 2.519571 2.188610 0
M  V30 52 H -5.921153 1.200011 2.555105 0
M  V30 53 H -6.825800 -3.363983 2.188202 0
M  V30 54 H -2.519520 -4.617416 0.917988 0
M  V30 55 H -2.166037 -6.965572 0.518832 0
M  V30 56 H -4.591738 -9.615703 1.280900 0
M  V30 57 H -2.856246 -9.166514 0.930850 0
M  V30 58 H -4.008969 -8.406185 -1.211364 0
M  V30 59 H -6.291203 -7.781431 1.471053 0
M  V30 60 H -6.613752 -5.365956 1.871046 0
M  V30 END ATOM
M  V30 BEGIN BOND
M  V30 1 1 1 2
M  V30 2 1 2 3
M  V30 3 1 3 4
M  V30 4 1 4 5
M  V30 5 1 5 6
M  V30 6 2 6 7
M  V30 7 1 7 8
M  V30 8 2 8 9
M  V30 9 1 9 10
M  V30 10 2 10 11
M  V30 11 1 2 12
M  V30 12 1 12 13
M  V30 13 2 13 14
M  V30 14 1 13 15
M  V30 15 1 15 16
M  V30 16 2 16 17
M  V30 17 1 17 18
M  V30 18 2 18 19
M  V30 19 1 19 20
M  V30 20 2 20 21
M  V30 21 1 21 22
M  V30 22 1 22 23
M  V30 23 2 23 24
M  V30 24 1 24 25
M  V30 25 2 25 26
M  V30 26 1 26 27
M  V30 27 1 27 28
M  V30 28 1 26 29
M  V30 29 2 29 30
M  V30 30 2 22 31
M  V30 31 1 31 32
M  V30 32 2 32 33
M  V30 33 1 11 6
M  V30 34 1 33 16
M  V30 35 1 32 19
M  V30 36 1 30 23
M  V30 37 1 1 34
M  V30 38 1 1 35
M  V30 39 1 1 36
M  V30 40 1 2 37 CFG=3
M  V30 41 1 3 38
M  V30 42 1 3 39
M  V30 43 1 4 40
M  V30 44 1 4 41
M  V30 45 1 5 42
M  V30 46 1 5 43
M  V30 47 1 7 44
M  V30 48 1 8 45
M  V30 49 1 9 46
M  V30 50 1 10 47
M  V30 51 1 11 48
M  V30 52 1 12 49
M  V30 53 1 15 50
M  V30 54 1 17 51
M  V30 55 1 18 52
M  V30 56 1 21 53
M  V30 57 1 24 54
M  V30 58 1 25 55
M  V30 59 1 27 56
M  V30 60 1 27 57
M  V30 61 1 28 58
M  V30 62 1 29 59
M  V30 63 1 30 60
M  V30 END BOND
M  V30 END CTAB
M  END
>  <Dataset>  (65) 
ChEMBL_Kinases

>  <Ligand_Instance>  (65) 
nan

>  <PDB_ID>  (65) 
nan

>  <Standardized_SMILES>  (65) 
C[C@H](CCCc1ccccc1)NC(=O)Nc1ccc2ncc(-c3ccc(CO)cc3)nc2n1

>  <Name>  (65) 
nan

>  <Pocket>  (65) 
nan

>  <ATP_Site>  (65) 
nan

>  <Peripheral>  (65) 
nan

>  <Num_H_Atoms_ProtBoundConf>  (65) 
nan

>  <Num_Resolved_Atoms>  (65) 
nan

>  <Num_Not_Resolved_Atoms>  (65) 
nan

$$$$
CHEMBL3669605
     RDKit          3D

  0  0  0  0  0  0  0  0  0  0999 V3000
M  V30 BEGIN CTAB
M  V30 COUNTS 54 58 0 0 0
M  V30 BEGIN ATOM
M  V30 1 C 5.510623 -3.083800 3.150060 0 CHG=-1 VAL=3
M  V30 2 N 5.517297 -2.665578 2.052849 0 CHG=1 VAL=4
M  V30 3 C 5.538485 -2.194909 0.761597 0
M  V30 4 C 6.087752 -2.915345 -0.277160 0
M  V30 5 C 6.042827 -2.327888 -1.517694 0
M  V30 6 N 5.492294 -1.125217 -1.683374 0
M  V30 7 C 4.943166 -0.394746 -0.672980 0
M  V30 8 N 4.433519 0.852982 -1.175720 0
M  V30 9 C 3.093578 0.515481 -1.595105 0
M  V30 10 N 2.790574 -0.078908 -2.782130 0
M  V30 11 N 1.457573 -0.243494 -2.846215 0
M  V30 12 C 0.908790 0.240377 -1.710784 0
M  V30 13 C 1.909092 0.729109 -0.896267 0
M  V30 14 C 1.267148 1.250692 0.315917 0
M  V30 15 N -0.056465 0.611349 0.329839 0
M  V30 16 C -0.640211 0.384738 1.599631 0
M  V30 17 O 0.148620 0.866195 2.492702 0
M  V30 18 N -1.815574 -0.213351 2.040011 0
M  V30 19 C -2.251390 -0.335431 3.409963 0
M  V30 20 C -2.217670 -1.803072 3.948825 0
M  V30 21 C -3.469420 -1.076218 3.760708 0 CFG=2
M  V30 22 C -4.403129 -1.401639 2.650630 0
M  V30 23 C -5.654857 -0.841640 2.591432 0
M  V30 24 C -6.537018 -1.130435 1.589944 0
M  V30 25 C -6.191392 -2.009710 0.589154 0
M  V30 26 C -4.933301 -2.614393 0.589869 0
M  V30 27 C -4.063873 -2.287741 1.636041 0
M  V30 28 C -0.411080 0.413720 -1.058738 0
M  V30 29 C -1.027801 1.659350 -1.661870 0
M  V30 30 C -1.287100 -0.785041 -1.219126 0
M  V30 31 C 4.970680 -0.952353 0.584328 0
M  V30 32 H 6.522354 -3.890101 -0.086926 0
M  V30 33 H 6.468526 -2.871907 -2.370037 0
M  V30 34 H 4.952104 1.760352 -1.203576 0
M  V30 35 H 3.414300 -0.386441 -3.557955 0
M  V30 36 H 1.843264 0.854996 1.176988 0
M  V30 37 H 1.149905 2.355430 0.321399 0
M  V30 38 H -2.361919 -0.573063 1.230211 0
M  V30 39 H -1.704477 0.335734 4.119155 0
M  V30 40 H -1.782022 -1.956183 4.959345 0
M  V30 41 H -1.945082 -2.582198 3.243192 0
M  V30 42 H -3.990159 -0.691987 4.673904 0
M  V30 43 H -6.015566 -0.132021 3.343621 0
M  V30 44 H -7.539528 -0.691089 1.528893 0
M  V30 45 H -6.883695 -2.260657 -0.228146 0
M  V30 46 H -4.633961 -3.309472 -0.183114 0
M  V30 47 H -3.101254 -2.782667 1.607198 0
M  V30 48 H -1.898300 1.310623 -2.281223 0
M  V30 49 H -1.347580 2.406426 -0.919696 0
M  V30 50 H -0.358165 2.184443 -2.367912 0
M  V30 51 H -1.070150 -1.612167 -0.521273 0
M  V30 52 H -1.125648 -1.195945 -2.256570 0
M  V30 53 H -2.368300 -0.544698 -1.124204 0
M  V30 54 H 4.514571 -0.293951 1.309089 0
M  V30 END ATOM
M  V30 BEGIN BOND
M  V30 1 3 1 2
M  V30 2 1 2 3
M  V30 3 2 3 4
M  V30 4 1 4 5
M  V30 5 2 5 6
M  V30 6 1 6 7
M  V30 7 1 7 8
M  V30 8 1 8 9
M  V30 9 1 9 10
M  V30 10 1 10 11
M  V30 11 2 11 12
M  V30 12 1 12 13
M  V30 13 1 13 14
M  V30 14 1 14 15
M  V30 15 1 15 16
M  V30 16 2 16 17
M  V30 17 1 16 18
M  V30 18 1 18 19
M  V30 19 1 19 20
M  V30 20 1 20 21
M  V30 21 1 21 22
M  V30 22 2 22 23
M  V30 23 1 23 24
M  V30 24 2 24 25
M  V30 25 1 25 26
M  V30 26 2 26 27
M  V30 27 1 15 28
M  V30 28 1 28 29
M  V30 29 1 28 30
M  V30 30 2 7 31
M  V30 31 1 31 3
M  V30 32 2 13 9
M  V30 33 1 21 19
M  V30 34 1 27 22
M  V30 35 1 28 12
M  V30 36 1 4 32
M  V30 37 1 5 33
M  V30 38 1 8 34
M  V30 39 1 10 35
M  V30 40 1 14 36
M  V30 41 1 14 37
M  V30 42 1 18 38
M  V30 43 1 19 39
M  V30 44 1 20 40
M  V30 45 1 20 41
M  V30 46 1 21 42 CFG=1
M  V30 47 1 23 43
M  V30 48 1 24 44
M  V30 49 1 25 45
M  V30 50 1 26 46
M  V30 51 1 27 47
M  V30 52 1 29 48
M  V30 53 1 29 49
M  V30 54 1 29 50
M  V30 55 1 30 51
M  V30 56 1 30 52
M  V30 57 1 30 53
M  V30 58 1 31 54
M  V30 END BOND
M  V30 END CTAB
M  END
>  <Dataset>  (66) 
ChEMBL_Kinases

>  <Ligand_Instance>  (66) 
nan

>  <PDB_ID>  (66) 
nan

>  <Standardized_SMILES>  (66) 
[C-]#[N+]c1ccnc(Nc2[nH]nc3c2CN(C(=O)NC2C[C@@H]2c2ccccc2)C3(C)C)c1

>  <Name>  (66) 
nan

>  <Pocket>  (66) 
nan

>  <ATP_Site>  (66) 
nan

>  <Peripheral>  (66) 
nan

>  <Num_H_Atoms_ProtBoundConf>  (66) 
nan

>  <Num_Resolved_Atoms>  (66) 
nan

>  <Num_Not_Resolved_Atoms>  (66) 
nan

$$$$
CHEMBL3669606
     RDKit          3D

  0  0  0  0  0  0  0  0  0  0999 V3000
M  V30 BEGIN CTAB
M  V30 COUNTS 55 59 0 0 0
M  V30 BEGIN ATOM
M  V30 1 C 1.711597 -1.537781 4.347009 0
M  V30 2 C 1.802804 -2.069551 2.931836 0
M  V30 3 C 1.816424 -3.557310 2.842021 0
M  V30 4 C 2.975041 -1.436540 2.235358 0
M  V30 5 N 4.262009 -1.584036 1.930397 0
M  V30 6 N 4.739948 -0.575172 1.251268 0
M  V30 7 C 3.727375 0.324827 1.074917 0
M  V30 8 N 3.914238 1.532207 0.382816 0
M  V30 9 C 3.101220 2.646354 0.104459 0
M  V30 10 C 3.498855 3.743017 -0.641853 0
M  V30 11 C 2.642615 4.793181 -0.859026 0
M  V30 12 N 1.396019 4.805104 -0.364006 0
M  V30 13 C 1.006936 3.728395 0.368021 0
M  V30 14 C -0.343351 3.587738 0.982805 0
M  V30 15 F -0.944781 2.513369 0.323251 0
M  V30 16 F -0.185990 3.290195 2.305751 0
M  V30 17 F -1.071629 4.736300 0.807621 0
M  V30 18 N 1.862634 2.726858 0.559684 0
M  V30 19 C 2.597810 -0.219113 1.699367 0
M  V30 20 C 1.163669 -0.028202 2.014503 0
M  V30 21 N 0.730878 -1.432761 2.191640 0
M  V30 22 C -0.472984 -2.099116 1.752543 0
M  V30 23 O -0.735249 -3.330540 1.973832 0
M  V30 24 N -1.454431 -1.373477 1.023244 0
M  V30 25 C -2.705133 -1.904232 0.518295 0
M  V30 26 C -3.928345 -1.120504 0.388946 0
M  V30 27 C -3.179605 -1.488504 -0.836119 0 CFG=2
M  V30 28 C -3.696729 -2.494971 -1.796811 0
M  V30 29 C -4.560895 -3.499199 -1.418697 0
M  V30 30 C -5.037404 -4.433437 -2.312051 0
M  V30 31 C -4.664872 -4.410370 -3.661408 0
M  V30 32 C -3.794173 -3.397801 -4.041101 0
M  V30 33 C -3.323443 -2.469401 -3.142235 0
M  V30 34 H 0.667732 -1.225642 4.574123 0
M  V30 35 H 2.153259 -2.184809 5.101744 0
M  V30 36 H 2.283981 -0.562902 4.360374 0
M  V30 37 H 1.658515 -3.833451 1.791432 0
M  V30 38 H 0.974306 -3.934869 3.447446 0
M  V30 39 H 2.803114 -3.906519 3.211517 0
M  V30 40 H 5.754530 -0.584875 0.953599 0
M  V30 41 H 4.871923 1.686333 -0.045990 0
M  V30 42 H 4.513296 3.757929 -1.058158 0
M  V30 43 H 3.042718 5.609635 -1.457276 0
M  V30 44 H 0.606123 0.416982 1.166567 0
M  V30 45 H 1.110763 0.514788 2.955003 0
M  V30 46 H -1.343375 -0.362535 0.786595 0
M  V30 47 H -2.853431 -2.990781 0.777397 0
M  V30 48 H -4.009279 -0.041162 0.695347 0
M  V30 49 H -4.916921 -1.633089 0.512535 0
M  V30 50 H -2.497567 -0.722134 -1.314171 0
M  V30 51 H -4.887747 -3.569677 -0.383807 0
M  V30 52 H -5.719287 -5.210398 -1.966613 0
M  V30 53 H -5.017624 -5.120521 -4.376566 0
M  V30 54 H -3.467753 -3.326908 -5.077017 0
M  V30 55 H -2.633254 -1.681859 -3.483112 0
M  V30 END ATOM
M  V30 BEGIN BOND
M  V30 1 1 1 2
M  V30 2 1 2 3
M  V30 3 1 2 4
M  V30 4 2 4 5
M  V30 5 1 5 6
M  V30 6 1 6 7
M  V30 7 1 7 8
M  V30 8 1 8 9
M  V30 9 2 9 10
M  V30 10 1 10 11
M  V30 11 2 11 12
M  V30 12 1 12 13
M  V30 13 1 13 14
M  V30 14 1 14 15
M  V30 15 1 14 16
M  V30 16 1 14 17
M  V30 17 2 13 18
M  V30 18 2 7 19
M  V30 19 1 19 20
M  V30 20 1 20 21
M  V30 21 1 21 22
M  V30 22 2 22 23
M  V30 23 1 22 24
M  V30 24 1 24 25
M  V30 25 1 25 26
M  V30 26 1 26 27
M  V30 27 1 27 28
M  V30 28 2 28 29
M  V30 29 1 29 30
M  V30 30 2 30 31
M  V30 31 1 31 32
M  V30 32 2 32 33
M  V30 33 1 21 2
M  V30 34 1 27 25
M  V30 35 1 33 28
M  V30 36 1 19 4
M  V30 37 1 18 9
M  V30 38 1 1 34
M  V30 39 1 1 35
M  V30 40 1 1 36
M  V30 41 1 3 37
M  V30 42 1 3 38
M  V30 43 1 3 39
M  V30 44 1 6 40
M  V30 45 1 8 41
M  V30 46 1 10 42
M  V30 47 1 11 43
M  V30 48 1 20 44
M  V30 49 1 20 45
M  V30 50 1 24 46
M  V30 51 1 25 47
M  V30 52 1 26 48
M  V30 53 1 26 49
M  V30 54 1 27 50 CFG=3
M  V30 55 1 29 51
M  V30 56 1 30 52
M  V30 57 1 31 53
M  V30 58 1 32 54
M  V30 59 1 33 55
M  V30 END BOND
M  V30 END CTAB
M  END
>  <Dataset>  (67) 
ChEMBL_Kinases

>  <Ligand_Instance>  (67) 
nan

>  <PDB_ID>  (67) 
nan

>  <Standardized_SMILES>  (67) 
CC1(C)c2n[nH]c(Nc3ccnc(C(F)(F)F)n3)c2CN1C(=O)NC1C[C@@H]1c1ccccc1

>  <Name>  (67) 
nan

>  <Pocket>  (67) 
nan

>  <ATP_Site>  (67) 
nan

>  <Peripheral>  (67) 
nan

>  <Num_H_Atoms_ProtBoundConf>  (67) 
nan

>  <Num_Resolved_Atoms>  (67) 
nan

>  <Num_Not_Resolved_Atoms>  (67) 
nan

$$$$
CHEMBL3669607
     RDKit          3D

  0  0  0  0  0  0  0  0  0  0999 V3000
M  V30 BEGIN CTAB
M  V30 COUNTS 58 63 0 0 0
M  V30 BEGIN ATOM
M  V30 1 C 4.757556 -3.041629 3.756365 0
M  V30 2 C 4.186742 -3.871235 2.669147 0
M  V30 3 N 3.768472 -3.534882 1.469091 0
M  V30 4 C 3.274434 -4.397317 0.591699 0
M  V30 5 N 2.866646 -3.874519 -0.660854 0
M  V30 6 C 2.978422 -2.507303 -0.962609 0
M  V30 7 N 4.019955 -1.860155 -1.527842 0
M  V30 8 N 3.695813 -0.563567 -1.630309 0
M  V30 9 C 2.457153 -0.372992 -1.136542 0
M  V30 10 C 1.971887 -1.589744 -0.703074 0
M  V30 11 C 0.581369 -1.456415 -0.133592 0
M  V30 12 N 0.279298 -0.086773 -0.525484 0
M  V30 13 C -1.102936 0.248784 -0.469242 0
M  V30 14 O -1.689094 -0.815067 -0.069588 0
M  V30 15 N -1.764691 1.472044 -0.773412 0
M  V30 16 C -3.192791 1.568626 -0.637723 0 CFG=2
M  V30 17 C -4.036709 2.312405 -1.582800 0
M  V30 18 C -3.857889 2.812252 -0.222540 0 CFG=1
M  V30 19 C -4.891883 2.691040 0.841799 0
M  V30 20 C -5.097972 3.668199 1.793712 0
M  V30 21 C -6.075660 3.535968 2.787156 0
M  V30 22 C -6.865539 2.392829 2.824184 0
M  V30 23 C -6.657733 1.417292 1.871523 0
M  V30 24 C -5.691317 1.558094 0.896971 0
M  V30 25 C 1.456731 0.704111 -0.909471 0
M  V30 26 C 1.261060 1.587722 -2.076888 0
M  V30 27 C 1.951473 1.510073 0.274929 0
M  V30 28 C 3.149632 -5.730989 0.848127 0
M  V30 29 C 2.670294 -6.730326 0.066335 0
M  V30 30 C 2.625459 -8.041781 0.515302 0
M  V30 31 S 3.324102 -7.949113 2.239410 0
M  V30 32 C 3.622641 -6.096407 2.198809 0
M  V30 33 N 4.118066 -5.153598 3.045413 0
M  V30 34 H 4.426903 -1.977602 3.632268 0
M  V30 35 H 4.397268 -3.326952 4.768828 0
M  V30 36 H 5.860646 -3.051888 3.722467 0
M  V30 37 H 2.467254 -4.504820 -1.399595 0
M  V30 38 H 4.918684 -2.345209 -1.821803 0
M  V30 39 H -0.094859 -2.205216 -0.558583 0
M  V30 40 H 0.712673 -1.531347 0.967577 0
M  V30 41 H -1.097028 2.211971 -1.081474 0
M  V30 42 H -3.645158 0.612717 -0.289541 0
M  V30 43 H -3.519535 2.819705 -2.410911 0
M  V30 44 H -5.017843 1.892933 -1.917164 0
M  V30 45 H -3.319297 3.776162 -0.116089 0
M  V30 46 H -4.491782 4.573147 1.785798 0
M  V30 47 H -6.177416 4.348677 3.501289 0
M  V30 48 H -7.611676 2.309630 3.595548 0
M  V30 49 H -7.296974 0.533185 1.931831 0
M  V30 50 H -5.615953 0.748076 0.214527 0
M  V30 51 H 2.236789 1.596058 -2.646685 0
M  V30 52 H 1.171091 2.654439 -1.727473 0
M  V30 53 H 0.507272 1.313189 -2.807257 0
M  V30 54 H 2.716004 0.980341 0.873328 0
M  V30 55 H 1.084884 1.831510 0.906242 0
M  V30 56 H 2.425161 2.453485 -0.101541 0
M  V30 57 H 2.296429 -6.607079 -0.930485 0
M  V30 58 H 2.318082 -8.948590 0.128163 0
M  V30 END ATOM
M  V30 BEGIN BOND
M  V30 1 1 1 2
M  V30 2 2 2 3
M  V30 3 1 3 4
M  V30 4 1 4 5
M  V30 5 1 5 6
M  V30 6 1 6 7
M  V30 7 1 7 8
M  V30 8 2 8 9
M  V30 9 1 9 10
M  V30 10 1 10 11
M  V30 11 1 11 12
M  V30 12 1 12 13
M  V30 13 2 13 14
M  V30 14 1 13 15
M  V30 15 1 15 16
M  V30 16 1 16 17
M  V30 17 1 17 18
M  V30 18 1 18 19
M  V30 19 2 19 20
M  V30 20 1 20 21
M  V30 21 2 21 22
M  V30 22 1 22 23
M  V30 23 2 23 24
M  V30 24 1 12 25
M  V30 25 1 25 26
M  V30 26 1 25 27
M  V30 27 2 4 28
M  V30 28 1 28 29
M  V30 29 2 29 30
M  V30 30 1 30 31
M  V30 31 1 31 32
M  V30 32 2 32 33
M  V30 33 1 33 2
M  V30 34 2 10 6
M  V30 35 1 18 16
M  V30 36 1 24 19
M  V30 37 1 32 28
M  V30 38 1 25 9
M  V30 39 1 1 34
M  V30 40 1 1 35
M  V30 41 1 1 36
M  V30 42 1 5 37
M  V30 43 1 7 38
M  V30 44 1 11 39
M  V30 45 1 11 40
M  V30 46 1 15 41
M  V30 47 1 16 42 CFG=1
M  V30 48 1 17 43
M  V30 49 1 17 44
M  V30 50 1 18 45 CFG=3
M  V30 51 1 20 46
M  V30 52 1 21 47
M  V30 53 1 22 48
M  V30 54 1 23 49
M  V30 55 1 24 50
M  V30 56 1 26 51
M  V30 57 1 26 52
M  V30 58 1 26 53
M  V30 59 1 27 54
M  V30 60 1 27 55
M  V30 61 1 27 56
M  V30 62 1 29 57
M  V30 63 1 30 58
M  V30 END BOND
M  V30 END CTAB
M  END
>  <Dataset>  (68) 
ChEMBL_Kinases

>  <Ligand_Instance>  (68) 
nan

>  <PDB_ID>  (68) 
nan

>  <Standardized_SMILES>  (68) 
Cc1nc(Nc2[nH]nc3c2CN(C(=O)N[C@@H]2C[C@H]2c2ccccc2)C3(C)C)c2ccsc2n1

>  <Name>  (68) 
nan

>  <Pocket>  (68) 
nan

>  <ATP_Site>  (68) 
nan

>  <Peripheral>  (68) 
nan

>  <Num_H_Atoms_ProtBoundConf>  (68) 
nan

>  <Num_Resolved_Atoms>  (68) 
nan

>  <Num_Not_Resolved_Atoms>  (68) 
nan

$$$$
CHEMBL3669608
     RDKit          3D

  0  0  0  0  0  0  0  0  0  0999 V3000
M  V30 BEGIN CTAB
M  V30 COUNTS 68 73 0 0 0
M  V30 BEGIN ATOM
M  V30 1 C 1.135752 -0.359803 7.033430 0
M  V30 2 C 1.139123 -0.180616 5.558319 0
M  V30 3 N 2.039658 -0.936576 4.893251 0
M  V30 4 C 2.111750 -0.867707 3.539475 0
M  V30 5 N 2.865775 -1.458142 2.554412 0
M  V30 6 C 3.538723 -2.166309 1.583436 0
M  V30 7 N 4.505285 -3.084161 1.473699 0
M  V30 8 N 4.668798 -3.353226 0.195714 0
M  V30 9 C 3.850907 -2.658523 -0.610278 0
M  V30 10 C 3.107881 -1.878348 0.260855 0
M  V30 11 C 2.227678 -1.077716 -0.634366 0
M  V30 12 N 1.890280 -2.084720 -1.618517 0
M  V30 13 C 0.504011 -2.324990 -1.703260 0
M  V30 14 O 0.098791 -1.518101 -0.784527 0
M  V30 15 N -0.546046 -3.019185 -2.313638 0
M  V30 16 C -1.887183 -2.765937 -1.856218 0 CFG=2
M  V30 17 C -2.929993 -3.843558 -2.011832 0
M  V30 18 C -3.031513 -2.615077 -2.812796 0 CFG=1
M  V30 19 C -3.973496 -1.507638 -2.455582 0
M  V30 20 C -4.178265 -0.475461 -3.312628 0
M  V30 21 C -5.031052 0.587508 -3.051100 0
M  V30 22 C -5.709433 0.585418 -1.834116 0
M  V30 23 C -5.547460 -0.448130 -0.893920 0
M  V30 24 C -4.677751 -1.456441 -1.255072 0
M  V30 25 C 3.296678 -2.315681 -1.981831 0
M  V30 26 C 4.065074 -1.144154 -2.428111 0
M  V30 27 C 3.428399 -3.533305 -2.870240 0
M  V30 28 C 1.189002 0.033804 2.978453 0
M  V30 29 C 0.246373 0.832393 3.601217 0
M  V30 30 N -0.643584 1.705491 2.921603 0
M  V30 31 C -1.616323 2.456407 3.680151 0
M  V30 32 C -2.227213 3.482732 2.730983 0
M  V30 33 O -1.266645 4.224703 2.039685 0
M  V30 34 C -0.410703 3.432255 1.290582 0
M  V30 35 C -0.695560 1.937526 1.521983 0
M  V30 36 N 0.318917 0.633566 4.911157 0
M  V30 37 H 1.087502 -1.481842 7.244303 0
M  V30 38 H 0.164941 0.004316 7.469253 0
M  V30 39 H 2.017354 0.021157 7.553350 0
M  V30 40 H 2.237813 -2.323217 2.781357 0
M  V30 41 H 4.955272 -3.425379 2.337232 0
M  V30 42 H 2.804006 -0.253320 -1.159522 0
M  V30 43 H 1.412901 -0.587026 -0.127990 0
M  V30 44 H -0.027531 -3.612698 -3.019844 0
M  V30 45 H -1.982955 -2.172983 -0.923425 0
M  V30 46 H -3.628562 -4.012561 -1.134534 0
M  V30 47 H -2.561107 -4.794557 -2.424230 0
M  V30 48 H -2.771719 -2.638603 -3.888495 0
M  V30 49 H -3.654192 -0.462318 -4.263837 0
M  V30 50 H -5.192782 1.423310 -3.740286 0
M  V30 51 H -6.389548 1.414817 -1.603900 0
M  V30 52 H -6.079796 -0.427279 0.030050 0
M  V30 53 H -4.558763 -2.248382 -0.541425 0
M  V30 54 H 4.637274 -0.636375 -1.601143 0
M  V30 55 H 3.521583 -0.432249 -3.064749 0
M  V30 56 H 4.902197 -1.525893 -3.081646 0
M  V30 57 H 2.695039 -3.347837 -3.707501 0
M  V30 58 H 4.450877 -3.609153 -3.240519 0
M  V30 59 H 3.044119 -4.410926 -2.333376 0
M  V30 60 H 1.135620 0.197018 1.926797 0
M  V30 61 H -2.475893 1.777855 3.936016 0
M  V30 62 H -1.163653 2.945819 4.544164 0
M  V30 63 H -2.970452 3.020390 2.055812 0
M  V30 64 H -2.749369 4.209181 3.367622 0
M  V30 65 H -0.430191 3.636178 0.200857 0
M  V30 66 H 0.621733 3.593260 1.649187 0
M  V30 67 H -0.019503 1.371800 0.873772 0
M  V30 68 H -1.706071 1.768332 1.081046 0
M  V30 END ATOM
M  V30 BEGIN BOND
M  V30 1 1 1 2
M  V30 2 2 2 3
M  V30 3 1 3 4
M  V30 4 1 4 5
M  V30 5 1 5 6
M  V30 6 1 6 7
M  V30 7 1 7 8
M  V30 8 2 8 9
M  V30 9 1 9 10
M  V30 10 1 10 11
M  V30 11 1 11 12
M  V30 12 1 12 13
M  V30 13 2 13 14
M  V30 14 1 13 15
M  V30 15 1 15 16
M  V30 16 1 16 17
M  V30 17 1 17 18
M  V30 18 1 18 19
M  V30 19 2 19 20
M  V30 20 1 20 21
M  V30 21 2 21 22
M  V30 22 1 22 23
M  V30 23 2 23 24
M  V30 24 1 12 25
M  V30 25 1 25 26
M  V30 26 1 25 27
M  V30 27 2 4 28
M  V30 28 1 28 29
M  V30 29 1 29 30
M  V30 30 1 30 31
M  V30 31 1 31 32
M  V30 32 1 32 33
M  V30 33 1 33 34
M  V30 34 1 34 35
M  V30 35 2 29 36
M  V30 36 1 36 2
M  V30 37 2 10 6
M  V30 38 1 18 16
M  V30 39 1 24 19
M  V30 40 1 35 30
M  V30 41 1 25 9
M  V30 42 1 1 37
M  V30 43 1 1 38
M  V30 44 1 1 39
M  V30 45 1 5 40
M  V30 46 1 7 41
M  V30 47 1 11 42
M  V30 48 1 11 43
M  V30 49 1 15 44
M  V30 50 1 16 45 CFG=1
M  V30 51 1 17 46
M  V30 52 1 17 47
M  V30 53 1 18 48 CFG=3
M  V30 54 1 20 49
M  V30 55 1 21 50
M  V30 56 1 22 51
M  V30 57 1 23 52
M  V30 58 1 24 53
M  V30 59 1 26 54
M  V30 60 1 26 55
M  V30 61 1 26 56
M  V30 62 1 27 57
M  V30 63 1 27 58
M  V30 64 1 27 59
M  V30 65 1 28 60
M  V30 66 1 31 61
M  V30 67 1 31 62
M  V30 68 1 32 63
M  V30 69 1 32 64
M  V30 70 1 34 65
M  V30 71 1 34 66
M  V30 72 1 35 67
M  V30 73 1 35 68
M  V30 END BOND
M  V30 END CTAB
M  END
>  <Dataset>  (69) 
ChEMBL_Kinases

>  <Ligand_Instance>  (69) 
nan

>  <PDB_ID>  (69) 
nan

>  <Standardized_SMILES>  (69) 
Cc1nc(Nc2[nH]nc3c2CN(C(=O)N[C@@H]2C[C@H]2c2ccccc2)C3(C)C)cc(N2CCOCC2)n1

>  <Name>  (69) 
nan

>  <Pocket>  (69) 
nan

>  <ATP_Site>  (69) 
nan

>  <Peripheral>  (69) 
nan

>  <Num_H_Atoms_ProtBoundConf>  (69) 
nan

>  <Num_Resolved_Atoms>  (69) 
nan

>  <Num_Not_Resolved_Atoms>  (69) 
nan

$$$$
CHEMBL3669609
     RDKit          3D

  0  0  0  0  0  0  0  0  0  0999 V3000
M  V30 BEGIN CTAB
M  V30 COUNTS 58 63 0 0 0
M  V30 BEGIN ATOM
M  V30 1 C 3.588228 -4.312995 2.981394 0
M  V30 2 C 2.948709 -3.031941 3.063751 0
M  V30 3 C 3.296679 -1.749355 2.690547 0
M  V30 4 C 2.442762 -0.711693 2.912429 0
M  V30 5 C 2.593264 0.621925 2.620588 0
M  V30 6 N 3.757857 1.134573 1.986738 0
M  V30 7 C 3.533171 0.852351 0.609616 0
M  V30 8 N 4.458151 0.190271 -0.144785 0
M  V30 9 N 4.067616 0.015491 -1.409267 0
M  V30 10 C 2.826284 0.569014 -1.562543 0
M  V30 11 C 2.527110 1.076556 -0.295430 0
M  V30 12 C 1.207693 1.683079 -0.413813 0
M  V30 13 N 0.567219 0.905688 -1.462128 0
M  V30 14 C -0.695951 0.212471 -1.540763 0
M  V30 15 O -1.464604 -0.396010 -2.366357 0
M  V30 16 N -1.412546 0.108477 -0.285132 0
M  V30 17 C -2.609771 -0.358215 0.377697 0 CFG=2
M  V30 18 C -2.388810 -1.237188 1.586068 0
M  V30 19 C -2.925372 -1.837956 0.292392 0 CFG=1
M  V30 20 C -4.361931 -2.213981 0.314416 0
M  V30 21 C -5.216815 -1.685364 1.250679 0
M  V30 22 C -6.585529 -1.983234 1.335627 0
M  V30 23 C -7.068472 -2.870198 0.397626 0
M  V30 24 C -6.228878 -3.410892 -0.549619 0
M  V30 25 C -4.864949 -3.101873 -0.618398 0
M  V30 26 C 1.619287 0.902705 -2.424987 0
M  V30 27 C 1.924088 2.140550 -3.163943 0
M  V30 28 C 1.514472 -0.285902 -3.376733 0
M  V30 29 N 1.624360 1.464895 2.926619 0
M  V30 30 C 0.475702 1.181917 3.501351 0
M  V30 31 N 0.230613 -0.101211 3.827550 0
M  V30 32 C 1.208768 -1.028412 3.531628 0
M  V30 33 S 1.355097 -2.868397 3.770209 0
M  V30 34 H 4.669936 -4.203921 2.903734 0
M  V30 35 H 3.418823 -4.963897 3.884087 0
M  V30 36 H 3.246193 -4.855813 2.082913 0
M  V30 37 H 4.265638 -1.658257 2.228422 0
M  V30 38 H 4.628073 1.625281 2.348561 0
M  V30 39 H 5.385147 -0.160915 0.196805 0
M  V30 40 H 0.597835 1.768488 0.480597 0
M  V30 41 H 1.277710 2.753894 -0.792986 0
M  V30 42 H -0.930436 0.539853 0.569967 0
M  V30 43 H -3.503126 0.257976 0.186333 0
M  V30 44 H -1.328876 -1.556163 1.795135 0
M  V30 45 H -3.027213 -1.134786 2.467326 0
M  V30 46 H -2.286483 -2.401438 -0.377941 0
M  V30 47 H -4.934209 -0.984962 2.020642 0
M  V30 48 H -7.272053 -1.590073 2.056505 0
M  V30 49 H -8.137361 -3.135234 0.420826 0
M  V30 50 H -6.619284 -4.108208 -1.281370 0
M  V30 51 H -4.185860 -3.510087 -1.353258 0
M  V30 52 H 1.224475 2.402985 -3.986705 0
M  V30 53 H 2.901397 1.940575 -3.720529 0
M  V30 54 H 2.155307 3.001013 -2.534184 0
M  V30 55 H 1.035858 -1.152009 -2.853340 0
M  V30 56 H 0.995386 -0.054553 -4.316856 0
M  V30 57 H 2.552101 -0.553334 -3.662262 0
M  V30 58 H -0.327873 1.820591 3.761816 0
M  V30 END ATOM
M  V30 BEGIN BOND
M  V30 1 1 1 2
M  V30 2 2 2 3
M  V30 3 1 3 4
M  V30 4 2 4 5
M  V30 5 1 5 6
M  V30 6 1 6 7
M  V30 7 1 7 8
M  V30 8 1 8 9
M  V30 9 2 9 10
M  V30 10 1 10 11
M  V30 11 1 11 12
M  V30 12 1 12 13
M  V30 13 1 13 14
M  V30 14 2 14 15
M  V30 15 1 14 16
M  V30 16 1 16 17
M  V30 17 1 17 18
M  V30 18 1 18 19
M  V30 19 1 19 20
M  V30 20 2 20 21
M  V30 21 1 21 22
M  V30 22 2 22 23
M  V30 23 1 23 24
M  V30 24 2 24 25
M  V30 25 1 13 26
M  V30 26 1 26 27
M  V30 27 1 26 28
M  V30 28 1 5 29
M  V30 29 2 29 30
M  V30 30 1 30 31
M  V30 31 2 31 32
M  V30 32 1 32 33
M  V30 33 1 33 2
M  V30 34 1 32 4
M  V30 35 2 11 7
M  V30 36 1 19 17
M  V30 37 1 25 20
M  V30 38 1 26 10
M  V30 39 1 1 34
M  V30 40 1 1 35
M  V30 41 1 1 36
M  V30 42 1 3 37
M  V30 43 1 6 38
M  V30 44 1 8 39
M  V30 45 1 12 40
M  V30 46 1 12 41
M  V30 47 1 16 42
M  V30 48 1 17 43 CFG=1
M  V30 49 1 18 44
M  V30 50 1 18 45
M  V30 51 1 19 46 CFG=3
M  V30 52 1 21 47
M  V30 53 1 22 48
M  V30 54 1 23 49
M  V30 55 1 24 50
M  V30 56 1 25 51
M  V30 57 1 27 52
M  V30 58 1 27 53
M  V30 59 1 27 54
M  V30 60 1 28 55
M  V30 61 1 28 56
M  V30 62 1 28 57
M  V30 63 1 30 58
M  V30 END BOND
M  V30 END CTAB
M  END
>  <Dataset>  (70) 
ChEMBL_Kinases

>  <Ligand_Instance>  (70) 
nan

>  <PDB_ID>  (70) 
nan

>  <Standardized_SMILES>  (70) 
Cc1cc2c(Nc3[nH]nc4c3CN(C(=O)N[C@@H]3C[C@H]3c3ccccc3)C4(C)C)ncnc2s1

>  <Name>  (70) 
nan

>  <Pocket>  (70) 
nan

>  <ATP_Site>  (70) 
nan

>  <Peripheral>  (70) 
nan

>  <Num_H_Atoms_ProtBoundConf>  (70) 
nan

>  <Num_Resolved_Atoms>  (70) 
nan

>  <Num_Not_Resolved_Atoms>  (70) 
nan

$$$$
CHEMBL3669611
     RDKit          3D

  0  0  0  0  0  0  0  0  0  0999 V3000
M  V30 BEGIN CTAB
M  V30 COUNTS 59 63 0 0 0
M  V30 BEGIN ATOM
M  V30 1 C 0.800266 2.100200 4.830442 0
M  V30 2 C 0.501441 0.660529 4.498183 0
M  V30 3 O 1.663981 -0.117704 4.292978 0
M  V30 4 C 2.570430 0.203131 3.291195 0
M  V30 5 N 3.660282 -0.605162 3.170257 0
M  V30 6 C 4.562961 -0.323219 2.206723 0
M  V30 7 C 4.409560 0.758463 1.345416 0
M  V30 8 F 5.330482 1.001100 0.403249 0
M  V30 9 C 3.282598 1.558147 1.503259 0
M  V30 10 N 3.150526 2.655636 0.610849 0
M  V30 11 C 2.479444 2.558926 -0.638166 0
M  V30 12 N 2.256149 3.452886 -1.590227 0
M  V30 13 N 1.580909 2.948776 -2.611309 0
M  V30 14 C 1.340518 1.655401 -2.329578 0
M  V30 15 C 1.897518 1.388581 -1.091862 0
M  V30 16 C 1.592303 -0.046640 -0.854008 0
M  V30 17 N 0.305018 -0.212555 -1.529661 0
M  V30 18 C -0.939496 -0.744488 -1.147295 0
M  V30 19 O -1.956504 -0.801938 -1.886250 0
M  V30 20 N -1.098930 -1.266710 0.167249 0
M  V30 21 C -2.350036 -1.824441 0.615701 0 CFG=2
M  V30 22 C -2.742849 -1.834714 2.036129 0
M  V30 23 C -2.177441 -3.081525 1.468123 0 CFG=1
M  V30 24 C -3.085504 -4.210318 1.091078 0
M  V30 25 C -4.378404 -3.929472 0.641366 0
M  V30 26 C -5.227958 -4.980912 0.288839 0
M  V30 27 C -4.804103 -6.298863 0.379714 0
M  V30 28 C -3.510589 -6.543485 0.831318 0
M  V30 29 C -2.637721 -5.531302 1.190375 0
M  V30 30 C 0.725567 0.369644 -2.780650 0
M  V30 31 C -0.492153 0.619363 -3.639773 0
M  V30 32 C 1.759187 -0.467216 -3.460089 0
M  V30 33 N 2.381885 1.260688 2.479332 0
M  V30 34 H 0.011236 2.488688 5.498449 0
M  V30 35 H 0.911350 2.735154 3.917893 0
M  V30 36 H 1.769315 2.170826 5.361957 0
M  V30 37 H -0.074447 0.236393 5.342160 0
M  V30 38 H -0.181933 0.626231 3.604154 0
M  V30 39 H 5.423104 -0.939507 2.091638 0
M  V30 40 H 3.584725 3.551538 0.936370 0
M  V30 41 H 2.592093 4.451752 -1.515543 0
M  V30 42 H 1.510396 -0.280524 0.225200 0
M  V30 43 H 2.329335 -0.671695 -1.359627 0
M  V30 44 H -0.300839 -1.248875 0.823082 0
M  V30 45 H -3.151509 -1.805636 -0.145074 0
M  V30 46 H -3.837845 -1.831758 2.246015 0
M  V30 47 H -2.178346 -1.276842 2.792461 0
M  V30 48 H -1.169913 -3.346116 1.816267 0
M  V30 49 H -4.746502 -2.910632 0.556641 0
M  V30 50 H -6.241373 -4.756800 -0.063473 0
M  V30 51 H -5.443175 -7.140844 0.112172 0
M  V30 52 H -3.128910 -7.571503 0.920472 0
M  V30 53 H -1.631163 -5.771039 1.539518 0
M  V30 54 H -0.257136 1.165753 -4.563194 0
M  V30 55 H -1.261812 1.116167 -3.027575 0
M  V30 56 H -0.887004 -0.380516 -3.923425 0
M  V30 57 H 1.661572 -0.404647 -4.582977 0
M  V30 58 H 1.744492 -1.521710 -3.119453 0
M  V30 59 H 2.773820 -0.069599 -3.257470 0
M  V30 END ATOM
M  V30 BEGIN BOND
M  V30 1 1 1 2
M  V30 2 1 2 3
M  V30 3 1 3 4
M  V30 4 2 4 5
M  V30 5 1 5 6
M  V30 6 2 6 7
M  V30 7 1 7 8
M  V30 8 1 7 9
M  V30 9 1 9 10
M  V30 10 1 10 11
M  V30 11 1 11 12
M  V30 12 1 12 13
M  V30 13 2 13 14
M  V30 14 1 14 15
M  V30 15 1 15 16
M  V30 16 1 16 17
M  V30 17 1 17 18
M  V30 18 2 18 19
M  V30 19 1 18 20
M  V30 20 1 20 21
M  V30 21 1 21 22
M  V30 22 1 22 23
M  V30 23 1 23 24
M  V30 24 2 24 25
M  V30 25 1 25 26
M  V30 26 2 26 27
M  V30 27 1 27 28
M  V30 28 2 28 29
M  V30 29 1 17 30
M  V30 30 1 30 31
M  V30 31 1 30 32
M  V30 32 2 9 33
M  V30 33 1 33 4
M  V30 34 2 15 11
M  V30 35 1 23 21
M  V30 36 1 29 24
M  V30 37 1 30 14
M  V30 38 1 1 34
M  V30 39 1 1 35
M  V30 40 1 1 36
M  V30 41 1 2 37
M  V30 42 1 2 38
M  V30 43 1 6 39
M  V30 44 1 10 40
M  V30 45 1 12 41
M  V30 46 1 16 42
M  V30 47 1 16 43
M  V30 48 1 20 44
M  V30 49 1 21 45 CFG=3
M  V30 50 1 22 46
M  V30 51 1 22 47
M  V30 52 1 23 48 CFG=1
M  V30 53 1 25 49
M  V30 54 1 26 50
M  V30 55 1 27 51
M  V30 56 1 28 52
M  V30 57 1 29 53
M  V30 58 1 31 54
M  V30 59 1 31 55
M  V30 60 1 31 56
M  V30 61 1 32 57
M  V30 62 1 32 58
M  V30 63 1 32 59
M  V30 END BOND
M  V30 END CTAB
M  END
>  <Dataset>  (71) 
ChEMBL_Kinases

>  <Ligand_Instance>  (71) 
nan

>  <PDB_ID>  (71) 
nan

>  <Standardized_SMILES>  (71) 
CCOc1ncc(F)c(Nc2[nH]nc3c2CN(C(=O)N[C@@H]2C[C@H]2c2ccccc2)C3(C)C)n1

>  <Name>  (71) 
nan

>  <Pocket>  (71) 
nan

>  <ATP_Site>  (71) 
nan

>  <Peripheral>  (71) 
nan

>  <Num_H_Atoms_ProtBoundConf>  (71) 
nan

>  <Num_Resolved_Atoms>  (71) 
nan

>  <Num_Not_Resolved_Atoms>  (71) 
nan

$$$$
CHEMBL3669612
     RDKit          3D

  0  0  0  0  0  0  0  0  0  0999 V3000
M  V30 BEGIN CTAB
M  V30 COUNTS 63 67 0 0 0
M  V30 BEGIN ATOM
M  V30 1 C 6.853292 -1.387598 4.363437 0
M  V30 2 C 5.390518 -1.130916 4.318695 0
M  V30 3 N 4.850741 -0.867051 3.128586 0
M  V30 4 C 3.516860 -0.615528 2.967246 0
M  V30 5 N 2.808467 -0.335201 1.769477 0
M  V30 6 C 2.092984 -1.422699 1.196678 0
M  V30 7 N 1.989648 -2.683864 1.680446 0
M  V30 8 N 1.232335 -3.400635 0.876235 0
M  V30 9 C 0.826771 -2.635035 -0.140830 0
M  V30 10 C 1.356275 -1.374827 0.032572 0
M  V30 11 C 0.881396 -0.552534 -1.135640 0
M  V30 12 N -0.398840 -1.172039 -1.392309 0
M  V30 13 C -1.562719 -0.331252 -1.567234 0
M  V30 14 O -0.963491 0.760436 -1.460195 0
M  V30 15 N -2.931980 -0.632401 -1.787435 0
M  V30 16 C -3.808009 0.514136 -1.928958 0 CFG=2
M  V30 17 C -5.163151 0.552548 -1.324212 0
M  V30 18 C -5.041938 0.215968 -2.760458 0 CFG=1
M  V30 19 C -5.301624 1.164364 -3.844855 0
M  V30 20 C -4.960055 2.490938 -3.684385 0
M  V30 21 C -5.207674 3.398455 -4.712249 0
M  V30 22 C -5.800087 2.920600 -5.878802 0
M  V30 23 C -6.153899 1.612235 -6.076477 0
M  V30 24 C -5.893920 0.748987 -5.041344 0
M  V30 25 C 0.032962 -2.564997 -1.389132 0
M  V30 26 C -1.125819 -3.535180 -1.374106 0
M  V30 27 C 0.967862 -2.842132 -2.547830 0
M  V30 28 C 2.781669 -0.658211 4.132642 0
M  V30 29 C 3.296265 -0.926964 5.382115 0
M  V30 30 N 2.576211 -0.990896 6.602263 0
M  V30 31 C 3.221830 -1.269151 7.874785 0
M  V30 32 C 1.146839 -0.802331 6.747017 0
M  V30 33 N 4.622666 -1.159551 5.424586 0
M  V30 34 H 7.233202 -1.695556 3.356682 0
M  V30 35 H 7.448324 -0.508613 4.690278 0
M  V30 36 H 7.092201 -2.226956 5.063239 0
M  V30 37 H 2.800812 0.587307 1.328451 0
M  V30 38 H 2.450434 -3.033829 2.570788 0
M  V30 39 H 0.834012 0.516834 -0.865098 0
M  V30 40 H 1.522757 -0.733303 -2.024582 0
M  V30 41 H -3.058649 -1.663805 -1.808802 0
M  V30 42 H -3.285595 1.465202 -1.978316 0
M  V30 43 H -5.406041 -0.275132 -0.629938 0
M  V30 44 H -5.540710 1.527940 -0.957642 0
M  V30 45 H -5.261670 -0.849387 -3.032129 0
M  V30 46 H -4.495530 2.922319 -2.798821 0
M  V30 47 H -4.937619 4.446742 -4.584537 0
M  V30 48 H -5.984247 3.639934 -6.663300 0
M  V30 49 H -6.609841 1.330023 -7.015452 0
M  V30 50 H -6.178147 -0.294330 -5.204203 0
M  V30 51 H -1.840018 -3.371825 -0.567864 0
M  V30 52 H -0.657322 -4.554576 -1.289062 0
M  V30 53 H -1.584616 -3.478758 -2.376701 0
M  V30 54 H 2.029535 -2.765639 -2.240267 0
M  V30 55 H 0.806499 -2.091255 -3.351828 0
M  V30 56 H 0.791126 -3.871059 -2.921388 0
M  V30 57 H 1.706670 -0.468806 4.103327 0
M  V30 58 H 4.244040 -1.648334 7.667851 0
M  V30 59 H 3.192931 -0.402232 8.551740 0
M  V30 60 H 2.649426 -2.105328 8.343933 0
M  V30 61 H 0.715104 -1.517412 7.491564 0
M  V30 62 H 0.843226 0.233062 6.938289 0
M  V30 63 H 0.691855 -1.133469 5.773753 0
M  V30 END ATOM
M  V30 BEGIN BOND
M  V30 1 1 1 2
M  V30 2 2 2 3
M  V30 3 1 3 4
M  V30 4 1 4 5
M  V30 5 1 5 6
M  V30 6 1 6 7
M  V30 7 1 7 8
M  V30 8 2 8 9
M  V30 9 1 9 10
M  V30 10 1 10 11
M  V30 11 1 11 12
M  V30 12 1 12 13
M  V30 13 2 13 14
M  V30 14 1 13 15
M  V30 15 1 15 16
M  V30 16 1 16 17
M  V30 17 1 17 18
M  V30 18 1 18 19
M  V30 19 2 19 20
M  V30 20 1 20 21
M  V30 21 2 21 22
M  V30 22 1 22 23
M  V30 23 2 23 24
M  V30 24 1 12 25
M  V30 25 1 25 26
M  V30 26 1 25 27
M  V30 27 2 4 28
M  V30 28 1 28 29
M  V30 29 1 29 30
M  V30 30 1 30 31
M  V30 31 1 30 32
M  V30 32 2 29 33
M  V30 33 1 33 2
M  V30 34 2 10 6
M  V30 35 1 18 16
M  V30 36 1 24 19
M  V30 37 1 25 9
M  V30 38 1 1 34
M  V30 39 1 1 35
M  V30 40 1 1 36
M  V30 41 1 5 37
M  V30 42 1 7 38
M  V30 43 1 11 39
M  V30 44 1 11 40
M  V30 45 1 15 41
M  V30 46 1 16 42 CFG=3
M  V30 47 1 17 43
M  V30 48 1 17 44
M  V30 49 1 18 45 CFG=3
M  V30 50 1 20 46
M  V30 51 1 21 47
M  V30 52 1 22 48
M  V30 53 1 23 49
M  V30 54 1 24 50
M  V30 55 1 26 51
M  V30 56 1 26 52
M  V30 57 1 26 53
M  V30 58 1 27 54
M  V30 59 1 27 55
M  V30 60 1 27 56
M  V30 61 1 28 57
M  V30 62 1 31 58
M  V30 63 1 31 59
M  V30 64 1 31 60
M  V30 65 1 32 61
M  V30 66 1 32 62
M  V30 67 1 32 63
M  V30 END BOND
M  V30 END CTAB
M  END
>  <Dataset>  (72) 
ChEMBL_Kinases

>  <Ligand_Instance>  (72) 
nan

>  <PDB_ID>  (72) 
nan

>  <Standardized_SMILES>  (72) 
Cc1nc(Nc2[nH]nc3c2CN(C(=O)N[C@@H]2C[C@H]2c2ccccc2)C3(C)C)cc(N(C)C)n1

>  <Name>  (72) 
nan

>  <Pocket>  (72) 
nan

>  <ATP_Site>  (72) 
nan

>  <Peripheral>  (72) 
nan

>  <Num_H_Atoms_ProtBoundConf>  (72) 
nan

>  <Num_Resolved_Atoms>  (72) 
nan

>  <Num_Not_Resolved_Atoms>  (72) 
nan

$$$$
CHEMBL3669623
     RDKit          3D

  0  0  0  0  0  0  0  0  0  0999 V3000
M  V30 BEGIN CTAB
M  V30 COUNTS 55 60 0 0 0
M  V30 BEGIN ATOM
M  V30 1 C -0.455790 -0.553740 3.646685 0
M  V30 2 C 0.371416 -1.683766 3.096494 0
M  V30 3 C 0.097425 -2.997194 3.773349 0
M  V30 4 C 1.809530 -1.291667 3.194439 0
M  V30 5 N 2.776205 -1.066641 4.093532 0
M  V30 6 N 3.906511 -0.726639 3.497162 0
M  V30 7 C 3.701968 -0.720979 2.164690 0
M  V30 8 N 4.590892 -0.425786 1.079265 0
M  V30 9 C 4.827882 0.854719 0.512916 0
M  V30 10 N 5.666212 1.078556 -0.515021 0
M  V30 11 C 5.746365 2.381519 -0.899237 0
M  V30 12 N 5.080724 3.409903 -0.352461 0
M  V30 13 C 4.226298 3.192686 0.692879 0
M  V30 14 C 3.511587 4.176972 1.308027 0
M  V30 15 C 2.696522 3.800482 2.344114 0
M  V30 16 S 2.969417 1.920343 2.444946 0
M  V30 17 C 4.137328 1.878517 1.090093 0
M  V30 18 C 2.372155 -1.077419 1.932768 0
M  V30 19 C 1.345067 -1.313074 0.861442 0
M  V30 20 N 0.206038 -1.732607 1.655514 0
M  V30 21 C -1.027555 -2.178520 1.086775 0
M  V30 22 O -2.054580 -2.554988 1.737930 0
M  V30 23 N -1.241815 -2.250223 -0.309028 0
M  V30 24 C -2.496035 -2.703879 -0.907369 0 CFG=2
M  V30 25 C -2.475228 -3.433760 -2.196456 0
M  V30 26 C -2.823818 -1.995858 -2.208821 0 CFG=1
M  V30 27 C -4.253099 -1.577388 -2.385033 0
M  V30 28 C -5.309187 -2.305069 -1.874922 0
M  V30 29 C -6.630033 -1.918883 -2.037521 0
M  V30 30 C -6.885802 -0.762475 -2.737047 0
M  V30 31 C -5.879402 0.013713 -3.274127 0
M  V30 32 C -4.571127 -0.410039 -3.087576 0
M  V30 33 H -0.671789 -0.655296 4.738335 0
M  V30 34 H 0.043224 0.424573 3.506864 0
M  V30 35 H -1.434739 -0.490706 3.121663 0
M  V30 36 H -0.597718 -3.649089 3.207245 0
M  V30 37 H 1.102709 -3.490357 3.912590 0
M  V30 38 H -0.320895 -2.856212 4.789562 0
M  V30 39 H 4.840225 -0.484752 3.846629 0
M  V30 40 H 5.110379 -1.201088 0.663231 0
M  V30 41 H 6.418364 2.593306 -1.730251 0
M  V30 42 H 3.494021 5.232226 1.092940 0
M  V30 43 H 2.024407 4.353826 3.006113 0
M  V30 44 H 1.067888 -0.373475 0.356702 0
M  V30 45 H 1.678000 -2.102099 0.160969 0
M  V30 46 H -0.456109 -1.961455 -0.965049 0
M  V30 47 H -3.281952 -2.981265 -0.206136 0
M  V30 48 H -3.226054 -4.235223 -2.349172 0
M  V30 49 H -1.494827 -3.727499 -2.647984 0
M  V30 50 H -2.098770 -1.314450 -2.661150 0
M  V30 51 H -5.112883 -3.224741 -1.317535 0
M  V30 52 H -7.444652 -2.508899 -1.625884 0
M  V30 53 H -7.898560 -0.399046 -2.903238 0
M  V30 54 H -6.018618 0.936030 -3.835759 0
M  V30 55 H -3.712639 0.147938 -3.481842 0
M  V30 END ATOM
M  V30 BEGIN BOND
M  V30 1 1 1 2
M  V30 2 1 2 3
M  V30 3 1 2 4
M  V30 4 2 4 5
M  V30 5 1 5 6
M  V30 6 1 6 7
M  V30 7 1 7 8
M  V30 8 1 8 9
M  V30 9 2 9 10
M  V30 10 1 10 11
M  V30 11 2 11 12
M  V30 12 1 12 13
M  V30 13 1 13 14
M  V30 14 2 14 15
M  V30 15 1 15 16
M  V30 16 1 16 17
M  V30 17 2 7 18
M  V30 18 1 18 19
M  V30 19 1 19 20
M  V30 20 1 20 21
M  V30 21 2 21 22
M  V30 22 1 21 23
M  V30 23 1 23 24
M  V30 24 1 24 25
M  V30 25 1 25 26
M  V30 26 1 26 27
M  V30 27 2 27 28
M  V30 28 1 28 29
M  V30 29 2 29 30
M  V30 30 1 30 31
M  V30 31 2 31 32
M  V30 32 1 20 2
M  V30 33 1 26 24
M  V30 34 1 32 27
M  V30 35 1 18 4
M  V30 36 1 17 9
M  V30 37 2 17 13
M  V30 38 1 1 33
M  V30 39 1 1 34
M  V30 40 1 1 35
M  V30 41 1 3 36
M  V30 42 1 3 37
M  V30 43 1 3 38
M  V30 44 1 6 39
M  V30 45 1 8 40
M  V30 46 1 11 41
M  V30 47 1 14 42
M  V30 48 1 15 43
M  V30 49 1 19 44
M  V30 50 1 19 45
M  V30 51 1 23 46
M  V30 52 1 24 47 CFG=1
M  V30 53 1 25 48
M  V30 54 1 25 49
M  V30 55 1 26 50 CFG=3
M  V30 56 1 28 51
M  V30 57 1 29 52
M  V30 58 1 30 53
M  V30 59 1 31 54
M  V30 60 1 32 55
M  V30 END BOND
M  V30 END CTAB
M  END
>  <Dataset>  (73) 
ChEMBL_Kinases

>  <Ligand_Instance>  (73) 
nan

>  <PDB_ID>  (73) 
nan

>  <Standardized_SMILES>  (73) 
CC1(C)c2n[nH]c(Nc3ncnc4ccsc34)c2CN1C(=O)N[C@@H]1C[C@H]1c1ccccc1

>  <Name>  (73) 
nan

>  <Pocket>  (73) 
nan

>  <ATP_Site>  (73) 
nan

>  <Peripheral>  (73) 
nan

>  <Num_H_Atoms_ProtBoundConf>  (73) 
nan

>  <Num_Resolved_Atoms>  (73) 
nan

>  <Num_Not_Resolved_Atoms>  (73) 
nan

$$$$
CHEMBL3669615
     RDKit          3D

  0  0  0  0  0  0  0  0  0  0999 V3000
M  V30 BEGIN CTAB
M  V30 COUNTS 58 63 0 0 0
M  V30 BEGIN ATOM
M  V30 1 C 7.797253 -3.432595 0.476605 0
M  V30 2 C 6.391046 -3.379749 -0.063488 0
M  V30 3 N 5.642303 -2.348816 0.364882 0
M  V30 4 C 4.393791 -2.280764 -0.094379 0
M  V30 5 N 3.369064 -1.352000 0.147480 0
M  V30 6 C 2.896995 -0.164093 -0.462242 0
M  V30 7 N 3.342959 0.456826 -1.563243 0
M  V30 8 N 2.626601 1.543930 -1.804789 0
M  V30 9 C 1.695597 1.597610 -0.807671 0
M  V30 10 C 1.834168 0.530969 0.065159 0
M  V30 11 C 0.763710 0.738606 1.076863 0
M  V30 12 N -0.289354 1.344007 0.284158 0
M  V30 13 C -1.680854 1.021354 0.109604 0
M  V30 14 O -2.445433 1.681327 -0.629340 0
M  V30 15 N -2.133825 -0.096923 0.831018 0
M  V30 16 C -3.514859 -0.511226 0.730127 0 CFG=1
M  V30 17 C -3.878715 -1.944199 0.656630 0
M  V30 18 C -4.091349 -1.176027 1.921637 0 CFG=2
M  V30 19 C -5.447417 -0.887951 2.395589 0
M  V30 20 C -6.440331 -0.504039 1.500323 0
M  V30 21 C -7.719313 -0.229845 1.922976 0
M  V30 22 C -8.072988 -0.323530 3.254252 0
M  V30 23 C -7.110769 -0.702418 4.172191 0
M  V30 24 C -5.858490 -0.964867 3.713547 0
M  V30 25 C 0.541465 2.404565 -0.291490 0
M  V30 26 C -0.155828 3.131861 -1.409207 0
M  V30 27 C 1.030489 3.374863 0.732723 0
M  V30 28 C 3.970089 -3.285449 -0.980963 0
M  V30 29 S 2.383507 -3.564382 -1.824078 0
M  V30 30 C 2.927605 -5.140605 -2.723764 0
M  V30 31 C 4.325666 -5.315711 -2.280073 0
M  V30 32 C 4.759583 -4.359417 -1.423602 0
M  V30 33 N 5.995657 -4.329821 -0.899996 0
M  V30 34 H 7.813121 -3.167443 1.545336 0
M  V30 35 H 8.145044 -4.502527 0.413709 0
M  V30 36 H 8.501379 -2.855420 -0.154968 0
M  V30 37 H 2.983012 -1.790035 0.984909 0
M  V30 38 H 4.134747 0.164450 -2.172976 0
M  V30 39 H 1.097668 1.439106 1.879176 0
M  V30 40 H 0.477579 -0.219033 1.543570 0
M  V30 41 H -1.506397 -0.673828 1.464664 0
M  V30 42 H -4.098728 0.159204 0.068785 0
M  V30 43 H -4.820676 -2.217532 0.141157 0
M  V30 44 H -3.139758 -2.748617 0.662049 0
M  V30 45 H -3.379415 -1.443578 2.749438 0
M  V30 46 H -6.279075 -0.398453 0.451725 0
M  V30 47 H -8.544702 0.075241 1.282838 0
M  V30 48 H -9.056467 -0.127727 3.685996 0
M  V30 49 H -7.284408 -0.805106 5.231798 0
M  V30 50 H -5.063533 -1.269707 4.409257 0
M  V30 51 H 0.623678 3.564759 -2.092816 0
M  V30 52 H -0.762416 2.449513 -2.052140 0
M  V30 53 H -0.726987 3.975290 -1.003838 0
M  V30 54 H 2.059653 3.145103 1.066468 0
M  V30 55 H 1.082533 4.388276 0.243380 0
M  V30 56 H 0.304622 3.376856 1.574567 0
M  V30 57 H 2.476347 -5.928966 -3.469627 0
M  V30 58 H 4.859760 -6.159169 -2.662633 0
M  V30 END ATOM
M  V30 BEGIN BOND
M  V30 1 1 1 2
M  V30 2 2 2 3
M  V30 3 1 3 4
M  V30 4 1 4 5
M  V30 5 1 5 6
M  V30 6 1 6 7
M  V30 7 1 7 8
M  V30 8 2 8 9
M  V30 9 1 9 10
M  V30 10 1 10 11
M  V30 11 1 11 12
M  V30 12 1 12 13
M  V30 13 2 13 14
M  V30 14 1 13 15
M  V30 15 1 15 16
M  V30 16 1 16 17
M  V30 17 1 17 18
M  V30 18 1 18 19
M  V30 19 2 19 20
M  V30 20 1 20 21
M  V30 21 2 21 22
M  V30 22 1 22 23
M  V30 23 2 23 24
M  V30 24 1 12 25
M  V30 25 1 25 26
M  V30 26 1 25 27
M  V30 27 2 4 28
M  V30 28 1 28 29
M  V30 29 1 29 30
M  V30 30 2 30 31
M  V30 31 1 31 32
M  V30 32 2 32 33
M  V30 33 1 33 2
M  V30 34 2 10 6
M  V30 35 1 18 16
M  V30 36 1 24 19
M  V30 37 1 32 28
M  V30 38 1 25 9
M  V30 39 1 1 34
M  V30 40 1 1 35
M  V30 41 1 1 36
M  V30 42 1 5 37
M  V30 43 1 7 38
M  V30 44 1 11 39
M  V30 45 1 11 40
M  V30 46 1 15 41
M  V30 47 1 16 42 CFG=3
M  V30 48 1 17 43
M  V30 49 1 17 44
M  V30 50 1 18 45 CFG=1
M  V30 51 1 20 46
M  V30 52 1 21 47
M  V30 53 1 22 48
M  V30 54 1 23 49
M  V30 55 1 24 50
M  V30 56 1 26 51
M  V30 57 1 26 52
M  V30 58 1 26 53
M  V30 59 1 27 54
M  V30 60 1 27 55
M  V30 61 1 27 56
M  V30 62 1 30 57
M  V30 63 1 31 58
M  V30 END BOND
M  V30 END CTAB
M  END
>  <Dataset>  (74) 
ChEMBL_Kinases

>  <Ligand_Instance>  (74) 
nan

>  <PDB_ID>  (74) 
nan

>  <Standardized_SMILES>  (74) 
Cc1nc(Nc2[nH]nc3c2CN(C(=O)N[C@H]2C[C@@H]2c2ccccc2)C3(C)C)c2sccc2n1

>  <Name>  (74) 
nan

>  <Pocket>  (74) 
nan

>  <ATP_Site>  (74) 
nan

>  <Peripheral>  (74) 
nan

>  <Num_H_Atoms_ProtBoundConf>  (74) 
nan

>  <Num_Resolved_Atoms>  (74) 
nan

>  <Num_Not_Resolved_Atoms>  (74) 
nan

$$$$
CHEMBL3669616
     RDKit          3D

  0  0  0  0  0  0  0  0  0  0999 V3000
M  V30 BEGIN CTAB
M  V30 COUNTS 55 60 0 0 0
M  V30 BEGIN ATOM
M  V30 1 C -0.697024 -0.841299 3.781775 0
M  V30 2 C 0.328664 -1.770790 3.219581 0
M  V30 3 C 0.287154 -3.145751 3.829562 0
M  V30 4 C 1.665418 -1.144987 3.324031 0
M  V30 5 N 2.583548 -0.705872 4.233640 0
M  V30 6 N 3.634236 -0.218400 3.564139 0
M  V30 7 C 3.464291 -0.309875 2.210840 0
M  V30 8 N 4.417873 0.130222 1.296001 0
M  V30 9 C 4.721162 1.334241 0.647156 0
M  V30 10 N 5.752201 1.330153 -0.187617 0
M  V30 11 C 6.214990 2.331576 -0.894528 0
M  V30 12 N 5.583277 3.500114 -0.768932 0
M  V30 13 C 4.509626 3.616975 0.062970 0
M  V30 14 S 3.336844 4.991728 0.559789 0
M  V30 15 C 2.312431 3.924142 1.744111 0
M  V30 16 C 2.937777 2.688470 1.645528 0
M  V30 17 C 4.010430 2.482762 0.843216 0
M  V30 18 C 2.202877 -0.903670 2.076637 0
M  V30 19 C 1.282527 -1.349534 0.998366 0
M  V30 20 N 0.141416 -1.822773 1.767734 0
M  V30 21 C -1.070101 -2.306486 1.219209 0
M  V30 22 O -2.083183 -2.720707 1.879933 0
M  V30 23 N -1.258873 -2.370700 -0.186356 0
M  V30 24 C -2.455667 -2.847198 -0.893819 0 CFG=2
M  V30 25 C -2.329861 -3.513167 -2.202435 0
M  V30 26 C -2.695205 -2.081320 -2.182063 0 CFG=1
M  V30 27 C -4.097087 -1.639917 -2.407400 0
M  V30 28 C -5.236551 -2.350104 -2.008881 0
M  V30 29 C -6.497376 -1.866168 -2.260890 0
M  V30 30 C -6.714050 -0.681140 -2.905778 0
M  V30 31 C -5.625602 0.075120 -3.329117 0
M  V30 32 C -4.372444 -0.434376 -3.062917 0
M  V30 33 H -0.343284 0.196102 3.891503 0
M  V30 34 H -1.027511 -1.161081 4.803066 0
M  V30 35 H -1.625819 -0.816186 3.176579 0
M  V30 36 H -0.614072 -3.705642 3.587754 0
M  V30 37 H 1.231681 -3.662645 3.499435 0
M  V30 38 H 0.380879 -3.033143 4.927534 0
M  V30 39 H 4.429410 0.159602 4.123976 0
M  V30 40 H 4.971160 -0.740506 1.143417 0
M  V30 41 H 7.034717 2.402416 -1.582340 0
M  V30 42 H 1.487514 4.319290 2.282819 0
M  V30 43 H 2.467502 1.956474 2.269503 0
M  V30 44 H 0.998091 -0.520936 0.318903 0
M  V30 45 H 1.673266 -2.235399 0.458428 0
M  V30 46 H -0.437337 -2.035243 -0.769159 0
M  V30 47 H -3.271640 -3.152363 -0.244359 0
M  V30 48 H -3.115277 -4.250325 -2.463382 0
M  V30 49 H -1.337651 -3.816752 -2.578372 0
M  V30 50 H -1.917286 -1.400448 -2.556705 0
M  V30 51 H -5.066543 -3.289785 -1.497585 0
M  V30 52 H -7.360342 -2.434666 -1.942028 0
M  V30 53 H -7.677462 -0.245740 -3.134231 0
M  V30 54 H -5.695571 1.026999 -3.847887 0
M  V30 55 H -3.493063 0.117776 -3.373105 0
M  V30 END ATOM
M  V30 BEGIN BOND
M  V30 1 1 1 2
M  V30 2 1 2 3
M  V30 3 1 2 4
M  V30 4 2 4 5
M  V30 5 1 5 6
M  V30 6 1 6 7
M  V30 7 1 7 8
M  V30 8 1 8 9
M  V30 9 2 9 10
M  V30 10 1 10 11
M  V30 11 2 11 12
M  V30 12 1 12 13
M  V30 13 1 13 14
M  V30 14 1 14 15
M  V30 15 2 15 16
M  V30 16 1 16 17
M  V30 17 2 7 18
M  V30 18 1 18 19
M  V30 19 1 19 20
M  V30 20 1 20 21
M  V30 21 2 21 22
M  V30 22 1 21 23
M  V30 23 1 23 24
M  V30 24 1 24 25
M  V30 25 1 25 26
M  V30 26 1 26 27
M  V30 27 2 27 28
M  V30 28 1 28 29
M  V30 29 2 29 30
M  V30 30 1 30 31
M  V30 31 2 31 32
M  V30 32 1 20 2
M  V30 33 1 26 24
M  V30 34 1 32 27
M  V30 35 1 18 4
M  V30 36 1 17 9
M  V30 37 2 17 13
M  V30 38 1 1 33
M  V30 39 1 1 34
M  V30 40 1 1 35
M  V30 41 1 3 36
M  V30 42 1 3 37
M  V30 43 1 3 38
M  V30 44 1 6 39
M  V30 45 1 8 40
M  V30 46 1 11 41
M  V30 47 1 15 42
M  V30 48 1 16 43
M  V30 49 1 19 44
M  V30 50 1 19 45
M  V30 51 1 23 46
M  V30 52 1 24 47 CFG=1
M  V30 53 1 25 48
M  V30 54 1 25 49
M  V30 55 1 26 50 CFG=3
M  V30 56 1 28 51
M  V30 57 1 29 52
M  V30 58 1 30 53
M  V30 59 1 31 54
M  V30 60 1 32 55
M  V30 END BOND
M  V30 END CTAB
M  END
>  <Dataset>  (75) 
ChEMBL_Kinases

>  <Ligand_Instance>  (75) 
nan

>  <PDB_ID>  (75) 
nan

>  <Standardized_SMILES>  (75) 
CC1(C)c2n[nH]c(Nc3ncnc4sccc34)c2CN1C(=O)N[C@@H]1C[C@H]1c1ccccc1

>  <Name>  (75) 
nan

>  <Pocket>  (75) 
nan

>  <ATP_Site>  (75) 
nan

>  <Peripheral>  (75) 
nan

>  <Num_H_Atoms_ProtBoundConf>  (75) 
nan

>  <Num_Resolved_Atoms>  (75) 
nan

>  <Num_Not_Resolved_Atoms>  (75) 
nan

$$$$
CHEMBL3669617
     RDKit          3D

  0  0  0  0  0  0  0  0  0  0999 V3000
M  V30 BEGIN CTAB
M  V30 COUNTS 56 60 0 0 0
M  V30 BEGIN ATOM
M  V30 1 C 2.896395 1.809116 8.077941 0
M  V30 2 O 2.799108 2.280851 6.768299 0
M  V30 3 C 3.054847 1.439707 5.713643 0
M  V30 4 N 3.395197 0.167735 6.029629 0
M  V30 5 C 3.652942 -0.682454 4.994348 0
M  V30 6 C 3.552558 -0.201023 3.703121 0
M  V30 7 F 3.817858 -1.083766 2.723504 0
M  V30 8 C 3.200578 1.110980 3.415020 0
M  V30 9 N 3.115157 1.544850 2.043057 0
M  V30 10 C 3.412254 0.545423 1.060890 0
M  V30 11 N 4.569350 0.181552 0.466434 0
M  V30 12 N 4.347743 -0.802649 -0.384669 0
M  V30 13 C 3.034299 -1.120258 -0.378875 0
M  V30 14 C 2.409119 -0.271089 0.539811 0
M  V30 15 C 0.974076 -0.632661 0.532787 0
M  V30 16 N 0.794479 -1.366830 -0.707800 0
M  V30 17 C -0.308509 -1.519442 -1.617795 0
M  V30 18 O -0.352323 -2.190243 -2.677699 0
M  V30 19 N -1.473286 -0.783708 -1.197458 0
M  V30 20 C -2.667896 -0.829966 -1.999691 0 CFG=2
M  V30 21 C -3.350392 0.477799 -2.149524 0
M  V30 22 C -3.977599 -0.694412 -1.370339 0 CFG=1
M  V30 23 C -5.222389 -1.171953 -1.973725 0
M  V30 24 C -6.342675 -1.495483 -1.230289 0
M  V30 25 C -7.496581 -1.941900 -1.834793 0
M  V30 26 C -7.593938 -2.088634 -3.206289 0
M  V30 27 C -6.456344 -1.758032 -3.936119 0
M  V30 28 C -5.270687 -1.303529 -3.365810 0
M  V30 29 C 2.033759 -2.054216 -1.008071 0
M  V30 30 C 2.315509 -2.032821 -2.491702 0
M  V30 31 C 2.126300 -3.428154 -0.409555 0
M  V30 32 N 2.956076 1.912122 4.457632 0
M  V30 33 H 3.411740 0.847732 8.100283 0
M  V30 34 H 3.453427 2.531434 8.717181 0
M  V30 35 H 1.865033 1.741318 8.522156 0
M  V30 36 H 3.932954 -1.723757 5.196167 0
M  V30 37 H 2.844655 2.546119 1.905988 0
M  V30 38 H 5.454276 0.678947 0.722022 0
M  V30 39 H 0.660783 -1.209925 1.422776 0
M  V30 40 H 0.305066 0.261906 0.497639 0
M  V30 41 H -1.514756 -0.198995 -0.322347 0
M  V30 42 H -2.560185 -1.457142 -2.899347 0
M  V30 43 H -3.116188 1.338506 -1.512511 0
M  V30 44 H -3.726140 0.726631 -3.140993 0
M  V30 45 H -4.021014 -0.617983 -0.266050 0
M  V30 46 H -6.323763 -1.400708 -0.161504 0
M  V30 47 H -8.384038 -2.200472 -1.273432 0
M  V30 48 H -8.478757 -2.435872 -3.729382 0
M  V30 49 H -6.470132 -1.852855 -5.026900 0
M  V30 50 H -4.428212 -1.068113 -4.020379 0
M  V30 51 H 1.878699 -2.918139 -2.980782 0
M  V30 52 H 3.402933 -1.939947 -2.657406 0
M  V30 53 H 1.861176 -1.072487 -2.868183 0
M  V30 54 H 1.422311 -3.608839 0.427631 0
M  V30 55 H 3.156460 -3.537018 0.028692 0
M  V30 56 H 2.052192 -4.253118 -1.144391 0
M  V30 END ATOM
M  V30 BEGIN BOND
M  V30 1 1 1 2
M  V30 2 1 2 3
M  V30 3 2 3 4
M  V30 4 1 4 5
M  V30 5 2 5 6
M  V30 6 1 6 7
M  V30 7 1 6 8
M  V30 8 1 8 9
M  V30 9 1 9 10
M  V30 10 1 10 11
M  V30 11 1 11 12
M  V30 12 2 12 13
M  V30 13 1 13 14
M  V30 14 1 14 15
M  V30 15 1 15 16
M  V30 16 1 16 17
M  V30 17 2 17 18
M  V30 18 1 17 19
M  V30 19 1 19 20
M  V30 20 1 20 21
M  V30 21 1 21 22
M  V30 22 1 22 23
M  V30 23 2 23 24
M  V30 24 1 24 25
M  V30 25 2 25 26
M  V30 26 1 26 27
M  V30 27 2 27 28
M  V30 28 1 16 29
M  V30 29 1 29 30
M  V30 30 1 29 31
M  V30 31 2 8 32
M  V30 32 1 32 3
M  V30 33 2 14 10
M  V30 34 1 22 20
M  V30 35 1 28 23
M  V30 36 1 29 13
M  V30 37 1 1 33
M  V30 38 1 1 34
M  V30 39 1 1 35
M  V30 40 1 5 36
M  V30 41 1 9 37
M  V30 42 1 11 38
M  V30 43 1 15 39
M  V30 44 1 15 40
M  V30 45 1 19 41
M  V30 46 1 20 42 CFG=3
M  V30 47 1 21 43
M  V30 48 1 21 44
M  V30 49 1 22 45 CFG=1
M  V30 50 1 24 46
M  V30 51 1 25 47
M  V30 52 1 26 48
M  V30 53 1 27 49
M  V30 54 1 28 50
M  V30 55 1 30 51
M  V30 56 1 30 52
M  V30 57 1 30 53
M  V30 58 1 31 54
M  V30 59 1 31 55
M  V30 60 1 31 56
M  V30 END BOND
M  V30 END CTAB
M  END
>  <Dataset>  (76) 
ChEMBL_Kinases

>  <Ligand_Instance>  (76) 
nan

>  <PDB_ID>  (76) 
nan

>  <Standardized_SMILES>  (76) 
COc1ncc(F)c(Nc2[nH]nc3c2CN(C(=O)N[C@@H]2C[C@H]2c2ccccc2)C3(C)C)n1

>  <Name>  (76) 
nan

>  <Pocket>  (76) 
nan

>  <ATP_Site>  (76) 
nan

>  <Peripheral>  (76) 
nan

>  <Num_H_Atoms_ProtBoundConf>  (76) 
nan

>  <Num_Resolved_Atoms>  (76) 
nan

>  <Num_Not_Resolved_Atoms>  (76) 
nan

$$$$
CHEMBL3669618
     RDKit          3D

  0  0  0  0  0  0  0  0  0  0999 V3000
M  V30 BEGIN CTAB
M  V30 COUNTS 55 59 0 0 0
M  V30 BEGIN ATOM
M  V30 1 C 1.057810 -0.538894 5.286959 0
M  V30 2 C 2.459935 -0.176513 4.907375 0
M  V30 3 N 3.420137 -0.448955 5.777778 0
M  V30 4 C 4.691927 -0.137602 5.467491 0
M  V30 5 C 4.926165 0.451762 4.251986 0
M  V30 6 F 6.245647 0.745025 3.993849 0
M  V30 7 C 3.953000 0.750941 3.319144 0
M  V30 8 N 4.250874 1.358282 2.092500 0
M  V30 9 C 3.438819 1.730869 1.011972 0
M  V30 10 N 3.969501 2.363619 -0.079281 0
M  V30 11 N 3.021051 2.610818 -0.950283 0
M  V30 12 C 1.838987 2.172598 -0.507922 0
M  V30 13 C 2.094123 1.608691 0.743560 0
M  V30 14 C 0.797612 1.131111 1.213566 0
M  V30 15 N 0.119482 0.801232 -0.055103 0
M  V30 16 C -0.530035 -0.451228 -0.228511 0
M  V30 17 O -0.293538 -0.940685 0.909296 0
M  V30 18 N -1.234109 -1.031306 -1.302439 0
M  V30 19 C -1.789257 -2.357800 -1.154798 0 CFG=2
M  V30 20 C -1.466816 -3.319832 -2.262967 0
M  V30 21 C -2.850291 -2.753845 -2.116766 0 CFG=1
M  V30 22 C -3.846674 -3.808641 -1.708370 0
M  V30 23 C -3.521747 -4.796123 -0.783997 0
M  V30 24 C -4.413589 -5.752959 -0.408108 0
M  V30 25 C -5.689279 -5.770130 -0.943797 0
M  V30 26 C -6.052967 -4.794861 -1.874776 0
M  V30 27 C -5.120534 -3.845944 -2.227200 0
M  V30 28 C 0.384691 2.033259 -0.775874 0
M  V30 29 C 0.091817 1.940193 -2.252563 0
M  V30 30 C -0.311705 3.214459 -0.177524 0
M  V30 31 N 2.739182 0.394896 3.743961 0
M  V30 32 H 0.545421 0.321754 5.714524 0
M  V30 33 H 0.515464 -0.946423 4.411614 0
M  V30 34 H 1.073621 -1.347336 6.062153 0
M  V30 35 H 5.495979 -0.347692 6.157806 0
M  V30 36 H 5.296602 1.558190 2.000019 0
M  V30 37 H 4.901072 2.679617 -0.368155 0
M  V30 38 H 0.215119 1.955460 1.726193 0
M  V30 39 H 0.780862 0.298210 1.903468 0
M  V30 40 H -1.265021 -0.390025 -2.112255 0
M  V30 41 H -1.691417 -2.838546 -0.146762 0
M  V30 42 H -0.887761 -2.925184 -3.119465 0
M  V30 43 H -1.260464 -4.393361 -2.036491 0
M  V30 44 H -3.224423 -2.024931 -2.848413 0
M  V30 45 H -2.529761 -4.813264 -0.342661 0
M  V30 46 H -4.154141 -6.530449 0.320650 0
M  V30 47 H -6.448669 -6.475879 -0.709470 0
M  V30 48 H -7.015568 -4.681563 -2.379469 0
M  V30 49 H -5.344002 -3.053434 -2.954458 0
M  V30 50 H -1.001103 1.968997 -2.433453 0
M  V30 51 H 0.480422 2.899215 -2.692554 0
M  V30 52 H 0.606561 1.123734 -2.757241 0
M  V30 53 H -1.289382 2.937543 0.261572 0
M  V30 54 H -0.544289 3.926326 -1.002531 0
M  V30 55 H 0.309743 3.775666 0.543472 0
M  V30 END ATOM
M  V30 BEGIN BOND
M  V30 1 1 1 2
M  V30 2 2 2 3
M  V30 3 1 3 4
M  V30 4 2 4 5
M  V30 5 1 5 6
M  V30 6 1 5 7
M  V30 7 1 7 8
M  V30 8 1 8 9
M  V30 9 1 9 10
M  V30 10 1 10 11
M  V30 11 2 11 12
M  V30 12 1 12 13
M  V30 13 1 13 14
M  V30 14 1 14 15
M  V30 15 1 15 16
M  V30 16 2 16 17
M  V30 17 1 16 18
M  V30 18 1 18 19
M  V30 19 1 19 20
M  V30 20 1 20 21
M  V30 21 1 21 22
M  V30 22 2 22 23
M  V30 23 1 23 24
M  V30 24 2 24 25
M  V30 25 1 25 26
M  V30 26 2 26 27
M  V30 27 1 15 28
M  V30 28 1 28 29
M  V30 29 1 28 30
M  V30 30 2 7 31
M  V30 31 1 31 2
M  V30 32 2 13 9
M  V30 33 1 21 19
M  V30 34 1 27 22
M  V30 35 1 28 12
M  V30 36 1 1 32
M  V30 37 1 1 33
M  V30 38 1 1 34
M  V30 39 1 4 35
M  V30 40 1 8 36
M  V30 41 1 10 37
M  V30 42 1 14 38
M  V30 43 1 14 39
M  V30 44 1 18 40
M  V30 45 1 19 41 CFG=1
M  V30 46 1 20 42
M  V30 47 1 20 43
M  V30 48 1 21 44 CFG=3
M  V30 49 1 23 45
M  V30 50 1 24 46
M  V30 51 1 25 47
M  V30 52 1 26 48
M  V30 53 1 27 49
M  V30 54 1 29 50
M  V30 55 1 29 51
M  V30 56 1 29 52
M  V30 57 1 30 53
M  V30 58 1 30 54
M  V30 59 1 30 55
M  V30 END BOND
M  V30 END CTAB
M  END
>  <Dataset>  (77) 
ChEMBL_Kinases

>  <Ligand_Instance>  (77) 
nan

>  <PDB_ID>  (77) 
nan

>  <Standardized_SMILES>  (77) 
Cc1ncc(F)c(Nc2[nH]nc3c2CN(C(=O)N[C@@H]2C[C@H]2c2ccccc2)C3(C)C)n1

>  <Name>  (77) 
nan

>  <Pocket>  (77) 
nan

>  <ATP_Site>  (77) 
nan

>  <Peripheral>  (77) 
nan

>  <Num_H_Atoms_ProtBoundConf>  (77) 
nan

>  <Num_Resolved_Atoms>  (77) 
nan

>  <Num_Not_Resolved_Atoms>  (77) 
nan

$$$$
CHEMBL3669619
     RDKit          3D

  0  0  0  0  0  0  0  0  0  0999 V3000
M  V30 BEGIN CTAB
M  V30 COUNTS 58 63 0 0 0
M  V30 BEGIN ATOM
M  V30 1 C 0.989071 -3.722418 3.911750 0
M  V30 2 C 1.530879 -2.507755 3.229347 0
M  V30 3 C 3.008284 -2.646171 2.944256 0
M  V30 4 C 1.265813 -1.312163 4.090012 0
M  V30 5 N 1.635115 -0.407148 5.012014 0
M  V30 6 N 0.641871 0.446098 5.233461 0
M  V30 7 C -0.441050 0.138204 4.456297 0
M  V30 8 N -1.615835 0.913685 4.510214 0
M  V30 9 C -1.486796 1.715663 3.335642 0
M  V30 10 N -0.578871 2.660242 3.035522 0
M  V30 11 C -0.705175 3.259303 1.838276 0
M  V30 12 C 0.338989 4.298947 1.560088 0
M  V30 13 F 0.152107 4.909490 0.337483 0
M  V30 14 F 1.541722 3.594686 1.480064 0
M  V30 15 F 0.409040 5.199408 2.606479 0
M  V30 16 N -1.637358 2.999251 0.943242 0
M  V30 17 C -2.589602 2.072889 1.150777 0
M  V30 18 C -3.584165 1.750195 0.279733 0
M  V30 19 C -4.493450 0.758324 0.663795 0
M  V30 20 S -3.864851 0.264680 2.393364 0
M  V30 21 C -2.469770 1.448333 2.380666 0
M  V30 22 C -0.032990 -0.963409 3.748029 0
M  V30 23 C -0.500769 -1.927441 2.716940 0
M  V30 24 N 0.791402 -2.155106 2.031450 0
M  V30 25 C 1.140775 -2.047146 0.642009 0
M  V30 26 O 2.354331 -2.287768 0.306603 0
M  V30 27 N 0.150003 -1.684805 -0.282336 0
M  V30 28 C 0.597639 -1.590148 -1.682688 0 CFG=2
M  V30 29 C 0.016080 -0.331699 -2.321731 0
M  V30 30 C -0.353353 -1.746505 -2.780614 0 CFG=1
M  V30 31 C 0.172313 -2.028320 -4.138093 0
M  V30 32 C -0.799014 -2.488221 -5.028275 0
M  V30 33 C -0.443210 -2.799727 -6.347410 0
M  V30 34 C 0.851351 -2.662429 -6.788814 0
M  V30 35 C 1.803515 -2.203528 -5.890508 0
M  V30 36 C 1.467716 -1.886909 -4.569128 0
M  V30 37 H 0.502016 -4.454112 3.234271 0
M  V30 38 H 0.327864 -3.447935 4.772851 0
M  V30 39 H 1.851531 -4.266822 4.347976 0
M  V30 40 H 3.477164 -1.704140 2.647078 0
M  V30 41 H 3.490581 -2.990873 3.899065 0
M  V30 42 H 3.146303 -3.434822 2.174297 0
M  V30 43 H 0.864921 1.191686 5.950923 0
M  V30 44 H -2.387548 0.908598 5.222047 0
M  V30 45 H -3.763129 2.174834 -0.692641 0
M  V30 46 H -5.356035 0.360185 0.117212 0
M  V30 47 H -1.209322 -1.435516 2.014615 0
M  V30 48 H -0.908973 -2.824560 3.166744 0
M  V30 49 H -0.827267 -1.497930 0.011515 0
M  V30 50 H 1.663436 -1.759952 -1.844909 0
M  V30 51 H 0.661181 0.303392 -2.944007 0
M  V30 52 H -0.826657 0.195829 -1.847618 0
M  V30 53 H -1.397522 -2.082928 -2.602538 0
M  V30 54 H -1.863612 -2.663793 -4.881003 0
M  V30 55 H -1.146279 -3.166546 -7.114551 0
M  V30 56 H 1.167278 -2.894848 -7.811724 0
M  V30 57 H 2.849537 -2.055364 -6.122057 0
M  V30 58 H 2.167383 -1.522815 -3.818195 0
M  V30 END ATOM
M  V30 BEGIN BOND
M  V30 1 1 1 2
M  V30 2 1 2 3
M  V30 3 1 2 4
M  V30 4 2 4 5
M  V30 5 1 5 6
M  V30 6 1 6 7
M  V30 7 1 7 8
M  V30 8 1 8 9
M  V30 9 2 9 10
M  V30 10 1 10 11
M  V30 11 1 11 12
M  V30 12 1 12 13
M  V30 13 1 12 14
M  V30 14 1 12 15
M  V30 15 2 11 16
M  V30 16 1 16 17
M  V30 17 1 17 18
M  V30 18 2 18 19
M  V30 19 1 19 20
M  V30 20 1 20 21
M  V30 21 2 7 22
M  V30 22 1 22 23
M  V30 23 1 23 24
M  V30 24 1 24 25
M  V30 25 2 25 26
M  V30 26 1 25 27
M  V30 27 1 27 28
M  V30 28 1 28 29
M  V30 29 1 29 30
M  V30 30 1 30 31
M  V30 31 2 31 32
M  V30 32 1 32 33
M  V30 33 2 33 34
M  V30 34 1 34 35
M  V30 35 2 35 36
M  V30 36 1 24 2
M  V30 37 1 30 28
M  V30 38 1 36 31
M  V30 39 1 22 4
M  V30 40 1 21 9
M  V30 41 2 21 17
M  V30 42 1 1 37
M  V30 43 1 1 38
M  V30 44 1 1 39
M  V30 45 1 3 40
M  V30 46 1 3 41
M  V30 47 1 3 42
M  V30 48 1 6 43
M  V30 49 1 8 44
M  V30 50 1 18 45
M  V30 51 1 19 46
M  V30 52 1 23 47
M  V30 53 1 23 48
M  V30 54 1 27 49
M  V30 55 1 28 50 CFG=3
M  V30 56 1 29 51
M  V30 57 1 29 52
M  V30 58 1 30 53 CFG=1
M  V30 59 1 32 54
M  V30 60 1 33 55
M  V30 61 1 34 56
M  V30 62 1 35 57
M  V30 63 1 36 58
M  V30 END BOND
M  V30 END CTAB
M  END
>  <Dataset>  (78) 
ChEMBL_Kinases

>  <Ligand_Instance>  (78) 
nan

>  <PDB_ID>  (78) 
nan

>  <Standardized_SMILES>  (78) 
CC1(C)c2n[nH]c(Nc3nc(C(F)(F)F)nc4ccsc34)c2CN1C(=O)N[C@@H]1C[C@H]1c1ccccc1

>  <Name>  (78) 
nan

>  <Pocket>  (78) 
nan

>  <ATP_Site>  (78) 
nan

>  <Peripheral>  (78) 
nan

>  <Num_H_Atoms_ProtBoundConf>  (78) 
nan

>  <Num_Resolved_Atoms>  (78) 
nan

>  <Num_Not_Resolved_Atoms>  (78) 
nan

$$$$
CHEMBL3669620
     RDKit          3D

  0  0  0  0  0  0  0  0  0  0999 V3000
M  V30 BEGIN CTAB
M  V30 COUNTS 58 63 0 0 0
M  V30 BEGIN ATOM
M  V30 1 C 5.218428 -1.912751 6.039304 0
M  V30 2 C 5.320196 -1.742387 4.571189 0
M  V30 3 N 4.439779 -1.302125 3.700757 0
M  V30 4 C 4.559592 -1.155686 2.389986 0
M  V30 5 N 3.480302 -0.669393 1.605199 0
M  V30 6 C 2.814983 -1.461730 0.631851 0
M  V30 7 N 3.142399 -2.723720 0.304812 0
M  V30 8 N 2.341647 -3.177788 -0.640706 0
M  V30 9 C 1.452454 -2.190667 -0.955396 0
M  V30 10 C 1.744506 -1.088014 -0.147761 0
M  V30 11 C 0.751635 -0.007426 -0.492900 0
M  V30 12 N -0.381590 -0.859892 -0.857048 0
M  V30 13 C -1.792502 -0.977592 -0.561622 0
M  V30 14 O -2.700508 -1.761856 -0.898869 0
M  V30 15 N -2.238800 0.045205 0.315155 0
M  V30 16 C -3.597102 0.170305 0.774338 0 CFG=1
M  V30 17 C -4.028897 0.957504 1.926168 0
M  V30 18 C -4.330141 1.453947 0.577897 0 CFG=2
M  V30 19 C -5.706334 1.386031 0.008988 0
M  V30 20 C -6.563678 0.374486 0.437599 0
M  V30 21 C -7.842027 0.296854 -0.089391 0
M  V30 22 C -8.335695 1.182808 -1.039326 0
M  V30 23 C -7.489949 2.192218 -1.471222 0
M  V30 24 C -6.242706 2.240186 -0.934606 0
M  V30 25 C 0.306146 -1.741074 -1.781254 0
M  V30 26 C -0.520693 -2.884073 -2.290147 0
M  V30 27 C 0.913284 -0.937100 -2.931979 0
M  V30 28 C 5.765334 -1.504298 1.821844 0
M  V30 29 C 6.158527 -1.457408 0.504469 0
M  V30 30 C 7.426946 -1.859364 0.127736 0
M  V30 31 S 8.207379 -2.356799 1.643142 0
M  V30 32 C 6.738707 -1.980944 2.710785 0
M  V30 33 N 6.494460 -2.087559 4.052290 0
M  V30 34 H 4.302744 -1.380262 6.376437 0
M  V30 35 H 6.131772 -1.477532 6.540129 0
M  V30 36 H 5.181046 -2.978253 6.309385 0
M  V30 37 H 3.240981 0.317682 1.826174 0
M  V30 38 H 2.245842 -4.084398 -1.174296 0
M  V30 39 H 0.516617 0.603188 0.405033 0
M  V30 40 H 1.135114 0.586854 -1.335688 0
M  V30 41 H -1.649263 0.809721 0.719283 0
M  V30 42 H -4.222625 -0.714155 0.497103 0
M  V30 43 H -4.837411 0.591329 2.614570 0
M  V30 44 H -3.223315 1.453078 2.532725 0
M  V30 45 H -3.790125 2.360481 0.237830 0
M  V30 46 H -6.192121 -0.311412 1.169396 0
M  V30 47 H -8.536962 -0.489551 0.231063 0
M  V30 48 H -9.336281 1.104035 -1.436899 0
M  V30 49 H -7.789498 2.938155 -2.217223 0
M  V30 50 H -5.548720 3.028618 -1.260792 0
M  V30 51 H -1.500017 -2.607254 -2.675853 0
M  V30 52 H -0.573251 -3.706119 -1.568788 0
M  V30 53 H 0.070043 -3.306900 -3.159580 0
M  V30 54 H 1.964567 -0.661331 -2.719206 0
M  V30 55 H 0.930624 -1.605815 -3.826503 0
M  V30 56 H 0.364612 0.016102 -3.115726 0
M  V30 57 H 5.494688 -1.104497 -0.304267 0
M  V30 58 H 7.859464 -1.879514 -0.828323 0
M  V30 END ATOM
M  V30 BEGIN BOND
M  V30 1 1 1 2
M  V30 2 2 2 3
M  V30 3 1 3 4
M  V30 4 1 4 5
M  V30 5 1 5 6
M  V30 6 2 6 7
M  V30 7 1 7 8
M  V30 8 1 8 9
M  V30 9 2 9 10
M  V30 10 1 10 11
M  V30 11 1 11 12
M  V30 12 1 12 13
M  V30 13 2 13 14
M  V30 14 1 13 15
M  V30 15 1 15 16
M  V30 16 1 16 17
M  V30 17 1 17 18
M  V30 18 1 18 19
M  V30 19 2 19 20
M  V30 20 1 20 21
M  V30 21 2 21 22
M  V30 22 1 22 23
M  V30 23 2 23 24
M  V30 24 1 12 25
M  V30 25 1 25 26
M  V30 26 1 25 27
M  V30 27 2 4 28
M  V30 28 1 28 29
M  V30 29 2 29 30
M  V30 30 1 30 31
M  V30 31 1 31 32
M  V30 32 2 32 33
M  V30 33 1 33 2
M  V30 34 1 10 6
M  V30 35 1 18 16
M  V30 36 1 24 19
M  V30 37 1 32 28
M  V30 38 1 25 9
M  V30 39 1 1 34
M  V30 40 1 1 35
M  V30 41 1 1 36
M  V30 42 1 5 37
M  V30 43 1 8 38
M  V30 44 1 11 39
M  V30 45 1 11 40
M  V30 46 1 15 41
M  V30 47 1 16 42 CFG=1
M  V30 48 1 17 43
M  V30 49 1 17 44
M  V30 50 1 18 45 CFG=3
M  V30 51 1 20 46
M  V30 52 1 21 47
M  V30 53 1 22 48
M  V30 54 1 23 49
M  V30 55 1 24 50
M  V30 56 1 26 51
M  V30 57 1 26 52
M  V30 58 1 26 53
M  V30 59 1 27 54
M  V30 60 1 27 55
M  V30 61 1 27 56
M  V30 62 1 29 57
M  V30 63 1 30 58
M  V30 END BOND
M  V30 END CTAB
M  END
>  <Dataset>  (79) 
ChEMBL_Kinases

>  <Ligand_Instance>  (79) 
nan

>  <PDB_ID>  (79) 
nan

>  <Standardized_SMILES>  (79) 
Cc1nc(Nc2n[nH]c3c2CN(C(=O)N[C@H]2C[C@@H]2c2ccccc2)C3(C)C)c2ccsc2n1

>  <Name>  (79) 
nan

>  <Pocket>  (79) 
nan

>  <ATP_Site>  (79) 
nan

>  <Peripheral>  (79) 
nan

>  <Num_H_Atoms_ProtBoundConf>  (79) 
nan

>  <Num_Resolved_Atoms>  (79) 
nan

>  <Num_Not_Resolved_Atoms>  (79) 
nan

$$$$
CHEMBL3669621
     RDKit          3D

  0  0  0  0  0  0  0  0  0  0999 V3000
M  V30 BEGIN CTAB
M  V30 COUNTS 52 56 0 0 0
M  V30 BEGIN ATOM
M  V30 1 C 2.582477 -2.567282 2.423144 0
M  V30 2 C 2.427913 -1.384402 1.493370 0
M  V30 3 C 3.216151 -1.549792 0.225165 0
M  V30 4 C 2.862152 -0.178858 2.257712 0
M  V30 5 N 3.813162 0.296417 3.071712 0
M  V30 6 N 3.582978 1.548673 3.417827 0
M  V30 7 C 2.421891 1.897826 2.793211 0
M  V30 8 N 1.836023 3.189501 2.921206 0
M  V30 9 C 1.870309 4.465297 2.286269 0
M  V30 10 N 2.840152 5.235654 2.853435 0
M  V30 11 C 3.070408 6.506515 2.417360 0
M  V30 12 N 2.324492 6.999392 1.411774 0
M  V30 13 C 1.375332 6.273324 0.842083 0
M  V30 14 C 1.100491 4.967558 1.251824 0
M  V30 15 F 0.195158 4.093494 0.803620 0
M  V30 16 C 1.943980 0.833225 2.056128 0
M  V30 17 C 0.880658 0.335048 1.159162 0
M  V30 18 N 1.064003 -1.101906 1.174939 0
M  V30 19 C 0.143916 -2.185538 0.935541 0
M  V30 20 O 0.346419 -3.430402 0.959516 0
M  V30 21 N -1.196710 -1.833280 0.624109 0
M  V30 22 C -2.249360 -2.780655 0.355876 0 CFG=1
M  V30 23 C -3.660429 -2.493296 0.590341 0
M  V30 24 C -3.150900 -2.543104 -0.845142 0 CFG=2
M  V30 25 C -3.564987 -3.675352 -1.695027 0
M  V30 26 C -3.796463 -4.932689 -1.145365 0
M  V30 27 C -4.186769 -6.001920 -1.943085 0
M  V30 28 C -4.359373 -5.866393 -3.294216 0
M  V30 29 C -4.133844 -4.625125 -3.856387 0
M  V30 30 C -3.746504 -3.569394 -3.055943 0
M  V30 31 H 3.532137 -2.532994 2.989661 0
M  V30 32 H 1.731447 -2.632124 3.131932 0
M  V30 33 H 2.612236 -3.476110 1.763250 0
M  V30 34 H 2.595658 -1.968747 -0.587943 0
M  V30 35 H 4.142557 -2.145542 0.348489 0
M  V30 36 H 3.522506 -0.530139 -0.107344 0
M  V30 37 H 4.202899 2.113133 4.049594 0
M  V30 38 H 1.161939 3.282721 3.715300 0
M  V30 39 H 3.836559 7.137806 2.853487 0
M  V30 40 H 0.719332 6.586216 0.020973 0
M  V30 41 H -0.141073 0.511397 1.587440 0
M  V30 42 H 0.908346 0.787538 0.168867 0
M  V30 43 H -1.468297 -0.811899 0.579418 0
M  V30 44 H -1.927536 -3.841466 0.411831 0
M  V30 45 H -4.049133 -1.518820 0.922298 0
M  V30 46 H -4.354744 -3.322271 0.835181 0
M  V30 47 H -2.975037 -1.551783 -1.326306 0
M  V30 48 H -3.672197 -5.093429 -0.069013 0
M  V30 49 H -4.346332 -6.938987 -1.448818 0
M  V30 50 H -4.664424 -6.729978 -3.871962 0
M  V30 51 H -4.268634 -4.514646 -4.919173 0
M  V30 52 H -3.586598 -2.628956 -3.553632 0
M  V30 END ATOM
M  V30 BEGIN BOND
M  V30 1 1 1 2
M  V30 2 1 2 3
M  V30 3 1 2 4
M  V30 4 2 4 5
M  V30 5 1 5 6
M  V30 6 1 6 7
M  V30 7 1 7 8
M  V30 8 1 8 9
M  V30 9 2 9 10
M  V30 10 1 10 11
M  V30 11 2 11 12
M  V30 12 1 12 13
M  V30 13 2 13 14
M  V30 14 1 14 15
M  V30 15 2 7 16
M  V30 16 1 16 17
M  V30 17 1 17 18
M  V30 18 1 18 19
M  V30 19 2 19 20
M  V30 20 1 19 21
M  V30 21 1 21 22
M  V30 22 1 22 23
M  V30 23 1 23 24
M  V30 24 1 24 25
M  V30 25 2 25 26
M  V30 26 1 26 27
M  V30 27 2 27 28
M  V30 28 1 28 29
M  V30 29 2 29 30
M  V30 30 1 18 2
M  V30 31 1 24 22
M  V30 32 1 30 25
M  V30 33 1 16 4
M  V30 34 1 14 9
M  V30 35 1 1 31
M  V30 36 1 1 32
M  V30 37 1 1 33
M  V30 38 1 3 34
M  V30 39 1 3 35
M  V30 40 1 3 36
M  V30 41 1 6 37
M  V30 42 1 8 38
M  V30 43 1 11 39
M  V30 44 1 13 40
M  V30 45 1 17 41
M  V30 46 1 17 42
M  V30 47 1 21 43
M  V30 48 1 22 44 CFG=3
M  V30 49 1 23 45
M  V30 50 1 23 46
M  V30 51 1 24 47 CFG=3
M  V30 52 1 26 48
M  V30 53 1 27 49
M  V30 54 1 28 50
M  V30 55 1 29 51
M  V30 56 1 30 52
M  V30 END BOND
M  V30 END CTAB
M  END
>  <Dataset>  (80) 
ChEMBL_Kinases

>  <Ligand_Instance>  (80) 
nan

>  <PDB_ID>  (80) 
nan

>  <Standardized_SMILES>  (80) 
CC1(C)c2n[nH]c(Nc3ncncc3F)c2CN1C(=O)N[C@H]1C[C@@H]1c1ccccc1

>  <Name>  (80) 
nan

>  <Pocket>  (80) 
nan

>  <ATP_Site>  (80) 
nan

>  <Peripheral>  (80) 
nan

>  <Num_H_Atoms_ProtBoundConf>  (80) 
nan

>  <Num_Resolved_Atoms>  (80) 
nan

>  <Num_Not_Resolved_Atoms>  (80) 
nan

$$$$
CHEMBL3669622
     RDKit          3D

  0  0  0  0  0  0  0  0  0  0999 V3000
M  V30 BEGIN CTAB
M  V30 COUNTS 58 63 0 0 0
M  V30 BEGIN ATOM
M  V30 1 C 1.761038 1.053422 6.324948 0
M  V30 2 C 2.491301 1.117316 5.034139 0
M  V30 3 C 3.649067 0.259582 4.904751 0
M  V30 4 S 4.250149 0.658657 3.157237 0
M  V30 5 C 2.975934 1.850350 2.806652 0
M  V30 6 C 2.727776 2.639489 1.625298 0
M  V30 7 N 3.670232 2.395848 0.620078 0
M  V30 8 C 3.621022 1.378003 -0.368898 0
M  V30 9 N 4.563763 1.206290 -1.314372 0
M  V30 10 N 4.203158 0.167888 -2.059114 0
M  V30 11 C 3.041657 -0.320687 -1.595686 0
M  V30 12 C 2.624984 0.434872 -0.497450 0
M  V30 13 C 1.338584 -0.058653 0.059108 0
M  V30 14 N 1.046454 -1.152282 -0.886582 0
M  V30 15 C -0.089538 -2.030910 -1.013824 0
M  V30 16 O -0.351070 -2.971524 -1.803457 0
M  V30 17 N -1.102226 -1.752557 -0.035835 0
M  V30 18 C -2.338477 -2.510102 0.035181 0 CFG=1
M  V30 19 C -3.102433 -2.682918 1.270058 0
M  V30 20 C -3.638818 -1.809710 0.171523 0 CFG=2
M  V30 21 C -4.810481 -2.254525 -0.633260 0
M  V30 22 C -4.853502 -3.613747 -0.920368 0
M  V30 23 C -5.894694 -4.156722 -1.665986 0
M  V30 24 C -6.903368 -3.304324 -2.124065 0
M  V30 25 C -6.862492 -1.935810 -1.836417 0
M  V30 26 C -5.812548 -1.419539 -1.090527 0
M  V30 27 C 2.084446 -1.408908 -1.895774 0
M  V30 28 C 2.746797 -2.721211 -1.603835 0
M  V30 29 C 1.531177 -1.353389 -3.289307 0
M  V30 30 N 1.673051 3.465662 1.650906 0
M  V30 31 C 0.958381 3.465650 2.785465 0
M  V30 32 N 1.185745 2.743442 3.865951 0
M  V30 33 C 2.210810 1.881826 3.958228 0
M  V30 34 H 0.908998 1.766985 6.334437 0
M  V30 35 H 2.438089 1.293413 7.181804 0
M  V30 36 H 1.312030 0.042882 6.492555 0
M  V30 37 H 4.019840 -0.463417 5.752340 0
M  V30 38 H 4.444682 3.077734 0.685032 0
M  V30 39 H 5.442654 1.743387 -1.497717 0
M  V30 40 H 1.544739 -0.529842 1.056230 0
M  V30 41 H 0.557002 0.695067 0.101389 0
M  V30 42 H -1.088524 -1.014249 0.710537 0
M  V30 43 H -2.371514 -3.339865 -0.700780 0
M  V30 44 H -2.764596 -2.187915 2.227560 0
M  V30 45 H -3.610902 -3.643695 1.502750 0
M  V30 46 H -3.691379 -0.734880 0.429817 0
M  V30 47 H -4.117597 -4.362234 -0.607038 0
M  V30 48 H -5.955166 -5.229155 -1.907924 0
M  V30 49 H -7.754787 -3.654255 -2.715539 0
M  V30 50 H -7.646246 -1.259827 -2.189112 0
M  V30 51 H -5.736509 -0.350984 -0.838579 0
M  V30 52 H 2.794910 -3.366989 -2.522793 0
M  V30 53 H 2.216837 -3.275880 -0.789925 0
M  V30 54 H 3.796339 -2.603013 -1.267696 0
M  V30 55 H 0.771116 -0.574908 -3.428392 0
M  V30 56 H 2.375287 -1.109919 -3.968266 0
M  V30 57 H 1.174230 -2.361552 -3.600063 0
M  V30 58 H 0.089195 4.144480 2.811874 0
M  V30 END ATOM
M  V30 BEGIN BOND
M  V30 1 1 1 2
M  V30 2 2 2 3
M  V30 3 1 3 4
M  V30 4 1 4 5
M  V30 5 2 5 6
M  V30 6 1 6 7
M  V30 7 1 7 8
M  V30 8 1 8 9
M  V30 9 1 9 10
M  V30 10 2 10 11
M  V30 11 1 11 12
M  V30 12 1 12 13
M  V30 13 1 13 14
M  V30 14 1 14 15
M  V30 15 2 15 16
M  V30 16 1 15 17
M  V30 17 1 17 18
M  V30 18 1 18 19
M  V30 19 1 19 20
M  V30 20 1 20 21
M  V30 21 2 21 22
M  V30 22 1 22 23
M  V30 23 2 23 24
M  V30 24 1 24 25
M  V30 25 2 25 26
M  V30 26 1 14 27
M  V30 27 1 27 28
M  V30 28 1 27 29
M  V30 29 1 6 30
M  V30 30 2 30 31
M  V30 31 1 31 32
M  V30 32 2 32 33
M  V30 33 1 33 2
M  V30 34 1 33 5
M  V30 35 2 12 8
M  V30 36 1 20 18
M  V30 37 1 26 21
M  V30 38 1 27 11
M  V30 39 1 1 34
M  V30 40 1 1 35
M  V30 41 1 1 36
M  V30 42 1 3 37
M  V30 43 1 7 38
M  V30 44 1 9 39
M  V30 45 1 13 40
M  V30 46 1 13 41
M  V30 47 1 17 42
M  V30 48 1 18 43 CFG=3
M  V30 49 1 19 44
M  V30 50 1 19 45
M  V30 51 1 20 46 CFG=1
M  V30 52 1 22 47
M  V30 53 1 23 48
M  V30 54 1 24 49
M  V30 55 1 25 50
M  V30 56 1 26 51
M  V30 57 1 28 52
M  V30 58 1 28 53
M  V30 59 1 28 54
M  V30 60 1 29 55
M  V30 61 1 29 56
M  V30 62 1 29 57
M  V30 63 1 31 58
M  V30 END BOND
M  V30 END CTAB
M  END
>  <Dataset>  (81) 
ChEMBL_Kinases

>  <Ligand_Instance>  (81) 
nan

>  <PDB_ID>  (81) 
nan

>  <Standardized_SMILES>  (81) 
Cc1csc2c(Nc3[nH]nc4c3CN(C(=O)N[C@H]3C[C@@H]3c3ccccc3)C4(C)C)ncnc12

>  <Name>  (81) 
nan

>  <Pocket>  (81) 
nan

>  <ATP_Site>  (81) 
nan

>  <Peripheral>  (81) 
nan

>  <Num_H_Atoms_ProtBoundConf>  (81) 
nan

>  <Num_Resolved_Atoms>  (81) 
nan

>  <Num_Not_Resolved_Atoms>  (81) 
nan

$$$$
CHEMBL3669614
     RDKit          3D

  0  0  0  0  0  0  0  0  0  0999 V3000
M  V30 BEGIN CTAB
M  V30 COUNTS 59 64 0 0 0
M  V30 BEGIN ATOM
M  V30 1 C -3.203129 0.411848 2.728837 0
M  V30 2 C -2.246292 1.266695 1.925836 0
M  V30 3 C -2.786811 2.648893 1.683460 0
M  V30 4 C -0.925046 1.398762 2.587541 0
M  V30 5 N -0.373604 1.958342 3.672469 0
M  V30 6 N 0.910847 1.698057 3.692832 0
M  V30 7 C 1.241257 0.944232 2.596840 0
M  V30 8 N 2.561664 0.493986 2.319651 0
M  V30 9 C 2.996566 -0.295786 1.230638 0
M  V30 10 N 2.222408 -0.788529 0.267420 0
M  V30 11 C 2.609600 -1.531424 -0.769303 0
M  V30 12 C 1.618517 -1.971398 -1.707976 0
M  V30 13 N 0.806980 -2.314672 -2.456351 0
M  V30 14 N 3.919171 -1.822214 -0.865428 0
M  V30 15 C 4.796484 -1.369916 0.063289 0
M  V30 16 C 6.113085 -1.718422 -0.119303 0
M  V30 17 C 7.079398 -1.293853 0.790693 0
M  V30 18 C 6.635960 -0.540876 1.828218 0
M  V30 19 C 5.310324 -0.208636 1.983218 0
M  V30 20 C 4.328793 -0.607820 1.107776 0
M  V30 21 C 0.068401 0.731562 1.856434 0
M  V30 22 C -0.526612 0.114828 0.665524 0
M  V30 23 N -1.936030 0.540389 0.726329 0
M  V30 24 C -2.879484 0.249487 -0.311863 0
M  V30 25 O -4.077288 0.625086 -0.233023 0
M  V30 26 N -2.512737 -0.474668 -1.478213 0
M  V30 27 C -3.383642 -0.817260 -2.574136 0 CFG=2
M  V30 28 C -3.154524 -2.015610 -3.405508 0
M  V30 29 C -2.700529 -0.738988 -3.947972 0 CFG=1
M  V30 30 C -3.482261 0.011714 -4.962814 0
M  V30 31 C -4.862221 -0.092765 -5.066201 0
M  V30 32 C -5.590973 0.617912 -6.025931 0
M  V30 33 C -4.908450 1.456675 -6.905086 0
M  V30 34 C -3.523994 1.593484 -6.839189 0
M  V30 35 C -2.874260 0.864250 -5.870490 0
M  V30 36 H -4.240113 0.794864 2.704123 0
M  V30 37 H -3.191097 -0.655604 2.383781 0
M  V30 38 H -2.808185 0.360848 3.771640 0
M  V30 39 H -3.690770 2.669938 1.049482 0
M  V30 40 H -1.960355 3.253900 1.253638 0
M  V30 41 H -3.036820 3.079867 2.663714 0
M  V30 42 H 1.498717 2.063309 4.478419 0
M  V30 43 H 3.256098 0.805275 3.028902 0
M  V30 44 H 6.406660 -2.332504 -0.983708 0
M  V30 45 H 8.086976 -1.612572 0.570769 0
M  V30 46 H 7.414634 -0.220379 2.528214 0
M  V30 47 H 5.047523 0.390565 2.830592 0
M  V30 48 H -0.484055 -0.986300 0.644737 0
M  V30 49 H -0.098618 0.546458 -0.282605 0
M  V30 50 H -1.519536 -0.786871 -1.546261 0
M  V30 51 H -4.412873 -0.473481 -2.460002 0
M  V30 52 H -2.385338 -2.753776 -3.078812 0
M  V30 53 H -4.049122 -2.533507 -3.808281 0
M  V30 54 H -1.610561 -0.557291 -3.977081 0
M  V30 55 H -5.412530 -0.750078 -4.379722 0
M  V30 56 H -6.646652 0.564867 -6.137014 0
M  V30 57 H -5.393735 2.052253 -7.688665 0
M  V30 58 H -2.968679 2.243596 -7.516275 0
M  V30 59 H -1.787202 0.947365 -5.790038 0
M  V30 END ATOM
M  V30 BEGIN BOND
M  V30 1 1 1 2
M  V30 2 1 2 3
M  V30 3 1 2 4
M  V30 4 2 4 5
M  V30 5 1 5 6
M  V30 6 1 6 7
M  V30 7 1 7 8
M  V30 8 1 8 9
M  V30 9 2 9 10
M  V30 10 1 10 11
M  V30 11 1 11 12
M  V30 12 3 12 13
M  V30 13 2 11 14
M  V30 14 1 14 15
M  V30 15 2 15 16
M  V30 16 1 16 17
M  V30 17 2 17 18
M  V30 18 1 18 19
M  V30 19 2 19 20
M  V30 20 2 7 21
M  V30 21 1 21 22
M  V30 22 1 22 23
M  V30 23 1 23 24
M  V30 24 2 24 25
M  V30 25 1 24 26
M  V30 26 1 26 27
M  V30 27 1 27 28
M  V30 28 1 28 29
M  V30 29 1 29 30
M  V30 30 2 30 31
M  V30 31 1 31 32
M  V30 32 2 32 33
M  V30 33 1 33 34
M  V30 34 2 34 35
M  V30 35 1 23 2
M  V30 36 1 29 27
M  V30 37 1 35 30
M  V30 38 1 21 4
M  V30 39 1 20 9
M  V30 40 1 20 15
M  V30 41 1 1 36
M  V30 42 1 1 37
M  V30 43 1 1 38
M  V30 44 1 3 39
M  V30 45 1 3 40
M  V30 46 1 3 41
M  V30 47 1 6 42
M  V30 48 1 8 43
M  V30 49 1 16 44
M  V30 50 1 17 45
M  V30 51 1 18 46
M  V30 52 1 19 47
M  V30 53 1 22 48
M  V30 54 1 22 49
M  V30 55 1 26 50
M  V30 56 1 27 51 CFG=3
M  V30 57 1 28 52
M  V30 58 1 28 53
M  V30 59 1 29 54 CFG=1
M  V30 60 1 31 55
M  V30 61 1 32 56
M  V30 62 1 33 57
M  V30 63 1 34 58
M  V30 64 1 35 59
M  V30 END BOND
M  V30 END CTAB
M  END
>  <Dataset>  (82) 
ChEMBL_Kinases

>  <Ligand_Instance>  (82) 
nan

>  <PDB_ID>  (82) 
nan

>  <Standardized_SMILES>  (82) 
CC1(C)c2n[nH]c(Nc3nc(C#N)nc4ccccc34)c2CN1C(=O)N[C@@H]1C[C@H]1c1ccccc1

>  <Name>  (82) 
nan

>  <Pocket>  (82) 
nan

>  <ATP_Site>  (82) 
nan

>  <Peripheral>  (82) 
nan

>  <Num_H_Atoms_ProtBoundConf>  (82) 
nan

>  <Num_Resolved_Atoms>  (82) 
nan

>  <Num_Not_Resolved_Atoms>  (82) 
nan

$$$$
CHEMBL3671104
     RDKit          3D

  0  0  0  0  0  0  0  0  0  0999 V3000
M  V30 BEGIN CTAB
M  V30 COUNTS 59 62 0 0 0
M  V30 BEGIN ATOM
M  V30 1 C 2.420643 -0.847632 3.569945 0
M  V30 2 C 1.906732 0.344638 2.841064 0 CFG=2
M  V30 3 C 2.612118 1.615936 2.915794 0
M  V30 4 C 3.958001 1.880228 2.450489 0
M  V30 5 C 5.218459 1.335246 2.900796 0
M  V30 6 C 5.523120 -0.058681 2.794912 0
M  V30 7 C 5.841578 -0.494973 1.503087 0
M  V30 8 C 6.238795 -1.762190 1.159448 0
M  V30 9 C 6.351254 -2.725796 2.125036 0
M  V30 10 C 6.059186 -2.390524 3.424188 0
M  V30 11 C 5.667146 -1.100518 3.693298 0
M  V30 12 N 0.499165 0.492305 3.322858 0
M  V30 13 C -0.585092 0.203782 2.489440 0
M  V30 14 O -0.421873 -0.189574 1.301731 0
M  V30 15 N -1.930188 0.346631 2.962203 0
M  V30 16 C -3.004229 0.037965 2.077040 0
M  V30 17 C -4.335121 0.132602 2.422904 0
M  V30 18 C -5.381510 -0.163460 1.580559 0
M  V30 19 C -5.061979 -0.584656 0.298560 0
M  V30 20 N -6.008463 -0.909546 -0.630712 0
M  V30 21 C -5.614079 -1.316159 -1.869012 0
M  V30 22 C -4.278763 -1.412023 -2.220033 0
M  V30 23 N -3.922236 -1.847783 -3.542428 0
M  V30 24 C -5.039085 -2.183409 -4.403877 0
M  V30 25 C -4.498705 -2.812822 -5.657303 0
M  V30 26 O -3.357559 -3.534057 -5.382073 0
M  V30 27 C -2.273575 -2.690317 -5.121662 0
M  V30 28 C -2.484397 -1.897684 -3.855272 0
M  V30 29 N -3.341244 -1.089344 -1.296451 0
M  V30 30 C -3.733860 -0.682370 -0.057011 0
M  V30 31 N -2.746955 -0.379662 0.808229 0
M  V30 32 H 3.036614 -0.606301 4.446488 0
M  V30 33 H 1.565186 -1.534961 3.881227 0
M  V30 34 H 3.015816 -1.463753 2.871334 0
M  V30 35 H 1.730853 0.000434 1.773359 0
M  V30 36 H 1.928654 2.478818 2.562865 0
M  V30 37 H 2.648305 1.860137 4.062735 0
M  V30 38 H 4.082958 3.047861 2.604627 0
M  V30 39 H 3.964307 1.854413 1.272210 0
M  V30 40 H 6.056500 1.880518 2.309755 0
M  V30 41 H 5.487256 1.733411 3.953171 0
M  V30 42 H 5.796128 0.172318 0.627290 0
M  V30 43 H 6.478749 -2.072809 0.154288 0
M  V30 44 H 6.651547 -3.727233 1.944841 0
M  V30 45 H 6.104102 -3.053013 4.295718 0
M  V30 46 H 5.416600 -0.755644 4.710251 0
M  V30 47 H 0.279227 0.819880 4.309701 0
M  V30 48 H -2.138455 0.666497 3.929141 0
M  V30 49 H -4.564777 0.462676 3.427558 0
M  V30 50 H -6.420975 -0.084379 1.868103 0
M  V30 51 H -6.414332 -1.548685 -2.526475 0
M  V30 52 H -5.713541 -1.329818 -4.612992 0
M  V30 53 H -5.646146 -2.973587 -3.896313 0
M  V30 54 H -4.235770 -2.029958 -6.410331 0
M  V30 55 H -5.230724 -3.498528 -6.134389 0
M  V30 56 H -1.376381 -3.321969 -4.985666 0
M  V30 57 H -2.081504 -2.007318 -5.988473 0
M  V30 58 H -1.947645 -2.414249 -3.036219 0
M  V30 59 H -2.080968 -0.885844 -4.010002 0
M  V30 END ATOM
M  V30 BEGIN BOND
M  V30 1 1 1 2
M  V30 2 1 2 3
M  V30 3 1 3 4
M  V30 4 1 4 5
M  V30 5 1 5 6
M  V30 6 2 6 7
M  V30 7 1 7 8
M  V30 8 2 8 9
M  V30 9 1 9 10
M  V30 10 2 10 11
M  V30 11 1 2 12
M  V30 12 1 12 13
M  V30 13 2 13 14
M  V30 14 1 13 15
M  V30 15 1 15 16
M  V30 16 2 16 17
M  V30 17 1 17 18
M  V30 18 2 18 19
M  V30 19 1 19 20
M  V30 20 2 20 21
M  V30 21 1 21 22
M  V30 22 1 22 23
M  V30 23 1 23 24
M  V30 24 1 24 25
M  V30 25 1 25 26
M  V30 26 1 26 27
M  V30 27 1 27 28
M  V30 28 2 22 29
M  V30 29 1 29 30
M  V30 30 2 30 31
M  V30 31 1 11 6
M  V30 32 1 31 16
M  V30 33 1 30 19
M  V30 34 1 28 23
M  V30 35 1 1 32
M  V30 36 1 1 33
M  V30 37 1 1 34
M  V30 38 1 2 35 CFG=3
M  V30 39 1 3 36
M  V30 40 1 3 37
M  V30 41 1 4 38
M  V30 42 1 4 39
M  V30 43 1 5 40
M  V30 44 1 5 41
M  V30 45 1 7 42
M  V30 46 1 8 43
M  V30 47 1 9 44
M  V30 48 1 10 45
M  V30 49 1 11 46
M  V30 50 1 12 47
M  V30 51 1 15 48
M  V30 52 1 17 49
M  V30 53 1 18 50
M  V30 54 1 21 51
M  V30 55 1 24 52
M  V30 56 1 24 53
M  V30 57 1 25 54
M  V30 58 1 25 55
M  V30 59 1 27 56
M  V30 60 1 27 57
M  V30 61 1 28 58
M  V30 62 1 28 59
M  V30 END BOND
M  V30 END CTAB
M  END
>  <Dataset>  (83) 
ChEMBL_Kinases

>  <Ligand_Instance>  (83) 
nan

>  <PDB_ID>  (83) 
nan

>  <Standardized_SMILES>  (83) 
C[C@H](CCCc1ccccc1)NC(=O)Nc1ccc2ncc(N3CCOCC3)nc2n1

>  <Name>  (83) 
nan

>  <Pocket>  (83) 
nan

>  <ATP_Site>  (83) 
nan

>  <Peripheral>  (83) 
nan

>  <Num_H_Atoms_ProtBoundConf>  (83) 
nan

>  <Num_Resolved_Atoms>  (83) 
nan

>  <Num_Not_Resolved_Atoms>  (83) 
nan

$$$$
CHEMBL3671103
     RDKit          3D

  0  0  0  0  0  0  0  0  0  0999 V3000
M  V30 BEGIN CTAB
M  V30 COUNTS 59 62 0 0 0
M  V30 BEGIN ATOM
M  V30 1 O 1.800245 0.908631 2.317910 0
M  V30 2 C 1.998028 2.006466 2.891601 0
M  V30 3 N 3.260241 2.573275 2.769286 0
M  V30 4 C 4.509025 2.328105 2.129295 0
M  V30 5 C 4.471475 2.412353 0.653888 0
M  V30 6 C 3.551134 1.517203 -0.104678 0
M  V30 7 C 3.782112 1.756537 -1.608092 0
M  V30 8 C 2.883250 0.882486 -2.404462 0
M  V30 9 C 1.625890 1.374115 -2.748987 0
M  V30 10 C 0.700227 0.662690 -3.484410 0
M  V30 11 C 1.028545 -0.606385 -3.906457 0
M  V30 12 C 2.262845 -1.110053 -3.577702 0
M  V30 13 C 3.188439 -0.401680 -2.843679 0
M  V30 14 N 0.908212 2.562391 3.611275 0
M  V30 15 C -0.324857 1.855778 3.640535 0
M  V30 16 C -1.360473 2.423572 4.347464 0
M  V30 17 C -2.555255 1.724791 4.367571 0
M  V30 18 C -2.723169 0.516568 3.718194 0
M  V30 19 N -3.867774 -0.190899 3.715137 0
M  V30 20 C -3.962625 -1.363912 3.060127 0
M  V30 21 C -2.899286 -1.899697 2.362009 0
M  V30 22 C -2.925473 -3.163118 1.629239 0
M  V30 23 C -1.761258 -3.537925 0.989416 0
M  V30 24 C -1.758314 -4.745024 0.279377 0
M  V30 25 C -2.862356 -5.565749 0.195329 0
M  V30 26 O -2.699772 -6.728369 -0.546102 0
M  V30 27 P -3.232657 -6.827045 -2.182693 0
M  V30 28 O -3.386816 -8.248928 -2.617170 0
M  V30 29 O -4.750078 -6.061827 -2.313251 0
M  V30 30 O -2.133832 -6.065241 -3.206524 0
M  V30 31 C -3.994483 -5.147833 0.848896 0
M  V30 32 C -4.037377 -3.976224 1.552488 0
M  V30 33 N -1.753053 -1.193504 2.363732 0
M  V30 34 C -1.651671 -0.003472 3.026387 0
M  V30 35 N -0.469608 0.680986 3.002443 0
M  V30 36 H 3.299639 3.481106 3.333747 0
M  V30 37 H 5.340671 2.916977 2.580345 0
M  V30 38 H 4.850546 1.243620 2.352030 0
M  V30 39 H 5.516221 2.265616 0.248178 0
M  V30 40 H 4.213539 3.468953 0.303018 0
M  V30 41 H 3.756246 0.470141 0.093487 0
M  V30 42 H 2.469345 1.812738 0.045770 0
M  V30 43 H 4.827501 1.534388 -1.903444 0
M  V30 44 H 3.523275 2.804579 -1.816559 0
M  V30 45 H 1.346048 2.367846 -2.428754 0
M  V30 46 H -0.270072 1.066771 -3.739205 0
M  V30 47 H 0.321319 -1.190096 -4.486376 0
M  V30 48 H 2.493456 -2.105060 -3.920658 0
M  V30 49 H 4.156400 -0.774935 -2.576121 0
M  V30 50 H 1.047283 3.464587 4.091240 0
M  V30 51 H -1.311302 3.348945 4.873463 0
M  V30 52 H -3.424880 2.096186 4.899281 0
M  V30 53 H -4.890003 -1.919547 3.067960 0
M  V30 54 H -0.848917 -2.948154 1.006925 0
M  V30 55 H -0.818740 -5.012814 -0.216581 0
M  V30 56 H -4.710156 -5.225375 -1.818802 0
M  V30 57 H -1.271168 -6.034245 -2.729435 0
M  V30 58 H -4.857332 -5.813851 0.768753 0
M  V30 59 H -4.949526 -3.682374 2.053893 0
M  V30 END ATOM
M  V30 BEGIN BOND
M  V30 1 2 1 2
M  V30 2 1 2 3
M  V30 3 1 3 4
M  V30 4 1 4 5
M  V30 5 1 5 6
M  V30 6 1 6 7
M  V30 7 1 7 8
M  V30 8 2 8 9
M  V30 9 1 9 10
M  V30 10 2 10 11
M  V30 11 1 11 12
M  V30 12 2 12 13
M  V30 13 1 2 14
M  V30 14 1 14 15
M  V30 15 2 15 16
M  V30 16 1 16 17
M  V30 17 2 17 18
M  V30 18 1 18 19
M  V30 19 2 19 20
M  V30 20 1 20 21
M  V30 21 1 21 22
M  V30 22 2 22 23
M  V30 23 1 23 24
M  V30 24 2 24 25
M  V30 25 1 25 26
M  V30 26 1 26 27
M  V30 27 2 27 28
M  V30 28 1 27 29
M  V30 29 1 27 30
M  V30 30 1 25 31
M  V30 31 2 31 32
M  V30 32 2 21 33
M  V30 33 1 33 34
M  V30 34 2 34 35
M  V30 35 1 13 8
M  V30 36 1 35 15
M  V30 37 1 34 18
M  V30 38 1 32 22
M  V30 39 1 3 36
M  V30 40 1 4 37
M  V30 41 1 4 38
M  V30 42 1 5 39
M  V30 43 1 5 40
M  V30 44 1 6 41
M  V30 45 1 6 42
M  V30 46 1 7 43
M  V30 47 1 7 44
M  V30 48 1 9 45
M  V30 49 1 10 46
M  V30 50 1 11 47
M  V30 51 1 12 48
M  V30 52 1 13 49
M  V30 53 1 14 50
M  V30 54 1 16 51
M  V30 55 1 17 52
M  V30 56 1 20 53
M  V30 57 1 23 54
M  V30 58 1 24 55
M  V30 59 1 29 56
M  V30 60 1 30 57
M  V30 61 1 31 58
M  V30 62 1 32 59
M  V30 END BOND
M  V30 END CTAB
M  END
>  <Dataset>  (84) 
ChEMBL_Kinases

>  <Ligand_Instance>  (84) 
nan

>  <PDB_ID>  (84) 
nan

>  <Standardized_SMILES>  (84) 
O=C(NCCCCc1ccccc1)Nc1ccc2ncc(-c3ccc(OP(=O)(O)O)cc3)nc2n1

>  <Name>  (84) 
nan

>  <Pocket>  (84) 
nan

>  <ATP_Site>  (84) 
nan

>  <Peripheral>  (84) 
nan

>  <Num_H_Atoms_ProtBoundConf>  (84) 
nan

>  <Num_Resolved_Atoms>  (84) 
nan

>  <Num_Not_Resolved_Atoms>  (84) 
nan

$$$$
CHEMBL3671102
     RDKit          3D

  0  0  0  0  0  0  0  0  0  0999 V3000
M  V30 BEGIN CTAB
M  V30 COUNTS 56 59 0 0 0
M  V30 BEGIN ATOM
M  V30 1 C 2.911292 -2.599482 -0.401072 0
M  V30 2 C 2.508467 -1.355548 0.399958 0
M  V30 3 C 3.778598 -0.826742 1.043034 0
M  V30 4 C 3.508535 0.408430 1.856162 0
M  V30 5 C 4.783841 0.888911 2.488506 0
M  V30 6 C 5.799195 1.199248 1.434955 0
M  V30 7 C 5.846717 2.467914 0.879650 0
M  V30 8 C 6.783777 2.790798 -0.111211 0
M  V30 9 C 7.698942 1.833699 -0.563478 0
M  V30 10 C 7.598413 0.593404 0.031418 0
M  V30 11 C 6.687897 0.248325 1.007736 0
M  V30 12 N 1.810938 -0.396287 -0.403537 0
M  V30 13 C 0.410532 -0.365197 -0.332557 0
M  V30 14 O -0.245658 -1.185114 0.405041 0
M  V30 15 N -0.483172 0.505465 -1.011689 0
M  V30 16 C -1.901065 0.540560 -1.008687 0
M  V30 17 C -2.531644 1.605323 -1.650651 0
M  V30 18 C -3.906449 1.574520 -1.649606 0
M  V30 19 C -4.699161 0.595820 -1.078541 0
M  V30 20 N -6.041682 0.548487 -1.083519 0
M  V30 21 C -6.705403 -0.492011 -0.487717 0
M  V30 22 C -6.016558 -1.521818 0.134542 0
M  V30 23 C -6.787029 -2.612474 0.727520 0
M  V30 24 C -8.136096 -2.773200 0.791531 0
M  V30 25 N -8.420503 -3.938931 1.416428 0
M  V30 26 N -7.293732 -4.539453 1.762542 0
M  V30 27 C -7.287879 -5.815557 2.449482 0
M  V30 28 C -6.273307 -3.751839 1.355874 0
M  V30 29 N -4.645449 -1.480303 0.143857 0
M  V30 30 C -3.993439 -0.436902 -0.454528 0
M  V30 31 N -2.649537 -0.416635 -0.447528 0
M  V30 32 H 2.542681 -2.472118 -1.456495 0
M  V30 33 H 4.002738 -2.749598 -0.400837 0
M  V30 34 H 2.373717 -3.479000 0.004805 0
M  V30 35 H 1.844616 -1.713430 1.198831 0
M  V30 36 H 4.125062 -1.614634 1.745045 0
M  V30 37 H 4.579521 -0.698581 0.282866 0
M  V30 38 H 3.026237 1.218794 1.256144 0
M  V30 39 H 2.774960 0.195347 2.684549 0
M  V30 40 H 4.622417 1.809699 3.091671 0
M  V30 41 H 5.215227 0.136421 3.166300 0
M  V30 42 H 5.162180 3.267608 1.192838 0
M  V30 43 H 6.803504 3.778001 -0.529134 0
M  V30 44 H 8.419481 2.074278 -1.326203 0
M  V30 45 H 8.282706 -0.203252 -0.276260 0
M  V30 46 H 6.663963 -0.758294 1.440698 0
M  V30 47 H 2.253404 0.308327 -1.061526 0
M  V30 48 H 0.071055 1.163997 -1.592683 0
M  V30 49 H -2.012914 2.440657 -2.142783 0
M  V30 50 H -4.469296 2.377239 -2.130579 0
M  V30 51 H -7.785784 -0.525906 -0.491843 0
M  V30 52 H -8.896110 -2.091965 0.415276 0
M  V30 53 H -7.643282 -6.625946 1.750138 0
M  V30 54 H -6.287666 -6.129748 2.770698 0
M  V30 55 H -7.929981 -5.802340 3.374101 0
M  V30 56 H -5.224313 -4.004832 1.513313 0
M  V30 END ATOM
M  V30 BEGIN BOND
M  V30 1 1 1 2
M  V30 2 1 2 3
M  V30 3 1 3 4
M  V30 4 1 4 5
M  V30 5 1 5 6
M  V30 6 2 6 7
M  V30 7 1 7 8
M  V30 8 2 8 9
M  V30 9 1 9 10
M  V30 10 2 10 11
M  V30 11 1 2 12
M  V30 12 1 12 13
M  V30 13 2 13 14
M  V30 14 1 13 15
M  V30 15 1 15 16
M  V30 16 2 16 17
M  V30 17 1 17 18
M  V30 18 2 18 19
M  V30 19 1 19 20
M  V30 20 2 20 21
M  V30 21 1 21 22
M  V30 22 1 22 23
M  V30 23 1 23 24
M  V30 24 2 24 25
M  V30 25 1 25 26
M  V30 26 1 26 27
M  V30 27 1 26 28
M  V30 28 2 22 29
M  V30 29 1 29 30
M  V30 30 2 30 31
M  V30 31 1 11 6
M  V30 32 1 31 16
M  V30 33 1 30 19
M  V30 34 2 28 23
M  V30 35 1 1 32
M  V30 36 1 1 33
M  V30 37 1 1 34
M  V30 38 1 2 35
M  V30 39 1 3 36
M  V30 40 1 3 37
M  V30 41 1 4 38
M  V30 42 1 4 39
M  V30 43 1 5 40
M  V30 44 1 5 41
M  V30 45 1 7 42
M  V30 46 1 8 43
M  V30 47 1 9 44
M  V30 48 1 10 45
M  V30 49 1 11 46
M  V30 50 1 12 47
M  V30 51 1 15 48
M  V30 52 1 17 49
M  V30 53 1 18 50
M  V30 54 1 21 51
M  V30 55 1 24 52
M  V30 56 1 27 53
M  V30 57 1 27 54
M  V30 58 1 27 55
M  V30 59 1 28 56
M  V30 END BOND
M  V30 END CTAB
M  END
>  <Dataset>  (85) 
ChEMBL_Kinases

>  <Ligand_Instance>  (85) 
nan

>  <PDB_ID>  (85) 
nan

>  <Standardized_SMILES>  (85) 
CC(CCCc1ccccc1)NC(=O)Nc1ccc2ncc(-c3cnn(C)c3)nc2n1

>  <Name>  (85) 
nan

>  <Pocket>  (85) 
nan

>  <ATP_Site>  (85) 
nan

>  <Peripheral>  (85) 
nan

>  <Num_H_Atoms_ProtBoundConf>  (85) 
nan

>  <Num_Resolved_Atoms>  (85) 
nan

>  <Num_Not_Resolved_Atoms>  (85) 
nan

$$$$
CHEMBL3671101
     RDKit          3D

  0  0  0  0  0  0  0  0  0  0999 V3000
M  V30 BEGIN CTAB
M  V30 COUNTS 56 59 0 0 0
M  V30 BEGIN ATOM
M  V30 1 O -0.219192 0.377607 2.300159 0
M  V30 2 C 0.953880 0.250722 1.864060 0
M  V30 3 N 2.162334 0.682411 2.432394 0
M  V30 4 C 2.080490 1.364932 3.681563 0
M  V30 5 C 1.287776 2.618318 3.711536 0
M  V30 6 C 1.777046 3.692780 2.790150 0
M  V30 7 C 3.164685 4.156253 3.040178 0
M  V30 8 C 3.531283 5.215948 2.067802 0
M  V30 9 C 4.120703 4.836195 0.856654 0
M  V30 10 C 4.480722 5.780878 -0.082128 0
M  V30 11 C 4.276955 7.129239 0.130736 0
M  V30 12 C 3.690754 7.521996 1.332751 0
M  V30 13 C 3.331431 6.559182 2.273080 0
M  V30 14 N 0.965238 -0.438214 0.615097 0
M  V30 15 C -0.085650 -0.976071 -0.178824 0
M  V30 16 C -0.724134 -0.228681 -1.155526 0
M  V30 17 C -1.744015 -0.793762 -1.906744 0
M  V30 18 C -2.111872 -2.109295 -1.666396 0
M  V30 19 N -3.103984 -2.696758 -2.379852 0
M  V30 20 C -3.466324 -3.972896 -2.152162 0
M  V30 21 C -2.824775 -4.708310 -1.177823 0
M  V30 22 C -3.211266 -6.092887 -0.924709 0
M  V30 23 C -2.652804 -6.933390 0.015259 0
M  V30 24 N -3.299598 -8.114280 -0.084865 0
M  V30 25 N -4.220170 -8.023629 -1.040225 0
M  V30 26 C -5.154325 -9.068343 -1.488438 0
M  V30 27 C -4.406299 -9.803448 -2.608059 0
M  V30 28 F -3.232523 -10.343882 -2.103371 0
M  V30 29 F -3.990989 -8.883123 -3.573206 0
M  V30 30 C -4.202112 -6.783323 -1.591395 0
M  V30 31 N -1.840970 -4.127833 -0.469387 0
M  V30 32 C -1.457680 -2.848019 -0.678069 0
M  V30 33 N -0.464879 -2.255265 0.033536 0
M  V30 34 H 3.058518 0.482631 1.913186 0
M  V30 35 H 3.088412 1.566878 4.098939 0
M  V30 36 H 1.608429 0.671770 4.426300 0
M  V30 37 H 0.210217 2.460612 3.496676 0
M  V30 38 H 1.325511 2.994322 4.754976 0
M  V30 39 H 1.643703 3.437577 1.724007 0
M  V30 40 H 1.107700 4.579082 2.969664 0
M  V30 41 H 3.214246 4.524858 4.104057 0
M  V30 42 H 3.934923 3.367128 2.947484 0
M  V30 43 H 4.314853 3.802864 0.611209 0
M  V30 44 H 4.939093 5.559089 -1.036620 0
M  V30 45 H 4.526418 7.937690 -0.546213 0
M  V30 46 H 3.499733 8.575576 1.568109 0
M  V30 47 H 2.876132 6.809956 3.215669 0
M  V30 48 H 1.838651 -0.653932 0.071658 0
M  V30 49 H -0.421687 0.790335 -1.324433 0
M  V30 50 H -2.272339 -0.257247 -2.677157 0
M  V30 51 H -4.268813 -4.406747 -2.748358 0
M  V30 52 H -1.837102 -6.686029 0.711346 0
M  V30 53 H -6.065316 -8.637672 -1.908035 0
M  V30 54 H -5.285660 -9.781307 -0.667238 0
M  V30 55 H -5.022968 -10.580866 -3.082411 0
M  V30 56 H -4.798888 -6.347487 -2.383748 0
M  V30 END ATOM
M  V30 BEGIN BOND
M  V30 1 2 1 2
M  V30 2 1 2 3
M  V30 3 1 3 4
M  V30 4 1 4 5
M  V30 5 1 5 6
M  V30 6 1 6 7
M  V30 7 1 7 8
M  V30 8 2 8 9
M  V30 9 1 9 10
M  V30 10 2 10 11
M  V30 11 1 11 12
M  V30 12 2 12 13
M  V30 13 1 2 14
M  V30 14 1 14 15
M  V30 15 2 15 16
M  V30 16 1 16 17
M  V30 17 2 17 18
M  V30 18 1 18 19
M  V30 19 2 19 20
M  V30 20 1 20 21
M  V30 21 1 21 22
M  V30 22 1 22 23
M  V30 23 2 23 24
M  V30 24 1 24 25
M  V30 25 1 25 26
M  V30 26 1 26 27
M  V30 27 1 27 28
M  V30 28 1 27 29
M  V30 29 1 25 30
M  V30 30 2 21 31
M  V30 31 1 31 32
M  V30 32 2 32 33
M  V30 33 1 13 8
M  V30 34 1 33 15
M  V30 35 1 32 18
M  V30 36 2 30 22
M  V30 37 1 3 34
M  V30 38 1 4 35
M  V30 39 1 4 36
M  V30 40 1 5 37
M  V30 41 1 5 38
M  V30 42 1 6 39
M  V30 43 1 6 40
M  V30 44 1 7 41
M  V30 45 1 7 42
M  V30 46 1 9 43
M  V30 47 1 10 44
M  V30 48 1 11 45
M  V30 49 1 12 46
M  V30 50 1 13 47
M  V30 51 1 14 48
M  V30 52 1 16 49
M  V30 53 1 17 50
M  V30 54 1 20 51
M  V30 55 1 23 52
M  V30 56 1 26 53
M  V30 57 1 26 54
M  V30 58 1 27 55
M  V30 59 1 30 56
M  V30 END BOND
M  V30 END CTAB
M  END
>  <Dataset>  (86) 
ChEMBL_Kinases

>  <Ligand_Instance>  (86) 
nan

>  <PDB_ID>  (86) 
nan

>  <Standardized_SMILES>  (86) 
O=C(NCCCCc1ccccc1)Nc1ccc2ncc(-c3cnn(CC(F)F)c3)nc2n1

>  <Name>  (86) 
nan

>  <Pocket>  (86) 
nan

>  <ATP_Site>  (86) 
nan

>  <Peripheral>  (86) 
nan

>  <Num_H_Atoms_ProtBoundConf>  (86) 
nan

>  <Num_Resolved_Atoms>  (86) 
nan

>  <Num_Not_Resolved_Atoms>  (86) 
nan

$$$$
CHEMBL3671100
     RDKit          3D

  0  0  0  0  0  0  0  0  0  0999 V3000
M  V30 BEGIN CTAB
M  V30 COUNTS 60 63 0 0 0
M  V30 BEGIN ATOM
M  V30 1 O -0.119341 1.460724 2.385378 0
M  V30 2 C 1.098680 1.251098 2.265876 0
M  V30 3 N 2.298671 1.687926 2.827636 0
M  V30 4 C 2.046399 2.658519 3.843070 0
M  V30 5 C 1.340188 3.892353 3.500854 0
M  V30 6 C 1.963602 4.785251 2.472516 0
M  V30 7 C 3.307926 5.309889 2.806349 0
M  V30 8 C 3.889636 6.189540 1.771181 0
M  V30 9 C 4.693801 5.853344 0.703910 0
M  V30 10 C 5.169159 6.782402 -0.198889 0
M  V30 11 C 4.853812 8.124252 -0.073077 0
M  V30 12 C 4.054089 8.481370 0.981920 0
M  V30 13 C 3.590061 7.555192 1.868630 0
M  V30 14 N 1.053725 0.269375 1.225893 0
M  V30 15 C 0.237129 -0.475894 0.347856 0
M  V30 16 C -0.067117 0.080136 -0.875341 0
M  V30 17 C -0.864749 -0.612390 -1.777349 0
M  V30 18 C -1.300543 -1.851052 -1.348249 0
M  V30 19 N -2.075214 -2.541713 -2.206868 0
M  V30 20 C -2.575053 -3.761576 -1.932758 0
M  V30 21 C -2.278752 -4.330253 -0.713620 0
M  V30 22 C -2.796352 -5.655038 -0.380275 0
M  V30 23 C -2.610093 -6.394075 0.768712 0
M  V30 24 N -3.271331 -7.541483 0.631766 0
M  V30 25 N -3.887122 -7.596936 -0.553581 0
M  V30 26 C -4.711112 -8.650728 -1.117443 0
M  V30 27 C -3.884420 -9.630524 -1.900180 0
M  V30 28 C -4.714868 -10.745474 -2.500991 0
M  V30 29 O -5.392377 -11.498407 -1.568863 0
M  V30 30 C -3.599028 -6.427998 -1.193651 0
M  V30 31 N -1.505285 -3.645307 0.149024 0
M  V30 32 C -1.006446 -2.424570 -0.127497 0
M  V30 33 N -0.229776 -1.704926 0.702874 0
M  V30 34 H 3.187478 1.254771 2.436049 0
M  V30 35 H 3.006155 2.902570 4.339375 0
M  V30 36 H 1.455937 2.126042 4.632471 0
M  V30 37 H 1.338209 4.509774 4.452503 0
M  V30 38 H 0.238187 3.761490 3.334950 0
M  V30 39 H 1.945881 4.203579 1.503797 0
M  V30 40 H 1.327673 5.669588 2.231361 0
M  V30 41 H 4.068093 4.518937 2.990334 0
M  V30 42 H 3.254414 5.883977 3.752410 0
M  V30 43 H 4.918818 4.791984 0.639086 0
M  V30 44 H 5.796722 6.401044 -1.001283 0
M  V30 45 H 5.232629 8.841615 -0.787129 0
M  V30 46 H 3.836025 9.544585 1.035652 0
M  V30 47 H 2.976251 7.984504 2.639693 0
M  V30 48 H 1.985220 -0.112180 0.904552 0
M  V30 49 H 0.308242 1.063295 -1.157783 0
M  V30 50 H -1.140066 -0.234899 -2.749637 0
M  V30 51 H -3.190755 -4.258463 -2.669691 0
M  V30 52 H -2.018552 -6.061896 1.617077 0
M  V30 53 H -5.146945 -9.244942 -0.260578 0
M  V30 54 H -5.530284 -8.248181 -1.736998 0
M  V30 55 H -3.135181 -10.114621 -1.240515 0
M  V30 56 H -3.351870 -9.161150 -2.742516 0
M  V30 57 H -5.333784 -10.413907 -3.356464 0
M  V30 58 H -3.957702 -11.442299 -2.964401 0
M  V30 59 H -4.882936 -12.255497 -1.189895 0
M  V30 60 H -3.939082 -6.147706 -2.172363 0
M  V30 END ATOM
M  V30 BEGIN BOND
M  V30 1 2 1 2
M  V30 2 1 2 3
M  V30 3 1 3 4
M  V30 4 1 4 5
M  V30 5 1 5 6
M  V30 6 1 6 7
M  V30 7 1 7 8
M  V30 8 2 8 9
M  V30 9 1 9 10
M  V30 10 2 10 11
M  V30 11 1 11 12
M  V30 12 2 12 13
M  V30 13 1 2 14
M  V30 14 1 14 15
M  V30 15 2 15 16
M  V30 16 1 16 17
M  V30 17 2 17 18
M  V30 18 1 18 19
M  V30 19 2 19 20
M  V30 20 1 20 21
M  V30 21 1 21 22
M  V30 22 1 22 23
M  V30 23 2 23 24
M  V30 24 1 24 25
M  V30 25 1 25 26
M  V30 26 1 26 27
M  V30 27 1 27 28
M  V30 28 1 28 29
M  V30 29 1 25 30
M  V30 30 2 21 31
M  V30 31 1 31 32
M  V30 32 2 32 33
M  V30 33 1 13 8
M  V30 34 1 33 15
M  V30 35 1 32 18
M  V30 36 2 30 22
M  V30 37 1 3 34
M  V30 38 1 4 35
M  V30 39 1 4 36
M  V30 40 1 5 37
M  V30 41 1 5 38
M  V30 42 1 6 39
M  V30 43 1 6 40
M  V30 44 1 7 41
M  V30 45 1 7 42
M  V30 46 1 9 43
M  V30 47 1 10 44
M  V30 48 1 11 45
M  V30 49 1 12 46
M  V30 50 1 13 47
M  V30 51 1 14 48
M  V30 52 1 16 49
M  V30 53 1 17 50
M  V30 54 1 20 51
M  V30 55 1 23 52
M  V30 56 1 26 53
M  V30 57 1 26 54
M  V30 58 1 27 55
M  V30 59 1 27 56
M  V30 60 1 28 57
M  V30 61 1 28 58
M  V30 62 1 29 59
M  V30 63 1 30 60
M  V30 END BOND
M  V30 END CTAB
M  END
>  <Dataset>  (87) 
ChEMBL_Kinases

>  <Ligand_Instance>  (87) 
nan

>  <PDB_ID>  (87) 
nan

>  <Standardized_SMILES>  (87) 
O=C(NCCCCc1ccccc1)Nc1ccc2ncc(-c3cnn(CCCO)c3)nc2n1

>  <Name>  (87) 
nan

>  <Pocket>  (87) 
nan

>  <ATP_Site>  (87) 
nan

>  <Peripheral>  (87) 
nan

>  <Num_H_Atoms_ProtBoundConf>  (87) 
nan

>  <Num_Resolved_Atoms>  (87) 
nan

>  <Num_Not_Resolved_Atoms>  (87) 
nan

$$$$
CHEMBL3671099
     RDKit          3D

  0  0  0  0  0  0  0  0  0  0999 V3000
M  V30 BEGIN CTAB
M  V30 COUNTS 59 62 0 0 0
M  V30 BEGIN ATOM
M  V30 1 C 2.850453 -1.716956 3.211417 0
M  V30 2 O 3.150077 -0.522021 2.527556 0
M  V30 3 C 4.464876 -0.096896 2.490018 0
M  V30 4 N 5.453795 -0.790151 3.084754 0
M  V30 5 C 6.737451 -0.397041 3.061589 0
M  V30 6 C 7.107618 0.767093 2.408715 0
M  V30 7 C 6.081623 1.460486 1.807582 0
M  V30 8 C 4.760689 1.071642 1.821763 0
M  V30 9 C 3.678540 1.807089 1.185198 0
M  V30 10 C 3.874562 2.982540 0.495989 0
M  V30 11 N 2.860171 3.656607 -0.091297 0
M  V30 12 C 1.592792 3.194122 -0.022993 0
M  V30 13 C 0.517033 3.835542 -0.600706 0
M  V30 14 C -0.739452 3.278283 -0.472340 0
M  V30 15 C -0.938823 2.113496 0.209726 0
M  V30 16 N -2.213102 1.496610 0.371747 0
M  V30 17 C -2.625474 0.557033 -0.615003 0
M  V30 18 O -1.916463 0.246069 -1.623884 0
M  V30 19 N -3.890132 -0.034168 -0.424825 0
M  V30 20 C -4.615794 -1.011738 -1.212641 0 CFG=2
M  V30 21 C -5.884112 -0.367976 -1.703640 0
M  V30 22 C -4.909241 -2.267454 -0.429706 0
M  V30 23 C -3.638080 -2.933439 0.042072 0
M  V30 24 C -2.735838 -3.329768 -1.118787 0
M  V30 25 C -1.528832 -3.971500 -0.492712 0
M  V30 26 C -0.416386 -3.232334 -0.137176 0
M  V30 27 C 0.680682 -3.843684 0.436603 0
M  V30 28 C 0.641278 -5.210280 0.647199 0
M  V30 29 C -0.475706 -5.936217 0.287514 0
M  V30 30 C -1.573709 -5.335111 -0.284969 0
M  V30 31 N 0.133238 1.486979 0.777646 0
M  V30 32 C 1.381600 2.018349 0.663827 0
M  V30 33 N 2.405738 1.364294 1.240482 0
M  V30 34 H 3.465522 -1.843870 4.129173 0
M  V30 35 H 1.772873 -1.639102 3.502394 0
M  V30 36 H 2.936252 -2.629401 2.590372 0
M  V30 37 H 7.531964 -0.967368 3.547600 0
M  V30 38 H 8.144520 1.122851 2.366493 0
M  V30 39 H 6.352175 2.371335 1.293479 0
M  V30 40 H 4.846859 3.407090 0.400710 0
M  V30 41 H 0.727478 4.743571 -1.123048 0
M  V30 42 H -1.593704 3.781671 -0.927414 0
M  V30 43 H -2.745708 1.807071 1.237539 0
M  V30 44 H -4.506625 0.201449 0.403950 0
M  V30 45 H -4.045688 -1.331303 -2.121447 0
M  V30 46 H -6.577758 -0.253546 -0.827409 0
M  V30 47 H -6.433459 -1.018463 -2.424047 0
M  V30 48 H -5.701216 0.652166 -2.086584 0
M  V30 49 H -5.388462 -2.989509 -1.122606 0
M  V30 50 H -5.562154 -2.136092 0.432371 0
M  V30 51 H -3.889309 -3.823446 0.619623 0
M  V30 52 H -3.017782 -2.258601 0.665731 0
M  V30 53 H -3.232270 -4.095221 -1.773571 0
M  V30 54 H -2.403221 -2.474419 -1.704727 0
M  V30 55 H -0.442339 -2.150842 -0.328388 0
M  V30 56 H 1.563422 -3.252176 0.717898 0
M  V30 57 H 1.527377 -5.659538 1.103217 0
M  V30 58 H -0.486496 -7.004759 0.460765 0
M  V30 59 H -2.444456 -5.913986 -0.563244 0
M  V30 END ATOM
M  V30 BEGIN BOND
M  V30 1 1 1 2
M  V30 2 1 2 3
M  V30 3 2 3 4
M  V30 4 1 4 5
M  V30 5 2 5 6
M  V30 6 1 6 7
M  V30 7 2 7 8
M  V30 8 1 8 9
M  V30 9 2 9 10
M  V30 10 1 10 11
M  V30 11 2 11 12
M  V30 12 1 12 13
M  V30 13 2 13 14
M  V30 14 1 14 15
M  V30 15 1 15 16
M  V30 16 1 16 17
M  V30 17 2 17 18
M  V30 18 1 17 19
M  V30 19 1 19 20
M  V30 20 1 20 21
M  V30 21 1 20 22
M  V30 22 1 22 23
M  V30 23 1 23 24
M  V30 24 1 24 25
M  V30 25 2 25 26
M  V30 26 1 26 27
M  V30 27 2 27 28
M  V30 28 1 28 29
M  V30 29 2 29 30
M  V30 30 2 15 31
M  V30 31 1 31 32
M  V30 32 2 32 33
M  V30 33 1 8 3
M  V30 34 1 33 9
M  V30 35 1 32 12
M  V30 36 1 30 25
M  V30 37 1 1 34
M  V30 38 1 1 35
M  V30 39 1 1 36
M  V30 40 1 5 37
M  V30 41 1 6 38
M  V30 42 1 7 39
M  V30 43 1 10 40
M  V30 44 1 13 41
M  V30 45 1 14 42
M  V30 46 1 16 43
M  V30 47 1 19 44
M  V30 48 1 20 45 CFG=3
M  V30 49 1 21 46
M  V30 50 1 21 47
M  V30 51 1 21 48
M  V30 52 1 22 49
M  V30 53 1 22 50
M  V30 54 1 23 51
M  V30 55 1 23 52
M  V30 56 1 24 53
M  V30 57 1 24 54
M  V30 58 1 26 55
M  V30 59 1 27 56
M  V30 60 1 28 57
M  V30 61 1 29 58
M  V30 62 1 30 59
M  V30 END BOND
M  V30 END CTAB
M  END
>  <Dataset>  (88) 
ChEMBL_Kinases

>  <Ligand_Instance>  (88) 
nan

>  <PDB_ID>  (88) 
nan

>  <Standardized_SMILES>  (88) 
COc1ncccc1-c1cnc2ccc(NC(=O)N[C@H](C)CCCc3ccccc3)nc2n1

>  <Name>  (88) 
nan

>  <Pocket>  (88) 
nan

>  <ATP_Site>  (88) 
nan

>  <Peripheral>  (88) 
nan

>  <Num_H_Atoms_ProtBoundConf>  (88) 
nan

>  <Num_Resolved_Atoms>  (88) 
nan

>  <Num_Not_Resolved_Atoms>  (88) 
nan

$$$$
CHEMBL3671098
     RDKit          3D

  0  0  0  0  0  0  0  0  0  0999 V3000
M  V30 BEGIN CTAB
M  V30 COUNTS 54 57 0 0 0
M  V30 BEGIN ATOM
M  V30 1 O 0.366460 -0.704610 2.593925 0
M  V30 2 C 0.193856 0.335575 3.288902 0
M  V30 3 N 1.134987 0.805501 4.238328 0
M  V30 4 C 2.316795 0.032150 4.386493 0
M  V30 5 C 3.264699 -0.096768 3.246576 0
M  V30 6 C 3.942905 1.109288 2.760582 0
M  V30 7 C 3.216169 2.203187 2.105435 0
M  V30 8 C 2.606229 1.928782 0.802166 0
M  V30 9 C 3.625963 2.003411 -0.168974 0
M  V30 10 C 3.449387 1.820993 -1.545277 0
M  V30 11 C 2.194114 1.544210 -2.035745 0
M  V30 12 C 1.163532 1.461473 -1.127189 0
M  V30 13 C 1.412356 1.652304 0.204746 0
M  V30 14 N -1.012786 1.091261 3.120715 0
M  V30 15 C -1.996782 0.645567 2.164378 0
M  V30 16 C -3.193487 1.341515 1.955804 0
M  V30 17 C -4.086904 0.854420 1.023907 0
M  V30 18 C -3.826438 -0.292145 0.302054 0
M  V30 19 N -4.656414 -0.820490 -0.622195 0
M  V30 20 C -4.324316 -1.958918 -1.293230 0
M  V30 21 C -3.135274 -2.615329 -1.058931 0
M  V30 22 C -2.759638 -3.833403 -1.764482 0
M  V30 23 C -3.517715 -4.467093 -2.725304 0
M  V30 24 C -3.100050 -5.621918 -3.355951 0
M  V30 25 C -1.883241 -6.172447 -3.022884 0
M  V30 26 O -1.476813 -7.341247 -3.671306 0
M  V30 27 C -1.081256 -5.583843 -2.069502 0
M  V30 28 C -1.550925 -4.428604 -1.470915 0
M  V30 29 N -2.321585 -2.072025 -0.133274 0
M  V30 30 C -2.635960 -0.948724 0.537117 0
M  V30 31 N -1.755740 -0.483698 1.443769 0
M  V30 32 H 0.949546 1.676204 4.788888 0
M  V30 33 H 2.858190 0.268984 5.349011 0
M  V30 34 H 1.969754 -1.041210 4.596126 0
M  V30 35 H 2.753781 -0.599766 2.359417 0
M  V30 36 H 4.038955 -0.877250 3.526986 0
M  V30 37 H 4.557683 1.596718 3.594535 0
M  V30 38 H 4.802526 0.815245 2.048256 0
M  V30 39 H 2.396512 2.576964 2.797482 0
M  V30 40 H 3.895167 3.097226 2.028698 0
M  V30 41 H 4.699739 2.211576 -0.010228 0
M  V30 42 H 4.209553 1.872682 -2.304418 0
M  V30 43 H 1.868440 1.374799 -3.048536 0
M  V30 44 H 0.125052 1.254428 -1.334507 0
M  V30 45 H 0.654501 1.627298 0.960787 0
M  V30 46 H -1.236783 1.947755 3.641997 0
M  V30 47 H -3.380061 2.230109 2.524790 0
M  V30 48 H -5.032521 1.366376 0.829801 0
M  V30 49 H -5.028944 -2.327358 -2.016140 0
M  V30 50 H -4.471975 -4.028661 -2.981339 0
M  V30 51 H -3.708398 -6.103867 -4.106486 0
M  V30 52 H -0.605021 -7.797109 -3.392827 0
M  V30 53 H -0.132398 -6.035229 -1.826802 0
M  V30 54 H -0.864465 -4.017743 -0.726530 0
M  V30 END ATOM
M  V30 BEGIN BOND
M  V30 1 2 1 2
M  V30 2 1 2 3
M  V30 3 1 3 4
M  V30 4 1 4 5
M  V30 5 1 5 6
M  V30 6 1 6 7
M  V30 7 1 7 8
M  V30 8 2 8 9
M  V30 9 1 9 10
M  V30 10 2 10 11
M  V30 11 1 11 12
M  V30 12 2 12 13
M  V30 13 1 2 14
M  V30 14 1 14 15
M  V30 15 2 15 16
M  V30 16 1 16 17
M  V30 17 2 17 18
M  V30 18 1 18 19
M  V30 19 2 19 20
M  V30 20 1 20 21
M  V30 21 1 21 22
M  V30 22 2 22 23
M  V30 23 1 23 24
M  V30 24 2 24 25
M  V30 25 1 25 26
M  V30 26 1 25 27
M  V30 27 2 27 28
M  V30 28 2 21 29
M  V30 29 1 29 30
M  V30 30 2 30 31
M  V30 31 1 13 8
M  V30 32 1 31 15
M  V30 33 1 30 18
M  V30 34 1 28 22
M  V30 35 1 3 32
M  V30 36 1 4 33
M  V30 37 1 4 34
M  V30 38 1 5 35
M  V30 39 1 5 36
M  V30 40 1 6 37
M  V30 41 1 6 38
M  V30 42 1 7 39
M  V30 43 1 7 40
M  V30 44 1 9 41
M  V30 45 1 10 42
M  V30 46 1 11 43
M  V30 47 1 12 44
M  V30 48 1 13 45
M  V30 49 1 14 46
M  V30 50 1 16 47
M  V30 51 1 17 48
M  V30 52 1 20 49
M  V30 53 1 23 50
M  V30 54 1 24 51
M  V30 55 1 26 52
M  V30 56 1 27 53
M  V30 57 1 28 54
M  V30 END BOND
M  V30 END CTAB
M  END
>  <Dataset>  (89) 
ChEMBL_Kinases

>  <Ligand_Instance>  (89) 
nan

>  <PDB_ID>  (89) 
nan

>  <Standardized_SMILES>  (89) 
O=C(NCCCCc1ccccc1)Nc1ccc2ncc(-c3ccc(O)cc3)nc2n1

>  <Name>  (89) 
nan

>  <Pocket>  (89) 
nan

>  <ATP_Site>  (89) 
nan

>  <Peripheral>  (89) 
nan

>  <Num_H_Atoms_ProtBoundConf>  (89) 
nan

>  <Num_Resolved_Atoms>  (89) 
nan

>  <Num_Not_Resolved_Atoms>  (89) 
nan

$$$$
CHEMBL3671097
     RDKit          3D

  0  0  0  0  0  0  0  0  0  0999 V3000
M  V30 BEGIN CTAB
M  V30 COUNTS 50 53 0 0 0
M  V30 BEGIN ATOM
M  V30 1 O 0.425034 -0.546045 1.044707 0
M  V30 2 C 0.441428 -1.649908 1.689053 0
M  V30 3 N 1.656931 -2.270632 2.088284 0
M  V30 4 C 2.885779 -1.532414 1.696545 0
M  V30 5 C 4.069345 -2.306502 2.178573 0
M  V30 6 C 5.417470 -1.788565 1.904023 0
M  V30 7 C 5.869371 -0.513895 2.490587 0
M  V30 8 C 5.189316 0.731937 2.218062 0
M  V30 9 C 5.524499 1.321158 0.995599 0
M  V30 10 C 5.054856 2.535702 0.526697 0
M  V30 11 C 4.180306 3.236562 1.322570 0
M  V30 12 C 3.812296 2.719979 2.525447 0
M  V30 13 C 4.293154 1.511164 2.968279 0
M  V30 14 N -0.819051 -2.237477 1.992866 0
M  V30 15 C -2.013283 -1.587849 1.573063 0
M  V30 16 C -2.670610 -0.656212 2.349170 0
M  V30 17 C -3.839113 -0.008557 1.958293 0
M  V30 18 C -4.293679 -0.388752 0.696241 0
M  V30 19 N -5.436825 0.201994 0.237877 0
M  V30 20 C -5.936697 -0.119222 -0.980828 0
M  V30 21 C -5.307203 -1.046021 -1.785101 0
M  V30 22 C -5.845091 -1.393490 -3.096125 0
M  V30 23 C -5.336775 -2.293423 -4.007314 0
M  V30 24 N -6.135304 -2.314567 -5.086728 0
M  V30 25 N -7.149055 -1.452192 -4.900881 0
M  V30 26 C -6.984048 -0.874307 -3.674419 0
M  V30 27 N -4.181353 -1.623414 -1.325906 0
M  V30 28 C -3.660906 -1.317461 -0.107093 0
M  V30 29 N -2.534695 -1.894737 0.352293 0
M  V30 30 H 1.672464 -3.179286 2.618558 0
M  V30 31 H 2.818543 -0.501548 2.002650 0
M  V30 32 H 2.893620 -1.515732 0.567748 0
M  V30 33 H 3.946543 -2.539341 3.291159 0
M  V30 34 H 3.953766 -3.336599 1.712402 0
M  V30 35 H 5.618934 -1.770750 0.784799 0
M  V30 36 H 6.163731 -2.598655 2.240521 0
M  V30 37 H 6.968537 -0.330270 2.241846 0
M  V30 38 H 5.899423 -0.681551 3.617103 0
M  V30 39 H 6.212929 0.847900 0.284964 0
M  V30 40 H 5.332144 2.957639 -0.414947 0
M  V30 41 H 3.773025 4.186227 1.025836 0
M  V30 42 H 3.137223 3.194909 3.210641 0
M  V30 43 H 4.059672 1.016699 3.909270 0
M  V30 44 H -0.783730 -3.124183 2.511866 0
M  V30 45 H -2.265338 -0.405711 3.319505 0
M  V30 46 H -4.344454 0.709130 2.556456 0
M  V30 47 H -6.851392 0.346933 -1.358463 0
M  V30 48 H -4.428497 -2.879073 -3.847422 0
M  V30 49 H -7.872885 -1.342814 -5.655131 0
M  V30 50 H -7.678836 -0.138214 -3.293931 0
M  V30 END ATOM
M  V30 BEGIN BOND
M  V30 1 2 1 2
M  V30 2 1 2 3
M  V30 3 1 3 4
M  V30 4 1 4 5
M  V30 5 1 5 6
M  V30 6 1 6 7
M  V30 7 1 7 8
M  V30 8 2 8 9
M  V30 9 1 9 10
M  V30 10 2 10 11
M  V30 11 1 11 12
M  V30 12 2 12 13
M  V30 13 1 2 14
M  V30 14 1 14 15
M  V30 15 2 15 16
M  V30 16 1 16 17
M  V30 17 2 17 18
M  V30 18 1 18 19
M  V30 19 2 19 20
M  V30 20 1 20 21
M  V30 21 1 21 22
M  V30 22 1 22 23
M  V30 23 2 23 24
M  V30 24 1 24 25
M  V30 25 1 25 26
M  V30 26 2 21 27
M  V30 27 1 27 28
M  V30 28 2 28 29
M  V30 29 1 13 8
M  V30 30 1 29 15
M  V30 31 1 28 18
M  V30 32 2 26 22
M  V30 33 1 3 30
M  V30 34 1 4 31
M  V30 35 1 4 32
M  V30 36 1 5 33
M  V30 37 1 5 34
M  V30 38 1 6 35
M  V30 39 1 6 36
M  V30 40 1 7 37
M  V30 41 1 7 38
M  V30 42 1 9 39
M  V30 43 1 10 40
M  V30 44 1 11 41
M  V30 45 1 12 42
M  V30 46 1 13 43
M  V30 47 1 14 44
M  V30 48 1 16 45
M  V30 49 1 17 46
M  V30 50 1 20 47
M  V30 51 1 23 48
M  V30 52 1 25 49
M  V30 53 1 26 50
M  V30 END BOND
M  V30 END CTAB
M  END
>  <Dataset>  (90) 
ChEMBL_Kinases

>  <Ligand_Instance>  (90) 
nan

>  <PDB_ID>  (90) 
nan

>  <Standardized_SMILES>  (90) 
O=C(NCCCCc1ccccc1)Nc1ccc2ncc(-c3cn[nH]c3)nc2n1

>  <Name>  (90) 
nan

>  <Pocket>  (90) 
nan

>  <ATP_Site>  (90) 
nan

>  <Peripheral>  (90) 
nan

>  <Num_H_Atoms_ProtBoundConf>  (90) 
nan

>  <Num_Resolved_Atoms>  (90) 
nan

>  <Num_Not_Resolved_Atoms>  (90) 
nan

$$$$
CHEMBL3671096
     RDKit          3D

  0  0  0  0  0  0  0  0  0  0999 V3000
M  V30 BEGIN CTAB
M  V30 COUNTS 64 67 0 0 0
M  V30 BEGIN ATOM
M  V30 1 C 3.997954 5.867159 2.794804 0
M  V30 2 O 3.803189 5.909807 1.379517 0
M  V30 3 C 4.110897 4.812842 0.587575 0
M  V30 4 C 5.416409 4.792819 0.157368 0
M  V30 5 C 6.406240 5.839662 0.501933 0
M  V30 6 O 6.792402 5.595944 1.840106 0
M  V30 7 C 5.815022 3.718012 -0.643463 0
M  V30 8 C 4.879323 2.758666 -0.945050 0
M  V30 9 C 3.584248 2.838276 -0.481805 0
M  V30 10 C 3.150556 3.881875 0.309575 0
M  V30 11 C 1.774826 3.866941 0.748416 0
M  V30 12 C 1.040815 4.862558 1.338536 0
M  V30 13 N -0.246713 4.775251 1.699983 0
M  V30 14 C -0.914109 3.616146 1.477845 0
M  V30 15 C -2.235555 3.472115 1.835268 0
M  V30 16 C -2.816099 2.233254 1.563680 0
M  V30 17 C -2.122727 1.185881 0.966335 0
M  V30 18 N -2.762331 -0.061028 0.719789 0
M  V30 19 C -2.046519 -1.118059 0.104329 0
M  V30 20 O -0.837227 -0.932243 -0.229248 0
M  V30 21 N -2.711645 -2.361448 -0.121244 0
M  V30 22 C -2.051095 -3.522072 -0.759822 0 CFG=2
M  V30 23 C -2.664582 -3.779336 -2.058772 0
M  V30 24 C -1.878543 -4.544546 0.264540 0
M  V30 25 C -1.266933 -5.841183 -0.017797 0
M  V30 26 C -1.927518 -6.813703 -0.922557 0
M  V30 27 C -3.210270 -7.333891 -0.439871 0
M  V30 28 C -4.544547 -7.047840 -0.561163 0
M  V30 29 C -5.596657 -7.700001 0.026755 0
M  V30 30 C -5.342499 -8.776480 0.845195 0
M  V30 31 C -4.027579 -9.145612 1.032531 0
M  V30 32 C -3.011546 -8.449241 0.413282 0
M  V30 33 N -0.827061 1.406425 0.644270 0
M  V30 34 C -0.220803 2.582759 0.885079 0
M  V30 35 N 1.071167 2.744536 0.549565 0
M  V30 36 H 4.411264 4.881232 3.055093 0
M  V30 37 H 3.049694 6.005051 3.353222 0
M  V30 38 H 4.628834 6.732035 3.074810 0
M  V30 39 H 6.043761 6.869365 0.374226 0
M  V30 40 H 7.297460 5.722357 -0.150334 0
M  V30 41 H 6.726383 4.634526 2.046374 0
M  V30 42 H 6.846609 3.698831 -0.986324 0
M  V30 43 H 5.180241 1.923911 -1.563738 0
M  V30 44 H 2.916911 2.016575 -0.784274 0
M  V30 45 H 1.508590 5.801864 1.522907 0
M  V30 46 H -2.791338 4.272534 2.299339 0
M  V30 47 H -3.849523 2.121276 1.843455 0
M  V30 48 H -3.744856 -0.180911 1.000363 0
M  V30 49 H -3.720769 -2.483642 0.172545 0
M  V30 50 H -1.014399 -3.065085 -0.986287 0
M  V30 51 H -3.074788 -2.805012 -2.496643 0
M  V30 52 H -1.979012 -4.117876 -2.863698 0
M  V30 53 H -3.561506 -4.416153 -2.030292 0
M  V30 54 H -2.854736 -4.746599 0.812258 0
M  V30 55 H -1.266628 -4.090145 1.113695 0
M  V30 56 H -0.154249 -5.747724 -0.236232 0
M  V30 57 H -1.216954 -6.378297 0.991425 0
M  V30 58 H -2.052553 -6.291474 -1.928795 0
M  V30 59 H -1.281581 -7.674457 -1.196636 0
M  V30 60 H -4.698597 -6.206899 -1.212776 0
M  V30 61 H -6.569634 -7.303955 -0.208440 0
M  V30 62 H -6.229264 -9.220574 1.257628 0
M  V30 63 H -3.888178 -9.992512 1.682818 0
M  V30 64 H -2.031206 -8.877865 0.672542 0
M  V30 END ATOM
M  V30 BEGIN BOND
M  V30 1 1 1 2
M  V30 2 1 2 3
M  V30 3 2 3 4
M  V30 4 1 4 5
M  V30 5 1 5 6
M  V30 6 1 4 7
M  V30 7 2 7 8
M  V30 8 1 8 9
M  V30 9 2 9 10
M  V30 10 1 10 11
M  V30 11 2 11 12
M  V30 12 1 12 13
M  V30 13 2 13 14
M  V30 14 1 14 15
M  V30 15 2 15 16
M  V30 16 1 16 17
M  V30 17 1 17 18
M  V30 18 1 18 19
M  V30 19 2 19 20
M  V30 20 1 19 21
M  V30 21 1 21 22
M  V30 22 1 22 23
M  V30 23 1 22 24
M  V30 24 1 24 25
M  V30 25 1 25 26
M  V30 26 1 26 27
M  V30 27 2 27 28
M  V30 28 1 28 29
M  V30 29 2 29 30
M  V30 30 1 30 31
M  V30 31 2 31 32
M  V30 32 2 17 33
M  V30 33 1 33 34
M  V30 34 2 34 35
M  V30 35 1 10 3
M  V30 36 1 35 11
M  V30 37 1 34 14
M  V30 38 1 32 27
M  V30 39 1 1 36
M  V30 40 1 1 37
M  V30 41 1 1 38
M  V30 42 1 5 39
M  V30 43 1 5 40
M  V30 44 1 6 41
M  V30 45 1 7 42
M  V30 46 1 8 43
M  V30 47 1 9 44
M  V30 48 1 12 45
M  V30 49 1 15 46
M  V30 50 1 16 47
M  V30 51 1 18 48
M  V30 52 1 21 49
M  V30 53 1 22 50 CFG=3
M  V30 54 1 23 51
M  V30 55 1 23 52
M  V30 56 1 23 53
M  V30 57 1 24 54
M  V30 58 1 24 55
M  V30 59 1 25 56
M  V30 60 1 25 57
M  V30 61 1 26 58
M  V30 62 1 26 59
M  V30 63 1 28 60
M  V30 64 1 29 61
M  V30 65 1 30 62
M  V30 66 1 31 63
M  V30 67 1 32 64
M  V30 END BOND
M  V30 END CTAB
M  END
>  <Dataset>  (91) 
ChEMBL_Kinases

>  <Ligand_Instance>  (91) 
nan

>  <PDB_ID>  (91) 
nan

>  <Standardized_SMILES>  (91) 
COc1c(CO)cccc1-c1cnc2ccc(NC(=O)N[C@H](C)CCCc3ccccc3)nc2n1

>  <Name>  (91) 
nan

>  <Pocket>  (91) 
nan

>  <ATP_Site>  (91) 
nan

>  <Peripheral>  (91) 
nan

>  <Num_H_Atoms_ProtBoundConf>  (91) 
nan

>  <Num_Resolved_Atoms>  (91) 
nan

>  <Num_Not_Resolved_Atoms>  (91) 
nan

$$$$
CHEMBL3671095
     RDKit          3D

  0  0  0  0  0  0  0  0  0  0999 V3000
M  V30 BEGIN CTAB
M  V30 COUNTS 55 58 0 0 0
M  V30 BEGIN ATOM
M  V30 1 C 0.893582 0.457531 5.233381 0
M  V30 2 C 1.566062 0.645407 3.844249 0 CFG=2
M  V30 3 C 2.915594 1.212450 4.014683 0
M  V30 4 C 3.714341 1.478089 2.802485 0
M  V30 5 C 4.133327 0.381790 1.926497 0
M  V30 6 C 3.179414 -0.472330 1.252829 0
M  V30 7 C 2.696890 0.128441 0.078844 0
M  V30 8 C 1.808257 -0.479163 -0.788411 0
M  V30 9 C 1.340714 -1.746789 -0.528542 0
M  V30 10 C 1.785909 -2.374534 0.610167 0
M  V30 11 C 2.669047 -1.760771 1.464534 0
M  V30 12 N 0.673995 1.614054 3.184084 0
M  V30 13 C -0.158665 1.223994 2.128104 0
M  V30 14 O -0.084994 0.020469 1.801868 0
M  V30 15 N -1.054295 2.072725 1.422198 0
M  V30 16 C -1.856468 1.564507 0.359902 0
M  V30 17 C -2.738911 2.349535 -0.352620 0
M  V30 18 C -3.522996 1.848214 -1.392596 0
M  V30 19 C -3.383019 0.511215 -1.691076 0
M  V30 20 N -4.091628 -0.078253 -2.677190 0
M  V30 21 C -3.927134 -1.400792 -2.943523 0
M  V30 22 C -3.048234 -2.194859 -2.238014 0
M  V30 23 C -2.868681 -3.611961 -2.519839 0
M  V30 24 C -3.528842 -4.324977 -3.494052 0
M  V30 25 C -3.252001 -5.652868 -3.637682 0
M  V30 26 N -2.359001 -6.331689 -2.877607 0
M  V30 27 C -1.710312 -5.657187 -1.929207 0
M  V30 28 C -1.966133 -4.328448 -1.761974 0
M  V30 29 N -2.350947 -1.583637 -1.257063 0
M  V30 30 C -2.500593 -0.274728 -0.978872 0
M  V30 31 N -1.752333 0.255436 0.031154 0
M  V30 32 H 1.343003 -0.408330 5.720521 0
M  V30 33 H 1.070573 1.412853 5.748526 0
M  V30 34 H -0.183965 0.346481 5.025213 0
M  V30 35 H 1.443525 -0.306815 3.364685 0
M  V30 36 H 2.803472 2.166980 4.607685 0
M  V30 37 H 3.550294 0.499365 4.649107 0
M  V30 38 H 3.156198 2.295195 2.236600 0
M  V30 39 H 4.659122 2.037616 3.150338 0
M  V30 40 H 4.900052 0.741678 1.148815 0
M  V30 41 H 4.829510 -0.285234 2.564181 0
M  V30 42 H 2.962397 1.134762 -0.284965 0
M  V30 43 H 1.427626 -0.032206 -1.694234 0
M  V30 44 H 0.662022 -2.326640 -1.103417 0
M  V30 45 H 1.486757 -3.358099 0.906776 0
M  V30 46 H 3.101980 -2.141785 2.398384 0
M  V30 47 H 0.643364 2.628384 3.494703 0
M  V30 48 H -1.106057 3.069627 1.702734 0
M  V30 49 H -2.843744 3.407062 -0.109978 0
M  V30 50 H -4.214929 2.466871 -1.950260 0
M  V30 51 H -4.523671 -1.812929 -3.745137 0
M  V30 52 H -4.242536 -3.795327 -4.105855 0
M  V30 53 H -3.807243 -6.155024 -4.423948 0
M  V30 54 H -0.983364 -6.183319 -1.301511 0
M  V30 55 H -1.411250 -3.832971 -0.978427 0
M  V30 END ATOM
M  V30 BEGIN BOND
M  V30 1 1 1 2
M  V30 2 1 2 3
M  V30 3 1 3 4
M  V30 4 1 4 5
M  V30 5 1 5 6
M  V30 6 2 6 7
M  V30 7 1 7 8
M  V30 8 2 8 9
M  V30 9 1 9 10
M  V30 10 2 10 11
M  V30 11 1 2 12
M  V30 12 1 12 13
M  V30 13 2 13 14
M  V30 14 1 13 15
M  V30 15 1 15 16
M  V30 16 2 16 17
M  V30 17 1 17 18
M  V30 18 2 18 19
M  V30 19 1 19 20
M  V30 20 2 20 21
M  V30 21 1 21 22
M  V30 22 1 22 23
M  V30 23 2 23 24
M  V30 24 1 24 25
M  V30 25 2 25 26
M  V30 26 1 26 27
M  V30 27 2 27 28
M  V30 28 2 22 29
M  V30 29 1 29 30
M  V30 30 2 30 31
M  V30 31 1 11 6
M  V30 32 1 31 16
M  V30 33 1 30 19
M  V30 34 1 28 23
M  V30 35 1 1 32
M  V30 36 1 1 33
M  V30 37 1 1 34
M  V30 38 1 2 35 CFG=3
M  V30 39 1 3 36
M  V30 40 1 3 37
M  V30 41 1 4 38
M  V30 42 1 4 39
M  V30 43 1 5 40
M  V30 44 1 5 41
M  V30 45 1 7 42
M  V30 46 1 8 43
M  V30 47 1 9 44
M  V30 48 1 10 45
M  V30 49 1 11 46
M  V30 50 1 12 47
M  V30 51 1 15 48
M  V30 52 1 17 49
M  V30 53 1 18 50
M  V30 54 1 21 51
M  V30 55 1 24 52
M  V30 56 1 25 53
M  V30 57 1 27 54
M  V30 58 1 28 55
M  V30 END BOND
M  V30 END CTAB
M  END
>  <Dataset>  (92) 
ChEMBL_Kinases

>  <Ligand_Instance>  (92) 
nan

>  <PDB_ID>  (92) 
nan

>  <Standardized_SMILES>  (92) 
C[C@H](CCCc1ccccc1)NC(=O)Nc1ccc2ncc(-c3ccncc3)nc2n1

>  <Name>  (92) 
nan

>  <Pocket>  (92) 
nan

>  <ATP_Site>  (92) 
nan

>  <Peripheral>  (92) 
nan

>  <Num_H_Atoms_ProtBoundConf>  (92) 
nan

>  <Num_Resolved_Atoms>  (92) 
nan

>  <Num_Not_Resolved_Atoms>  (92) 
nan

$$$$
CHEMBL3671094
     RDKit          3D

  0  0  0  0  0  0  0  0  0  0999 V3000
M  V30 BEGIN CTAB
M  V30 COUNTS 64 67 0 0 0
M  V30 BEGIN ATOM
M  V30 1 C 3.838130 5.403167 5.573396 0
M  V30 2 O 3.251806 4.661523 4.549250 0
M  V30 3 C 3.888112 3.744258 3.738035 0
M  V30 4 C 5.228604 3.567189 3.988228 0
M  V30 5 C 5.935271 2.668202 3.220890 0
M  V30 6 C 7.373333 2.427241 3.432934 0
M  V30 7 O 7.632095 1.402010 4.344313 0
M  V30 8 C 5.242334 1.996558 2.239691 0
M  V30 9 C 3.897550 2.213239 2.032262 0
M  V30 10 C 3.161326 3.107669 2.784662 0
M  V30 11 C 1.761565 3.249282 2.474232 0
M  V30 12 C 0.822174 4.058343 3.060504 0
M  V30 13 N -0.457268 4.134411 2.716057 0
M  V30 14 C -0.921564 3.374624 1.713813 0
M  V30 15 C -2.236483 3.401657 1.302716 0
M  V30 16 C -2.653646 2.595868 0.264982 0
M  V30 17 C -1.744959 1.764409 -0.356381 0
M  V30 18 N -1.993849 0.868027 -1.438518 0
M  V30 19 C -2.389370 -0.468755 -1.144542 0
M  V30 20 O -2.502587 -0.798215 0.081553 0
M  V30 21 N -2.640544 -1.374772 -2.182723 0
M  V30 22 C -3.063969 -2.802361 -1.892544 0 CFG=2
M  V30 23 C -1.904715 -3.574586 -2.456281 0
M  V30 24 C -4.393302 -3.038386 -2.456096 0
M  V30 25 C -5.109728 -4.296461 -2.307449 0
M  V30 26 C -4.767050 -5.612846 -2.808734 0
M  V30 27 C -3.581134 -6.356010 -2.450340 0
M  V30 28 C -3.631382 -6.946498 -1.178467 0
M  V30 29 C -2.677804 -7.762439 -0.609127 0
M  V30 30 C -1.552040 -8.036256 -1.354043 0
M  V30 31 C -1.426982 -7.494058 -2.613928 0
M  V30 32 C -2.405776 -6.686082 -3.137566 0
M  V30 33 N -0.451491 1.766243 0.079690 0
M  V30 34 C -0.029467 2.536747 1.079623 0
M  V30 35 N 1.256661 2.503126 1.473575 0
M  V30 36 H 4.397298 6.293360 5.221985 0
M  V30 37 H 4.533921 4.828682 6.229080 0
M  V30 38 H 3.059509 5.817210 6.272574 0
M  V30 39 H 5.750565 4.107307 4.765233 0
M  V30 40 H 7.861002 2.181252 2.468600 0
M  V30 41 H 7.897605 3.318913 3.835832 0
M  V30 42 H 7.744623 0.516794 3.917611 0
M  V30 43 H 5.793036 1.290955 1.635879 0
M  V30 44 H 3.459928 1.615018 1.218818 0
M  V30 45 H 1.129630 4.683451 3.859903 0
M  V30 46 H -2.955387 4.050174 1.783856 0
M  V30 47 H -3.662276 2.552267 -0.122093 0
M  V30 48 H -1.904619 1.126736 -2.447038 0
M  V30 49 H -2.554627 -1.132696 -3.214367 0
M  V30 50 H -3.096233 -2.830776 -0.789911 0
M  V30 51 H -0.954912 -2.947299 -2.524973 0
M  V30 52 H -1.594738 -4.376686 -1.739402 0
M  V30 53 H -2.095572 -3.897105 -3.476580 0
M  V30 54 H -4.291860 -2.793814 -3.579329 0
M  V30 55 H -5.098830 -2.207971 -2.105024 0
M  V30 56 H -6.223615 -4.088510 -2.606618 0
M  V30 57 H -5.256094 -4.421244 -1.153747 0
M  V30 58 H -5.647384 -6.320983 -2.546494 0
M  V30 59 H -4.873136 -5.651607 -3.959533 0
M  V30 60 H -4.486671 -6.793032 -0.500031 0
M  V30 61 H -2.762590 -8.193274 0.374597 0
M  V30 62 H -0.725969 -8.655954 -1.039939 0
M  V30 63 H -0.575337 -7.648177 -3.286286 0
M  V30 64 H -2.410654 -6.204436 -4.122556 0
M  V30 END ATOM
M  V30 BEGIN BOND
M  V30 1 1 1 2
M  V30 2 1 2 3
M  V30 3 2 3 4
M  V30 4 1 4 5
M  V30 5 1 5 6
M  V30 6 1 6 7
M  V30 7 2 5 8
M  V30 8 1 8 9
M  V30 9 2 9 10
M  V30 10 1 10 11
M  V30 11 2 11 12
M  V30 12 1 12 13
M  V30 13 2 13 14
M  V30 14 1 14 15
M  V30 15 2 15 16
M  V30 16 1 16 17
M  V30 17 1 17 18
M  V30 18 1 18 19
M  V30 19 2 19 20
M  V30 20 1 19 21
M  V30 21 1 21 22
M  V30 22 1 22 23
M  V30 23 1 22 24
M  V30 24 1 24 25
M  V30 25 1 25 26
M  V30 26 1 26 27
M  V30 27 2 27 28
M  V30 28 1 28 29
M  V30 29 2 29 30
M  V30 30 1 30 31
M  V30 31 2 31 32
M  V30 32 2 17 33
M  V30 33 1 33 34
M  V30 34 2 34 35
M  V30 35 1 10 3
M  V30 36 1 35 11
M  V30 37 1 34 14
M  V30 38 1 32 27
M  V30 39 1 1 36
M  V30 40 1 1 37
M  V30 41 1 1 38
M  V30 42 1 4 39
M  V30 43 1 6 40
M  V30 44 1 6 41
M  V30 45 1 7 42
M  V30 46 1 8 43
M  V30 47 1 9 44
M  V30 48 1 12 45
M  V30 49 1 15 46
M  V30 50 1 16 47
M  V30 51 1 18 48
M  V30 52 1 21 49
M  V30 53 1 22 50 CFG=1
M  V30 54 1 23 51
M  V30 55 1 23 52
M  V30 56 1 23 53
M  V30 57 1 24 54
M  V30 58 1 24 55
M  V30 59 1 25 56
M  V30 60 1 25 57
M  V30 61 1 26 58
M  V30 62 1 26 59
M  V30 63 1 28 60
M  V30 64 1 29 61
M  V30 65 1 30 62
M  V30 66 1 31 63
M  V30 67 1 32 64
M  V30 END BOND
M  V30 END CTAB
M  END
>  <Dataset>  (93) 
ChEMBL_Kinases

>  <Ligand_Instance>  (93) 
nan

>  <PDB_ID>  (93) 
nan

>  <Standardized_SMILES>  (93) 
COc1cc(CO)ccc1-c1cnc2ccc(NC(=O)N[C@H](C)CCCc3ccccc3)nc2n1

>  <Name>  (93) 
nan

>  <Pocket>  (93) 
nan

>  <ATP_Site>  (93) 
nan

>  <Peripheral>  (93) 
nan

>  <Num_H_Atoms_ProtBoundConf>  (93) 
nan

>  <Num_Resolved_Atoms>  (93) 
nan

>  <Num_Not_Resolved_Atoms>  (93) 
nan

$$$$
CHEMBL3671093
     RDKit          3D

  0  0  0  0  0  0  0  0  0  0999 V3000
M  V30 BEGIN CTAB
M  V30 COUNTS 53 56 0 0 0
M  V30 BEGIN ATOM
M  V30 1 C 0.438115 -4.678844 5.089735 0
M  V30 2 N 1.662594 -4.252399 4.420364 0
M  V30 3 C 1.693621 -3.238686 3.527390 0
M  V30 4 C 3.017226 -3.167417 3.144330 0
M  V30 5 C 3.517008 -2.196288 2.174994 0
M  V30 6 C 4.847113 -2.147948 1.810511 0
M  V30 7 N 5.296160 -1.232658 0.902341 0
M  V30 8 C 4.399091 -0.363603 0.360691 0
M  V30 9 C 4.775089 0.592463 -0.565358 0
M  V30 10 C 3.845595 1.468659 -1.105372 0
M  V30 11 C 2.521531 1.402220 -0.726571 0
M  V30 12 N 1.555692 2.296431 -1.273581 0
M  V30 13 C 0.192563 2.201117 -0.860668 0
M  V30 14 O -0.112342 1.321428 -0.018945 0
M  V30 15 N -0.781327 3.059309 -1.374367 0
M  V30 16 C -2.195193 3.070600 -1.045169 0
M  V30 17 C -2.753197 1.717379 -1.423922 0
M  V30 18 C -4.234045 1.617250 -1.124068 0
M  V30 19 C -4.681007 0.231119 -1.541320 0
M  V30 20 C -3.954244 -0.826307 -0.803726 0
M  V30 21 C -2.772444 -1.428810 -1.182259 0
M  V30 22 C -2.167466 -2.408067 -0.428886 0
M  V30 23 C -2.741349 -2.826881 0.759375 0
M  V30 24 C -3.923000 -2.231712 1.148103 0
M  V30 25 C -4.534828 -1.245375 0.391843 0
M  V30 26 N 2.157453 0.466535 0.178800 0
M  V30 27 C 3.061973 -0.396098 0.713029 0
M  V30 28 N 2.652182 -1.325044 1.623613 0
M  V30 29 C 3.754744 -4.128660 3.805189 0
M  V30 30 N 2.873253 -4.794124 4.600105 0
M  V30 31 H -0.207754 -3.777094 5.254463 0
M  V30 32 H -0.099870 -5.451281 4.509856 0
M  V30 33 H 0.732399 -5.043251 6.097791 0
M  V30 34 H 0.852584 -2.643374 3.211235 0
M  V30 35 H 5.541429 -2.855511 2.260209 0
M  V30 36 H 5.802779 0.625418 -0.843135 0
M  V30 37 H 4.189423 2.195835 -1.823727 0
M  V30 38 H 1.865255 3.004156 -1.966267 0
M  V30 39 H -0.450405 3.773119 -2.075207 0
M  V30 40 H -2.726743 3.900901 -1.506151 0
M  V30 41 H -2.345701 3.142700 0.068074 0
M  V30 42 H -2.265030 0.951920 -0.808248 0
M  V30 43 H -2.591339 1.460742 -2.485745 0
M  V30 44 H -4.722773 2.361806 -1.775648 0
M  V30 45 H -4.433155 1.791902 -0.051241 0
M  V30 46 H -5.781302 0.116669 -1.440838 0
M  V30 47 H -4.454882 0.085391 -2.614143 0
M  V30 48 H -2.364926 -1.055925 -2.132610 0
M  V30 49 H -1.237917 -2.785063 -0.863420 0
M  V30 50 H -2.198321 -3.594540 1.278407 0
M  V30 51 H -4.296859 -2.626772 2.094792 0
M  V30 52 H -5.469061 -0.864141 0.825282 0
M  V30 53 H 4.837672 -4.283175 3.677672 0
M  V30 END ATOM
M  V30 BEGIN BOND
M  V30 1 1 1 2
M  V30 2 1 2 3
M  V30 3 2 3 4
M  V30 4 1 4 5
M  V30 5 2 5 6
M  V30 6 1 6 7
M  V30 7 2 7 8
M  V30 8 1 8 9
M  V30 9 2 9 10
M  V30 10 1 10 11
M  V30 11 1 11 12
M  V30 12 1 12 13
M  V30 13 2 13 14
M  V30 14 1 13 15
M  V30 15 1 15 16
M  V30 16 1 16 17
M  V30 17 1 17 18
M  V30 18 1 18 19
M  V30 19 1 19 20
M  V30 20 2 20 21
M  V30 21 1 21 22
M  V30 22 2 22 23
M  V30 23 1 23 24
M  V30 24 2 24 25
M  V30 25 2 11 26
M  V30 26 1 26 27
M  V30 27 2 27 28
M  V30 28 1 4 29
M  V30 29 2 29 30
M  V30 30 1 30 2
M  V30 31 1 28 5
M  V30 32 1 27 8
M  V30 33 1 25 20
M  V30 34 1 1 31
M  V30 35 1 1 32
M  V30 36 1 1 33
M  V30 37 1 3 34
M  V30 38 1 6 35
M  V30 39 1 9 36
M  V30 40 1 10 37
M  V30 41 1 12 38
M  V30 42 1 15 39
M  V30 43 1 16 40
M  V30 44 1 16 41
M  V30 45 1 17 42
M  V30 46 1 17 43
M  V30 47 1 18 44
M  V30 48 1 18 45
M  V30 49 1 19 46
M  V30 50 1 19 47
M  V30 51 1 21 48
M  V30 52 1 22 49
M  V30 53 1 23 50
M  V30 54 1 24 51
M  V30 55 1 25 52
M  V30 56 1 29 53
M  V30 END BOND
M  V30 END CTAB
M  END
>  <Dataset>  (94) 
ChEMBL_Kinases

>  <Ligand_Instance>  (94) 
nan

>  <PDB_ID>  (94) 
nan

>  <Standardized_SMILES>  (94) 
Cn1cc(-c2cnc3ccc(NC(=O)NCCCCc4ccccc4)nc3n2)cn1

>  <Name>  (94) 
nan

>  <Pocket>  (94) 
nan

>  <ATP_Site>  (94) 
nan

>  <Peripheral>  (94) 
nan

>  <Num_H_Atoms_ProtBoundConf>  (94) 
nan

>  <Num_Resolved_Atoms>  (94) 
nan

>  <Num_Not_Resolved_Atoms>  (94) 
nan

$$$$
CHEMBL3671092
     RDKit          3D

  0  0  0  0  0  0  0  0  0  0999 V3000
M  V30 BEGIN CTAB
M  V30 COUNTS 56 59 0 0 0
M  V30 BEGIN ATOM
M  V30 1 C 3.726703 -5.007590 7.062099 0
M  V30 2 C 3.426035 -5.697525 5.734387 0
M  V30 3 N 3.067209 -4.617147 4.820123 0
M  V30 4 C 3.902519 -3.902499 4.013186 0
M  V30 5 C 3.126741 -2.985183 3.325914 0
M  V30 6 C 3.529353 -1.984657 2.340868 0
M  V30 7 C 4.847930 -1.838704 1.959672 0
M  V30 8 N 5.228900 -0.919758 1.052906 0
M  V30 9 C 4.334859 -0.099866 0.476506 0
M  V30 10 C 4.616844 0.862969 -0.451374 0
M  V30 11 C 3.661790 1.684167 -1.017365 0
M  V30 12 C 2.359638 1.497990 -0.602734 0
M  V30 13 N 1.336919 2.314582 -1.151703 0
M  V30 14 C -0.017223 2.155787 -0.752440 0
M  V30 15 O -0.240837 1.261629 0.101571 0
M  V30 16 N -1.084008 2.929259 -1.253793 0
M  V30 17 C -2.483522 2.832254 -0.907021 0
M  V30 18 C -2.962572 1.443163 -1.265655 0
M  V30 19 C -2.756393 1.250002 -2.763607 0
M  V30 20 C -3.233017 -0.152468 -3.163286 0
M  V30 21 C -4.674214 -0.345833 -2.854889 0
M  V30 22 C -5.061666 -0.849363 -1.609028 0
M  V30 23 C -6.406114 -1.043374 -1.286307 0
M  V30 24 C -7.390312 -0.735218 -2.209525 0
M  V30 25 C -6.960583 -0.241515 -3.424503 0
M  V30 26 C -5.654002 -0.035169 -3.783972 0
M  V30 27 N 2.030728 0.559663 0.311731 0
M  V30 28 C 3.006247 -0.232018 0.847043 0
M  V30 29 N 2.626716 -1.150975 1.753550 0
M  V30 30 C 1.823812 -3.171163 3.740623 0
M  V30 31 N 1.814790 -4.166416 4.646720 0
M  V30 32 H 4.438395 -4.179226 6.844134 0
M  V30 33 H 2.762514 -4.574101 7.399587 0
M  V30 34 H 4.126194 -5.718315 7.805028 0
M  V30 35 H 2.600751 -6.412207 5.848104 0
M  V30 36 H 4.349557 -6.164265 5.358855 0
M  V30 37 H 4.952897 -4.017402 3.919512 0
M  V30 38 H 5.594398 -2.488035 2.408922 0
M  V30 39 H 5.652925 0.972888 -0.746561 0
M  V30 40 H 3.976188 2.419867 -1.745000 0
M  V30 41 H 1.554170 3.049187 -1.859674 0
M  V30 42 H -0.752581 3.646719 -1.963403 0
M  V30 43 H -2.637896 3.005974 0.197981 0
M  V30 44 H -3.043465 3.576607 -1.500699 0
M  V30 45 H -4.032237 1.309340 -1.000206 0
M  V30 46 H -2.314755 0.713062 -0.756823 0
M  V30 47 H -3.352263 2.001861 -3.305801 0
M  V30 48 H -1.688033 1.292877 -2.998119 0
M  V30 49 H -3.042011 -0.310084 -4.229364 0
M  V30 50 H -2.599174 -0.886545 -2.593052 0
M  V30 51 H -4.252861 -1.079296 -0.910307 0
M  V30 52 H -6.612503 -1.442743 -0.284986 0
M  V30 53 H -8.420537 -0.889270 -1.948305 0
M  V30 54 H -7.746498 -0.007782 -4.130034 0
M  V30 55 H -5.390207 0.356770 -4.758710 0
M  V30 56 H 0.957268 -2.596768 3.382068 0
M  V30 END ATOM
M  V30 BEGIN BOND
M  V30 1 1 1 2
M  V30 2 1 2 3
M  V30 3 1 3 4
M  V30 4 2 4 5
M  V30 5 1 5 6
M  V30 6 2 6 7
M  V30 7 1 7 8
M  V30 8 2 8 9
M  V30 9 1 9 10
M  V30 10 2 10 11
M  V30 11 1 11 12
M  V30 12 1 12 13
M  V30 13 1 13 14
M  V30 14 2 14 15
M  V30 15 1 14 16
M  V30 16 1 16 17
M  V30 17 1 17 18
M  V30 18 1 18 19
M  V30 19 1 19 20
M  V30 20 1 20 21
M  V30 21 2 21 22
M  V30 22 1 22 23
M  V30 23 2 23 24
M  V30 24 1 24 25
M  V30 25 2 25 26
M  V30 26 2 12 27
M  V30 27 1 27 28
M  V30 28 2 28 29
M  V30 29 1 5 30
M  V30 30 2 30 31
M  V30 31 1 31 3
M  V30 32 1 29 6
M  V30 33 1 28 9
M  V30 34 1 26 21
M  V30 35 1 1 32
M  V30 36 1 1 33
M  V30 37 1 1 34
M  V30 38 1 2 35
M  V30 39 1 2 36
M  V30 40 1 4 37
M  V30 41 1 7 38
M  V30 42 1 10 39
M  V30 43 1 11 40
M  V30 44 1 13 41
M  V30 45 1 16 42
M  V30 46 1 17 43
M  V30 47 1 17 44
M  V30 48 1 18 45
M  V30 49 1 18 46
M  V30 50 1 19 47
M  V30 51 1 19 48
M  V30 52 1 20 49
M  V30 53 1 20 50
M  V30 54 1 22 51
M  V30 55 1 23 52
M  V30 56 1 24 53
M  V30 57 1 25 54
M  V30 58 1 26 55
M  V30 59 1 30 56
M  V30 END BOND
M  V30 END CTAB
M  END
>  <Dataset>  (95) 
ChEMBL_Kinases

>  <Ligand_Instance>  (95) 
nan

>  <PDB_ID>  (95) 
nan

>  <Standardized_SMILES>  (95) 
CCn1cc(-c2cnc3ccc(NC(=O)NCCCCc4ccccc4)nc3n2)cn1

>  <Name>  (95) 
nan

>  <Pocket>  (95) 
nan

>  <ATP_Site>  (95) 
nan

>  <Peripheral>  (95) 
nan

>  <Num_H_Atoms_ProtBoundConf>  (95) 
nan

>  <Num_Resolved_Atoms>  (95) 
nan

>  <Num_Not_Resolved_Atoms>  (95) 
nan

$$$$
CHEMBL3670790
     RDKit          3D

  0  0  0  0  0  0  0  0  0  0999 V3000
M  V30 BEGIN CTAB
M  V30 COUNTS 55 58 0 0 0
M  V30 BEGIN ATOM
M  V30 1 C 2.376876 -3.729055 5.493260 0
M  V30 2 C 1.042268 -3.445838 4.837662 0
M  V30 3 O 1.153560 -2.206380 4.123256 0
M  V30 4 C 2.049452 -1.983748 3.109147 0
M  V30 5 O 2.849122 -2.887312 2.737058 0
M  V30 6 C 1.868130 -0.602363 2.624989 0
M  V30 7 C 2.821942 -0.251401 1.519164 0
M  V30 8 O 3.970266 -0.594373 1.134424 0
M  V30 9 C 2.086457 0.783204 0.756131 0
M  V30 10 C 2.580671 1.715593 -0.033044 0
M  V30 11 C 1.864909 2.733349 -0.787911 0
M  V30 12 C 2.311256 4.064334 -0.745555 0
M  V30 13 N 1.535918 4.853365 -1.511488 0
M  V30 14 C 0.575267 4.086353 -2.072308 0
M  V30 15 N -0.450617 4.315011 -2.913913 0
M  V30 16 C -1.277289 3.314801 -3.330954 0
M  V30 17 C -1.056560 2.010778 -2.873118 0
M  V30 18 C -0.007412 1.759559 -2.008384 0
M  V30 19 C 0.794169 2.807174 -1.620580 0
M  V30 20 O 0.707284 0.644478 0.994520 0
M  V30 21 C 0.591820 -0.426819 1.867037 0
M  V30 22 N -0.389981 -1.220996 2.088703 0
M  V30 23 N -1.596607 -1.096596 1.407724 0
M  V30 24 C -2.609584 -2.086347 1.709653 0
M  V30 25 C -2.862911 -3.003025 0.530279 0
M  V30 26 N -2.474556 -2.418850 -0.690320 0
M  V30 27 C -1.462310 -3.072001 -1.427573 0
M  V30 28 C -1.969563 -4.377780 -1.980792 0
M  V30 29 F -2.385882 -5.265547 -1.042066 0
M  V30 30 F -3.035271 -4.125054 -2.854388 0
M  V30 31 F -0.980006 -4.944314 -2.797275 0
M  V30 32 C -2.590263 -1.015098 -0.804064 0
M  V30 33 C -2.180213 -0.225426 0.420238 0
M  V30 34 H 2.246257 -3.995069 6.584031 0
M  V30 35 H 2.871604 -4.590770 4.977319 0
M  V30 36 H 3.069061 -2.878287 5.445981 0
M  V30 37 H 0.763834 -4.259747 4.129150 0
M  V30 38 H 0.276138 -3.336742 5.651180 0
M  V30 39 H 1.950910 0.179853 3.384538 0
M  V30 40 H 3.681280 1.718686 -0.136663 0
M  V30 41 H 3.151867 4.479159 -0.197715 0
M  V30 42 H 1.635585 5.880365 -1.663682 0
M  V30 43 H -2.066848 3.629873 -4.009510 0
M  V30 44 H -1.726898 1.256673 -3.225171 0
M  V30 45 H 0.157678 0.737800 -1.661040 0
M  V30 46 H -2.340734 -2.694200 2.619636 0
M  V30 47 H -3.536935 -1.565353 1.998647 0
M  V30 48 H -2.255488 -3.911355 0.734305 0
M  V30 49 H -3.921887 -3.324171 0.508360 0
M  V30 50 H -0.545100 -3.307698 -0.827241 0
M  V30 51 H -1.152350 -2.409638 -2.263402 0
M  V30 52 H -2.009774 -0.685904 -1.705300 0
M  V30 53 H -3.659676 -0.768572 -1.082536 0
M  V30 54 H -1.427037 0.492575 0.128039 0
M  V30 55 H -3.066749 0.301908 0.858811 0
M  V30 END ATOM
M  V30 BEGIN BOND
M  V30 1 1 1 2
M  V30 2 1 2 3
M  V30 3 1 3 4
M  V30 4 2 4 5
M  V30 5 1 4 6
M  V30 6 1 6 7
M  V30 7 2 7 8
M  V30 8 1 7 9
M  V30 9 2 9 10
M  V30 10 1 10 11
M  V30 11 2 11 12
M  V30 12 1 12 13
M  V30 13 1 13 14
M  V30 14 2 14 15
M  V30 15 1 15 16
M  V30 16 2 16 17
M  V30 17 1 17 18
M  V30 18 2 18 19
M  V30 19 1 9 20
M  V30 20 1 20 21
M  V30 21 2 21 22
M  V30 22 1 22 23
M  V30 23 1 23 24
M  V30 24 1 24 25
M  V30 25 1 25 26
M  V30 26 1 26 27
M  V30 27 1 27 28
M  V30 28 1 28 29
M  V30 29 1 28 30
M  V30 30 1 28 31
M  V30 31 1 26 32
M  V30 32 1 32 33
M  V30 33 1 21 6
M  V30 34 1 33 23
M  V30 35 1 19 11
M  V30 36 1 19 14
M  V30 37 1 1 34
M  V30 38 1 1 35
M  V30 39 1 1 36
M  V30 40 1 2 37
M  V30 41 1 2 38
M  V30 42 1 6 39
M  V30 43 1 10 40
M  V30 44 1 12 41
M  V30 45 1 13 42
M  V30 46 1 16 43
M  V30 47 1 17 44
M  V30 48 1 18 45
M  V30 49 1 24 46
M  V30 50 1 24 47
M  V30 51 1 25 48
M  V30 52 1 25 49
M  V30 53 1 27 50
M  V30 54 1 27 51
M  V30 55 1 32 52
M  V30 56 1 32 53
M  V30 57 1 33 54
M  V30 58 1 33 55
M  V30 END BOND
M  V30 END CTAB
M  END
>  <Dataset>  (96) 
ChEMBL_Kinases

>  <Ligand_Instance>  (96) 
nan

>  <PDB_ID>  (96) 
nan

>  <Standardized_SMILES>  (96) 
CCOC(=O)C1C(=O)/C(=C/c2c[nH]c3ncccc23)O/C1=N\N1CCN(CC(F)(F)F)CC1

>  <Name>  (96) 
nan

>  <Pocket>  (96) 
nan

>  <ATP_Site>  (96) 
nan

>  <Peripheral>  (96) 
nan

>  <Num_H_Atoms_ProtBoundConf>  (96) 
nan

>  <Num_Resolved_Atoms>  (96) 
nan

>  <Num_Not_Resolved_Atoms>  (96) 
nan

$$$$
CHEMBL3670789
     RDKit          3D

  0  0  0  0  0  0  0  0  0  0999 V3000
M  V30 BEGIN CTAB
M  V30 COUNTS 51 54 0 0 0
M  V30 BEGIN ATOM
M  V30 1 C 3.376465 -1.636415 -1.056397 0
M  V30 2 C 3.680415 -2.030308 0.397127 0
M  V30 3 C 4.795930 -3.036731 0.372382 0
M  V30 4 O 2.473877 -2.621894 0.900522 0
M  V30 5 C 1.765730 -1.973382 1.924607 0
M  V30 6 O 2.260399 -0.888358 2.337358 0
M  V30 7 C 0.506378 -2.412718 2.575924 0
M  V30 8 C 0.169860 -1.317297 3.551188 0
M  V30 9 O 0.120879 -1.058174 4.780958 0
M  V30 10 C -0.216611 -0.246005 2.599670 0
M  V30 11 C -0.155269 1.077420 2.832048 0
M  V30 12 C -0.557115 2.062753 1.834125 0
M  V30 13 C -1.632390 2.117945 0.964310 0
M  V30 14 N -1.532125 3.238957 0.228803 0
M  V30 15 C -0.448241 3.922416 0.570300 0
M  V30 16 N 0.011909 5.096343 0.065103 0
M  V30 17 C 1.148077 5.625720 0.546689 0
M  V30 18 C 1.846544 4.981193 1.551478 0
M  V30 19 C 1.356491 3.788851 2.047830 0
M  V30 20 C 0.195814 3.204607 1.587618 0
M  V30 21 O -0.661147 -0.817807 1.397919 0
M  V30 22 C -0.564701 -2.191782 1.563945 0
M  V30 23 N -1.229830 -3.107934 0.992647 0
M  V30 24 N -2.239606 -2.821497 0.032566 0
M  V30 25 C -3.535409 -2.146773 0.075285 0
M  V30 26 C -4.543121 -3.204756 -0.362662 0
M  V30 27 O -3.962388 -4.432547 -0.616976 0
M  V30 28 C -2.966103 -4.415848 -1.559204 0
M  V30 29 C -1.993520 -3.277463 -1.329514 0
M  V30 30 H 2.275002 -1.577092 -1.240991 0
M  V30 31 H 3.797209 -2.331306 -1.788718 0
M  V30 32 H 3.766348 -0.615094 -1.292732 0
M  V30 33 H 3.924973 -1.089687 0.920439 0
M  V30 34 H 5.718517 -2.639571 0.883802 0
M  V30 35 H 4.480026 -3.977535 0.874524 0
M  V30 36 H 5.103065 -3.304571 -0.674596 0
M  V30 37 H 0.511227 -3.405722 2.998696 0
M  V30 38 H 0.206981 1.442332 3.794378 0
M  V30 39 H -2.371061 1.329746 0.967603 0
M  V30 40 H -2.252351 3.466597 -0.491621 0
M  V30 41 H 1.597931 6.567087 0.203252 0
M  V30 42 H 2.770691 5.407471 1.945922 0
M  V30 43 H 1.881241 3.279283 2.820464 0
M  V30 44 H -3.573601 -1.340076 -0.716125 0
M  V30 45 H -3.762191 -1.706681 1.059391 0
M  V30 46 H -5.271587 -3.319316 0.463627 0
M  V30 47 H -5.118919 -2.866744 -1.266156 0
M  V30 48 H -2.364496 -5.361969 -1.407042 0
M  V30 49 H -3.338640 -4.439164 -2.601888 0
M  V30 50 H -2.263470 -2.510087 -2.093896 0
M  V30 51 H -0.940383 -3.613127 -1.439318 0
M  V30 END ATOM
M  V30 BEGIN BOND
M  V30 1 1 1 2
M  V30 2 1 2 3
M  V30 3 1 2 4
M  V30 4 1 4 5
M  V30 5 2 5 6
M  V30 6 1 5 7
M  V30 7 1 7 8
M  V30 8 2 8 9
M  V30 9 1 8 10
M  V30 10 2 10 11
M  V30 11 1 11 12
M  V30 12 2 12 13
M  V30 13 1 13 14
M  V30 14 1 14 15
M  V30 15 2 15 16
M  V30 16 1 16 17
M  V30 17 2 17 18
M  V30 18 1 18 19
M  V30 19 2 19 20
M  V30 20 1 10 21
M  V30 21 1 21 22
M  V30 22 2 22 23
M  V30 23 1 23 24
M  V30 24 1 24 25
M  V30 25 1 25 26
M  V30 26 1 26 27
M  V30 27 1 27 28
M  V30 28 1 28 29
M  V30 29 1 22 7
M  V30 30 1 29 24
M  V30 31 1 20 12
M  V30 32 1 20 15
M  V30 33 1 1 30
M  V30 34 1 1 31
M  V30 35 1 1 32
M  V30 36 1 2 33
M  V30 37 1 3 34
M  V30 38 1 3 35
M  V30 39 1 3 36
M  V30 40 1 7 37
M  V30 41 1 11 38
M  V30 42 1 13 39
M  V30 43 1 14 40
M  V30 44 1 17 41
M  V30 45 1 18 42
M  V30 46 1 19 43
M  V30 47 1 25 44
M  V30 48 1 25 45
M  V30 49 1 26 46
M  V30 50 1 26 47
M  V30 51 1 28 48
M  V30 52 1 28 49
M  V30 53 1 29 50
M  V30 54 1 29 51
M  V30 END BOND
M  V30 END CTAB
M  END
>  <Dataset>  (97) 
ChEMBL_Kinases

>  <Ligand_Instance>  (97) 
nan

>  <PDB_ID>  (97) 
nan

>  <Standardized_SMILES>  (97) 
CC(C)OC(=O)C1C(=O)/C(=C/c2c[nH]c3ncccc23)O/C1=N\N1CCOCC1

>  <Name>  (97) 
nan

>  <Pocket>  (97) 
nan

>  <ATP_Site>  (97) 
nan

>  <Peripheral>  (97) 
nan

>  <Num_H_Atoms_ProtBoundConf>  (97) 
nan

>  <Num_Resolved_Atoms>  (97) 
nan

>  <Num_Not_Resolved_Atoms>  (97) 
nan

$$$$
CHEMBL3670441
     RDKit          3D

  0  0  0  0  0  0  0  0  0  0999 V3000
M  V30 BEGIN CTAB
M  V30 COUNTS 39 41 0 0 0
M  V30 BEGIN ATOM
M  V30 1 N -0.897526 -4.775701 3.080951 0
M  V30 2 C 0.053200 -5.175583 2.106847 0
M  V30 3 O 0.478331 -6.350423 2.125137 0
M  V30 4 C 0.533851 -4.231370 1.091989 0
M  V30 5 C 1.456612 -4.659820 0.164905 0
M  V30 6 C 1.880883 -3.739103 -0.770682 0
M  V30 7 C 1.387719 -2.451133 -0.757776 0
M  V30 8 C 0.475900 -2.017078 0.153448 0
M  V30 9 C 0.026405 -0.713833 0.106247 0
M  V30 10 N 0.454287 0.240168 -0.841458 0
M  V30 11 C -0.114401 1.589148 -0.770379 0 CFG=1
M  V30 12 C -1.580535 1.572762 -0.987077 0
M  V30 13 O -2.161393 2.859301 -0.931634 0
M  V30 14 C 0.339160 2.187869 0.508639 0
M  V30 15 C 1.711943 1.962264 0.686354 0
M  V30 16 C 2.354606 2.443413 1.834420 0
M  V30 17 C 1.672892 3.139852 2.806810 0
M  V30 18 C 0.323998 3.340477 2.594094 0
M  V30 19 C -0.342757 2.885051 1.482437 0
M  V30 20 N -0.870718 -0.418533 1.062783 0
M  V30 21 C -1.310004 -1.285701 1.992226 0
M  V30 22 N -0.849187 -2.547277 2.006671 0
M  V30 23 C 0.054638 -2.941239 1.086942 0
M  V30 24 H -1.883498 -4.887190 3.389731 0
M  V30 25 H -0.449475 -4.118264 3.749481 0
M  V30 26 H 1.789421 -5.683505 0.226602 0
M  V30 27 H 2.616862 -4.133336 -1.486181 0
M  V30 28 H 1.767073 -1.810392 -1.511198 0
M  V30 29 H 1.132081 0.085703 -1.586184 0
M  V30 30 H 0.319269 2.252685 -1.566483 0
M  V30 31 H -1.740548 1.260170 -2.061308 0
M  V30 32 H -2.179836 0.898069 -0.389692 0
M  V30 33 H -2.118755 3.319581 -1.810114 0
M  V30 34 H 2.391143 1.429759 0.010453 0
M  V30 35 H 3.414488 2.293826 2.016219 0
M  V30 36 H 2.159701 3.513666 3.693380 0
M  V30 37 H -0.299667 3.884221 3.314221 0
M  V30 38 H -1.373801 2.996797 1.246588 0
M  V30 39 H -2.035398 -0.856107 2.678701 0
M  V30 END ATOM
M  V30 BEGIN BOND
M  V30 1 1 1 2
M  V30 2 2 2 3
M  V30 3 1 2 4
M  V30 4 2 4 5
M  V30 5 1 5 6
M  V30 6 2 6 7
M  V30 7 1 7 8
M  V30 8 2 8 9
M  V30 9 1 9 10
M  V30 10 1 10 11
M  V30 11 1 11 12
M  V30 12 1 12 13
M  V30 13 1 11 14
M  V30 14 2 14 15
M  V30 15 1 15 16
M  V30 16 2 16 17
M  V30 17 1 17 18
M  V30 18 2 18 19
M  V30 19 1 9 20
M  V30 20 2 20 21
M  V30 21 1 21 22
M  V30 22 2 22 23
M  V30 23 1 23 4
M  V30 24 1 23 8
M  V30 25 1 19 14
M  V30 26 1 1 24
M  V30 27 1 1 25
M  V30 28 1 5 26
M  V30 29 1 6 27
M  V30 30 1 7 28
M  V30 31 1 10 29
M  V30 32 1 11 30 CFG=3
M  V30 33 1 12 31
M  V30 34 1 12 32
M  V30 35 1 13 33
M  V30 36 1 15 34
M  V30 37 1 16 35
M  V30 38 1 17 36
M  V30 39 1 18 37
M  V30 40 1 19 38
M  V30 41 1 21 39
M  V30 END BOND
M  V30 END CTAB
M  END
>  <Dataset>  (98) 
ChEMBL_Kinases

>  <Ligand_Instance>  (98) 
nan

>  <PDB_ID>  (98) 
nan

>  <Standardized_SMILES>  (98) 
NC(=O)c1cccc2c(N[C@@H](CO)c3ccccc3)ncnc12

>  <Name>  (98) 
nan

>  <Pocket>  (98) 
nan

>  <ATP_Site>  (98) 
nan

>  <Peripheral>  (98) 
nan

>  <Num_H_Atoms_ProtBoundConf>  (98) 
nan

>  <Num_Resolved_Atoms>  (98) 
nan

>  <Num_Not_Resolved_Atoms>  (98) 
nan

$$$$
CHEMBL3670449
     RDKit          3D

  0  0  0  0  0  0  0  0  0  0999 V3000
M  V30 BEGIN CTAB
M  V30 COUNTS 38 40 0 0 0
M  V30 BEGIN ATOM
M  V30 1 N 0.797020 -5.534469 1.397202 0
M  V30 2 C 2.097971 -5.001859 1.218681 0
M  V30 3 O 3.037137 -5.824916 1.128190 0
M  V30 4 C 2.359710 -3.584720 1.141121 0
M  V30 5 C 3.676487 -3.185411 0.964919 0
M  V30 6 C 4.000784 -1.847245 0.882088 0
M  V30 7 C 2.971878 -0.932049 0.980734 0
M  V30 8 C 1.667115 -1.292801 1.154221 0
M  V30 9 C 0.703823 -0.313868 1.242709 0
M  V30 10 N 0.962190 1.081116 1.166258 0
M  V30 11 C -0.150241 2.014074 1.274760 0 CFG=1
M  V30 12 C 0.236225 3.418837 1.182153 0
M  V30 13 O 1.383692 3.880509 1.024953 0
M  V30 14 O -0.795014 4.332470 1.281252 0
M  V30 15 C -1.261400 1.649440 0.332884 0
M  V30 16 C -2.591158 1.650533 0.751843 0
M  V30 17 C -3.639827 1.320294 -0.088160 0
M  V30 18 C -3.319534 0.976731 -1.402600 0
M  V30 19 C -2.006893 0.968159 -1.842661 0
M  V30 20 C -0.986758 1.301451 -0.982945 0
M  V30 21 N -0.552100 -0.758394 1.412801 0
M  V30 22 C -0.859376 -2.066140 1.492545 0
M  V30 23 N 0.079847 -3.049200 1.407181 0
M  V30 24 C 1.369959 -2.642009 1.234033 0
M  V30 25 H 0.253731 -5.268879 2.248386 0
M  V30 26 H 0.076551 -6.146924 0.990825 0
M  V30 27 H 4.451595 -3.916459 0.891942 0
M  V30 28 H 5.041605 -1.564269 0.743853 0
M  V30 29 H 3.269572 0.099185 0.910966 0
M  V30 30 H 1.878394 1.542545 1.037791 0
M  V30 31 H -0.574006 1.842739 2.304046 0
M  V30 32 H -0.699735 5.319668 1.086593 0
M  V30 33 H -2.784432 1.927019 1.789530 0
M  V30 34 H -4.629092 1.352168 0.333294 0
M  V30 35 H -4.192899 0.730570 -2.000104 0
M  V30 36 H -1.884858 0.687180 -2.874028 0
M  V30 37 H 0.012702 1.281216 -1.366470 0
M  V30 38 H -1.925945 -2.267424 1.631392 0
M  V30 END ATOM
M  V30 BEGIN BOND
M  V30 1 1 1 2
M  V30 2 2 2 3
M  V30 3 1 2 4
M  V30 4 2 4 5
M  V30 5 1 5 6
M  V30 6 2 6 7
M  V30 7 1 7 8
M  V30 8 2 8 9
M  V30 9 1 9 10
M  V30 10 1 10 11
M  V30 11 1 11 12
M  V30 12 2 12 13
M  V30 13 1 12 14
M  V30 14 1 11 15
M  V30 15 2 15 16
M  V30 16 1 16 17
M  V30 17 2 17 18
M  V30 18 1 18 19
M  V30 19 2 19 20
M  V30 20 1 9 21
M  V30 21 2 21 22
M  V30 22 1 22 23
M  V30 23 2 23 24
M  V30 24 1 24 4
M  V30 25 1 24 8
M  V30 26 1 20 15
M  V30 27 1 1 25
M  V30 28 1 1 26
M  V30 29 1 5 27
M  V30 30 1 6 28
M  V30 31 1 7 29
M  V30 32 1 10 30
M  V30 33 1 11 31 CFG=1
M  V30 34 1 14 32
M  V30 35 1 16 33
M  V30 36 1 17 34
M  V30 37 1 18 35
M  V30 38 1 19 36
M  V30 39 1 20 37
M  V30 40 1 22 38
M  V30 END BOND
M  V30 END CTAB
M  END
>  <Dataset>  (99) 
ChEMBL_Kinases

>  <Ligand_Instance>  (99) 
nan

>  <PDB_ID>  (99) 
nan

>  <Standardized_SMILES>  (99) 
NC(=O)c1cccc2c(N[C@@H](C(=O)O)c3ccccc3)ncnc12

>  <Name>  (99) 
nan

>  <Pocket>  (99) 
nan

>  <ATP_Site>  (99) 
nan

>  <Peripheral>  (99) 
nan

>  <Num_H_Atoms_ProtBoundConf>  (99) 
nan

>  <Num_Resolved_Atoms>  (99) 
nan

>  <Num_Not_Resolved_Atoms>  (99) 
nan

$$$$
CHEMBL3670459
     RDKit          3D

  0  0  0  0  0  0  0  0  0  0999 V3000
M  V30 BEGIN CTAB
M  V30 COUNTS 54 57 0 0 0
M  V30 BEGIN ATOM
M  V30 1 N 2.922808 -0.388242 2.541395 0
M  V30 2 C 2.545809 -0.909120 1.251211 0
M  V30 3 C 1.420602 -0.067862 0.618711 0
M  V30 4 C 1.994898 1.280154 0.501293 0
M  V30 5 C 1.771552 2.304398 1.404905 0
M  V30 6 C 2.296720 3.569986 1.345525 0
M  V30 7 C 3.133276 3.890253 0.297593 0
M  V30 8 O 3.689601 5.156216 0.192262 0
M  V30 9 C 2.921329 6.113582 -0.548412 0
M  V30 10 F 2.791877 5.578027 -1.831010 0
M  V30 11 F 3.567656 7.316311 -0.679279 0
M  V30 12 F 1.659158 6.287065 0.017913 0
M  V30 13 C 3.403895 2.920397 -0.644476 0
M  V30 14 C 2.837143 1.669689 -0.515263 0
M  V30 15 C 0.301780 -0.166686 1.618891 0
M  V30 16 C -1.037981 0.184342 1.011799 0
M  V30 17 N -1.242565 -0.915564 0.043021 0
M  V30 18 C -2.247260 -1.851576 0.439186 0
M  V30 19 N -3.356633 -1.327288 1.043304 0
M  V30 20 C -4.394157 -2.092471 1.412215 0
M  V30 21 N -4.397093 -3.417394 1.207124 0
M  V30 22 C -3.351499 -4.013356 0.623328 0
M  V30 23 C -3.268195 -5.361732 0.389372 0
M  V30 24 C -4.371688 -6.226195 0.771958 0
M  V30 25 N -5.539675 -5.686919 1.387867 0
M  V30 26 O -4.350418 -7.479104 0.580413 0
M  V30 27 C -2.158473 -5.963668 -0.208813 0
M  V30 28 C -1.109812 -5.120110 -0.568748 0
M  V30 29 C -1.204396 -3.772228 -0.330141 0
M  V30 30 C -2.302458 -3.209962 0.255258 0
M  V30 31 C -0.362941 -0.691471 -1.052279 0
M  V30 32 C 1.094333 -0.654675 -0.693650 0
M  V30 33 H 2.493236 -0.930021 3.338177 0
M  V30 34 H 3.965610 -0.477551 2.708891 0
M  V30 35 H 3.407642 -1.006997 0.587506 0
M  V30 36 H 2.189839 -1.951491 1.436940 0
M  V30 37 H 1.134196 2.164318 2.259808 0
M  V30 38 H 2.104722 4.342637 2.061746 0
M  V30 39 H 4.064283 3.213800 -1.448947 0
M  V30 40 H 3.141516 1.010033 -1.312559 0
M  V30 41 H 0.209557 -1.267409 1.882440 0
M  V30 42 H 0.446015 0.326885 2.557625 0
M  V30 43 H -1.834057 0.211090 1.781769 0
M  V30 44 H -0.930487 1.141337 0.480204 0
M  V30 45 H -5.214072 -1.546726 1.883033 0
M  V30 46 H -5.784516 -5.671763 2.395505 0
M  V30 47 H -6.152091 -5.282635 0.620206 0
M  V30 48 H -2.161693 -7.039304 -0.363712 0
M  V30 49 H -0.268443 -5.641535 -1.030993 0
M  V30 50 H -0.345959 -3.228847 -0.627416 0
M  V30 51 H -0.673510 0.329761 -1.462142 0
M  V30 52 H -0.610155 -1.359128 -1.883498 0
M  V30 53 H 1.571240 -0.117779 -1.535494 0
M  V30 54 H 1.480891 -1.696925 -0.802865 0
M  V30 END ATOM
M  V30 BEGIN BOND
M  V30 1 1 1 2
M  V30 2 1 2 3
M  V30 3 1 3 4
M  V30 4 2 4 5
M  V30 5 1 5 6
M  V30 6 2 6 7
M  V30 7 1 7 8
M  V30 8 1 8 9
M  V30 9 1 9 10
M  V30 10 1 9 11
M  V30 11 1 9 12
M  V30 12 1 7 13
M  V30 13 2 13 14
M  V30 14 1 3 15
M  V30 15 1 15 16
M  V30 16 1 16 17
M  V30 17 1 17 18
M  V30 18 2 18 19
M  V30 19 1 19 20
M  V30 20 2 20 21
M  V30 21 1 21 22
M  V30 22 2 22 23
M  V30 23 1 23 24
M  V30 24 1 24 25
M  V30 25 2 24 26
M  V30 26 1 23 27
M  V30 27 2 27 28
M  V30 28 1 28 29
M  V30 29 2 29 30
M  V30 30 1 17 31
M  V30 31 1 31 32
M  V30 32 1 32 3
M  V30 33 1 14 4
M  V30 34 1 30 18
M  V30 35 1 30 22
M  V30 36 1 1 33
M  V30 37 1 1 34
M  V30 38 1 2 35
M  V30 39 1 2 36
M  V30 40 1 5 37
M  V30 41 1 6 38
M  V30 42 1 13 39
M  V30 43 1 14 40
M  V30 44 1 15 41
M  V30 45 1 15 42
M  V30 46 1 16 43
M  V30 47 1 16 44
M  V30 48 1 20 45
M  V30 49 1 25 46
M  V30 50 1 25 47
M  V30 51 1 27 48
M  V30 52 1 28 49
M  V30 53 1 29 50
M  V30 54 1 31 51
M  V30 55 1 31 52
M  V30 56 1 32 53
M  V30 57 1 32 54
M  V30 END BOND
M  V30 END CTAB
M  END
>  <Dataset>  (100) 
ChEMBL_Kinases

>  <Ligand_Instance>  (100) 
nan

>  <PDB_ID>  (100) 
nan

>  <Standardized_SMILES>  (100) 
NCC1(c2ccc(OC(F)(F)F)cc2)CCN(c2ncnc3c(C(N)=O)cccc23)CC1

>  <Name>  (100) 
nan

>  <Pocket>  (100) 
nan

>  <ATP_Site>  (100) 
nan

>  <Peripheral>  (100) 
nan

>  <Num_H_Atoms_ProtBoundConf>  (100) 
nan

>  <Num_Resolved_Atoms>  (100) 
nan

>  <Num_Not_Resolved_Atoms>  (100) 
nan

$$$$
CHEMBL3670503
     RDKit          3D

  0  0  0  0  0  0  0  0  0  0999 V3000
M  V30 BEGIN CTAB
M  V30 COUNTS 57 60 0 0 0
M  V30 BEGIN ATOM
M  V30 1 N 1.898516 -1.401234 4.773848 0
M  V30 2 C 2.178171 -0.478257 3.731271 0
M  V30 3 O 2.778009 0.611030 3.914621 0
M  V30 4 C 1.742310 -0.825825 2.391311 0
M  V30 5 C 1.987817 0.028523 1.344107 0
M  V30 6 C 1.640926 -0.155940 0.027245 0
M  V30 7 O 1.819911 0.600416 -1.085133 0
M  V30 8 C 2.417001 1.842498 -1.212671 0
M  V30 9 C 1.781299 2.985428 -0.497651 0
M  V30 10 N 2.577631 4.168592 -0.778824 0
M  V30 11 C 2.474288 4.568486 -2.141748 0
M  V30 12 C 1.892117 5.978375 -2.159780 0
M  V30 13 C 1.220561 6.042682 -0.792465 0
M  V30 14 C 2.206247 5.287552 0.044277 0
M  V30 15 C 0.967802 -1.367501 -0.199838 0
M  V30 16 C 0.685467 -2.274512 0.796164 0
M  V30 17 C 0.025342 -3.465747 0.580303 0
M  V30 18 N -0.406123 -3.830974 -0.706434 0
M  V30 19 C -1.108204 -5.051135 -1.056010 0
M  V30 20 C -2.415513 -5.208806 -0.405748 0
M  V30 21 C -2.777022 -5.862671 0.752298 0
M  V30 22 C -4.073569 -5.890562 1.216402 0
M  V30 23 C -5.093942 -5.257880 0.538631 0
M  V30 24 C -6.444444 -5.362463 1.142475 0
M  V30 25 F -7.391109 -4.753156 0.359833 0
M  V30 26 F -6.767061 -6.703592 1.330309 0
M  V30 27 F -6.383908 -4.805166 2.427086 0
M  V30 28 C -4.774236 -4.594333 -0.622083 0
M  V30 29 C -3.470896 -4.574380 -1.075441 0
M  V30 30 N -0.197657 -4.276738 1.624818 0
M  V30 31 C 0.178161 -4.014753 2.885509 0
M  V30 32 N 0.822131 -2.851949 3.093459 0
M  V30 33 C 1.078943 -1.989674 2.086726 0
M  V30 34 H 2.329641 -2.093414 5.434685 0
M  V30 35 H 0.862814 -1.423244 4.992484 0
M  V30 36 H 2.518938 0.932904 1.567829 0
M  V30 37 H 3.464574 1.736342 -0.802876 0
M  V30 38 H 2.499401 2.068518 -2.320368 0
M  V30 39 H 1.738717 2.838415 0.569391 0
M  V30 40 H 0.739864 3.198311 -0.894766 0
M  V30 41 H 3.430448 4.515999 -2.694754 0
M  V30 42 H 1.710728 3.903247 -2.642005 0
M  V30 43 H 2.737647 6.700438 -2.145614 0
M  V30 44 H 1.201338 6.144278 -2.993166 0
M  V30 45 H 1.088050 7.098352 -0.455827 0
M  V30 46 H 0.256024 5.494720 -0.788826 0
M  V30 47 H 3.129899 5.908986 0.212746 0
M  V30 48 H 1.780427 4.946185 1.010068 0
M  V30 49 H 0.654619 -1.603016 -1.203511 0
M  V30 50 H -0.271119 -3.265778 -1.553251 0
M  V30 51 H -0.481056 -5.935582 -0.755185 0
M  V30 52 H -1.256155 -5.193770 -2.144680 0
M  V30 53 H -1.956925 -6.354107 1.253238 0
M  V30 54 H -4.252541 -6.435888 2.143585 0
M  V30 55 H -5.584718 -4.103089 -1.141991 0
M  V30 56 H -3.334729 -4.023576 -1.997538 0
M  V30 57 H -0.012839 -4.685318 3.714555 0
M  V30 END ATOM
M  V30 BEGIN BOND
M  V30 1 1 1 2
M  V30 2 2 2 3
M  V30 3 1 2 4
M  V30 4 2 4 5
M  V30 5 1 5 6
M  V30 6 1 6 7
M  V30 7 1 7 8
M  V30 8 1 8 9
M  V30 9 1 9 10
M  V30 10 1 10 11
M  V30 11 1 11 12
M  V30 12 1 12 13
M  V30 13 1 13 14
M  V30 14 2 6 15
M  V30 15 1 15 16
M  V30 16 2 16 17
M  V30 17 1 17 18
M  V30 18 1 18 19
M  V30 19 1 19 20
M  V30 20 2 20 21
M  V30 21 1 21 22
M  V30 22 2 22 23
M  V30 23 1 23 24
M  V30 24 1 24 25
M  V30 25 1 24 26
M  V30 26 1 24 27
M  V30 27 1 23 28
M  V30 28 2 28 29
M  V30 29 1 17 30
M  V30 30 2 30 31
M  V30 31 1 31 32
M  V30 32 2 32 33
M  V30 33 1 33 4
M  V30 34 1 14 10
M  V30 35 1 33 16
M  V30 36 1 29 20
M  V30 37 1 1 34
M  V30 38 1 1 35
M  V30 39 1 5 36
M  V30 40 1 8 37
M  V30 41 1 8 38
M  V30 42 1 9 39
M  V30 43 1 9 40
M  V30 44 1 11 41
M  V30 45 1 11 42
M  V30 46 1 12 43
M  V30 47 1 12 44
M  V30 48 1 13 45
M  V30 49 1 13 46
M  V30 50 1 14 47
M  V30 51 1 14 48
M  V30 52 1 15 49
M  V30 53 1 18 50
M  V30 54 1 19 51
M  V30 55 1 19 52
M  V30 56 1 21 53
M  V30 57 1 22 54
M  V30 58 1 28 55
M  V30 59 1 29 56
M  V30 60 1 31 57
M  V30 END BOND
M  V30 END CTAB
M  END
>  <Dataset>  (101) 
ChEMBL_Kinases

>  <Ligand_Instance>  (101) 
nan

>  <PDB_ID>  (101) 
nan

>  <Standardized_SMILES>  (101) 
NC(=O)c1cc(OCCN2CCCC2)cc2c(NCc3ccc(C(F)(F)F)cc3)ncnc12

>  <Name>  (101) 
nan

>  <Pocket>  (101) 
nan

>  <ATP_Site>  (101) 
nan

>  <Peripheral>  (101) 
nan

>  <Num_H_Atoms_ProtBoundConf>  (101) 
nan

>  <Num_Resolved_Atoms>  (101) 
nan

>  <Num_Not_Resolved_Atoms>  (101) 
nan

$$$$
CHEMBL3670690
     RDKit          3D

  0  0  0  0  0  0  0  0  0  0999 V3000
M  V30 BEGIN CTAB
M  V30 COUNTS 34 36 0 0 0
M  V30 BEGIN ATOM
M  V30 1 O -0.432186 -0.380757 1.651236 0
M  V30 2 C 0.665432 0.183244 1.691140 0
M  V30 3 N 1.836083 -0.355487 2.273874 0
M  V30 4 C 1.878458 -1.681457 2.903644 0
M  V30 5 C 1.931202 -2.750931 1.871112 0
M  V30 6 C 0.859947 -3.394373 1.291788 0
M  V30 7 C 1.039566 -4.367781 0.339155 0
M  V30 8 C 2.305263 -4.761970 -0.096912 0
M  V30 9 C 3.389408 -4.127674 0.473103 0
M  V30 10 C 3.184573 -3.154455 1.426613 0
M  V30 11 N 0.673297 1.462058 1.086030 0
M  V30 12 C -0.624330 1.814523 0.559006 0
M  V30 13 C -1.555931 2.501751 1.308857 0
M  V30 14 C -2.766764 2.793370 0.730127 0
M  V30 15 C -3.095080 2.427539 -0.575424 0
M  V30 16 C -2.145119 1.728592 -1.334533 0
M  V30 17 C -0.939485 1.448498 -0.732393 0
M  V30 18 O -2.727704 1.486566 -2.595617 0
M  V30 19 C -4.152270 1.529862 -2.400553 0
M  V30 20 O -4.199255 2.572277 -1.416667 0
M  V30 21 H 2.696058 0.221905 2.248662 0
M  V30 22 H 0.966050 -1.822908 3.519764 0
M  V30 23 H 2.798055 -1.755956 3.507518 0
M  V30 24 H -0.111025 -3.096467 1.624673 0
M  V30 25 H 0.203543 -4.870977 -0.115042 0
M  V30 26 H 2.509351 -5.518583 -0.840062 0
M  V30 27 H 4.406680 -4.391634 0.174180 0
M  V30 28 H 4.061128 -2.679578 1.849805 0
M  V30 29 H 1.553506 2.051953 1.049837 0
M  V30 30 H -1.331091 2.798236 2.321376 0
M  V30 31 H -3.552496 3.333894 1.261621 0
M  V30 32 H -0.213015 0.902833 -1.343028 0
M  V30 33 H -4.695248 1.758821 -3.314063 0
M  V30 34 H -4.418207 0.551583 -1.940584 0
M  V30 END ATOM
M  V30 BEGIN BOND
M  V30 1 2 1 2
M  V30 2 1 2 3
M  V30 3 1 3 4
M  V30 4 1 4 5
M  V30 5 2 5 6
M  V30 6 1 6 7
M  V30 7 2 7 8
M  V30 8 1 8 9
M  V30 9 2 9 10
M  V30 10 1 2 11
M  V30 11 1 11 12
M  V30 12 2 12 13
M  V30 13 1 13 14
M  V30 14 2 14 15
M  V30 15 1 15 16
M  V30 16 2 16 17
M  V30 17 1 16 18
M  V30 18 1 18 19
M  V30 19 1 19 20
M  V30 20 1 10 5
M  V30 21 1 17 12
M  V30 22 1 20 15
M  V30 23 1 3 21
M  V30 24 1 4 22
M  V30 25 1 4 23
M  V30 26 1 6 24
M  V30 27 1 7 25
M  V30 28 1 8 26
M  V30 29 1 9 27
M  V30 30 1 10 28
M  V30 31 1 11 29
M  V30 32 1 13 30
M  V30 33 1 14 31
M  V30 34 1 17 32
M  V30 35 1 19 33
M  V30 36 1 19 34
M  V30 END BOND
M  V30 END CTAB
M  END
>  <Dataset>  (102) 
ChEMBL_Kinases

>  <Ligand_Instance>  (102) 
nan

>  <PDB_ID>  (102) 
nan

>  <Standardized_SMILES>  (102) 
O=C(NCc1ccccc1)Nc1ccc2c(c1)OCO2

>  <Name>  (102) 
nan

>  <Pocket>  (102) 
nan

>  <ATP_Site>  (102) 
nan

>  <Peripheral>  (102) 
nan

>  <Num_H_Atoms_ProtBoundConf>  (102) 
nan

>  <Num_Resolved_Atoms>  (102) 
nan

>  <Num_Not_Resolved_Atoms>  (102) 
nan

$$$$
CHEMBL3670771
     RDKit          3D

  0  0  0  0  0  0  0  0  0  0999 V3000
M  V30 BEGIN CTAB
M  V30 COUNTS 39 42 0 0 0
M  V30 BEGIN ATOM
M  V30 1 O 3.324185 -3.504649 2.529383 0
M  V30 2 C 2.286004 -4.113266 2.162953 0
M  V30 3 O 1.908217 -5.179395 2.958153 0
M  V30 4 C 2.005522 -3.291492 0.980265 0
M  V30 5 C 3.042182 -2.232835 0.861916 0
M  V30 6 O 4.286260 -2.137704 1.142777 0
M  V30 7 C 2.321684 -1.087580 0.267184 0
M  V30 8 C 2.820632 -0.021688 -0.317773 0
M  V30 9 C 2.096254 1.097779 -0.896224 0
M  V30 10 C 2.428522 1.584103 -2.139387 0
M  V30 11 N 1.640717 2.623247 -2.475636 0
M  V30 12 C 0.802759 2.800369 -1.442062 0
M  V30 13 N -0.198024 3.693751 -1.215189 0
M  V30 14 C -0.903113 3.660677 -0.058141 0
M  V30 15 C -0.648313 2.726230 0.950397 0
M  V30 16 C 0.361360 1.822822 0.725029 0
M  V30 17 C 1.052915 1.881401 -0.452067 0
M  V30 18 O 0.946416 -1.311514 0.418818 0
M  V30 19 C 0.761596 -2.522150 1.068898 0
M  V30 20 N -0.277816 -2.960129 1.662185 0
M  V30 21 C -1.478237 -2.219981 1.749226 0
M  V30 22 C -1.988405 -1.355134 0.782475 0
M  V30 23 C -3.182274 -0.693806 0.991444 0
M  V30 24 C -3.912212 -0.861849 2.157780 0
M  V30 25 C -3.440747 -1.711819 3.143703 0
M  V30 26 C -2.234764 -2.368157 2.910911 0
M  V30 27 H 1.949210 -5.123721 3.987383 0
M  V30 28 H 2.063663 -3.925113 0.070751 0
M  V30 29 H 3.922281 0.012800 -0.366509 0
M  V30 30 H 3.198248 1.262554 -2.849061 0
M  V30 31 H 1.632518 3.218522 -3.354732 0
M  V30 32 H -1.710255 4.350654 0.169770 0
M  V30 33 H -1.207270 2.695808 1.875170 0
M  V30 34 H 0.579456 1.100453 1.495264 0
M  V30 35 H -1.396888 -1.236925 -0.128786 0
M  V30 36 H -3.578871 -0.020999 0.236634 0
M  V30 37 H -4.849765 -0.368589 2.369859 0
M  V30 38 H -3.956331 -1.893629 4.084361 0
M  V30 39 H -1.880353 -3.029849 3.688993 0
M  V30 END ATOM
M  V30 BEGIN BOND
M  V30 1 2 1 2
M  V30 2 1 2 3
M  V30 3 1 2 4
M  V30 4 1 4 5
M  V30 5 2 5 6
M  V30 6 1 5 7
M  V30 7 2 7 8
M  V30 8 1 8 9
M  V30 9 2 9 10
M  V30 10 1 10 11
M  V30 11 1 11 12
M  V30 12 2 12 13
M  V30 13 1 13 14
M  V30 14 2 14 15
M  V30 15 1 15 16
M  V30 16 2 16 17
M  V30 17 1 7 18
M  V30 18 1 18 19
M  V30 19 2 19 20
M  V30 20 1 20 21
M  V30 21 2 21 22
M  V30 22 1 22 23
M  V30 23 2 23 24
M  V30 24 1 24 25
M  V30 25 2 25 26
M  V30 26 1 19 4
M  V30 27 1 26 21
M  V30 28 1 17 9
M  V30 29 1 17 12
M  V30 30 1 3 27
M  V30 31 1 4 28
M  V30 32 1 8 29
M  V30 33 1 10 30
M  V30 34 1 11 31
M  V30 35 1 14 32
M  V30 36 1 15 33
M  V30 37 1 16 34
M  V30 38 1 22 35
M  V30 39 1 23 36
M  V30 40 1 24 37
M  V30 41 1 25 38
M  V30 42 1 26 39
M  V30 END BOND
M  V30 END CTAB
M  END
>  <Dataset>  (103) 
ChEMBL_Kinases

>  <Ligand_Instance>  (103) 
nan

>  <PDB_ID>  (103) 
nan

>  <Standardized_SMILES>  (103) 
O=C(O)C1C(=O)/C(=C/c2c[nH]c3ncccc23)O/C1=N\c1ccccc1

>  <Name>  (103) 
nan

>  <Pocket>  (103) 
nan

>  <ATP_Site>  (103) 
nan

>  <Peripheral>  (103) 
nan

>  <Num_H_Atoms_ProtBoundConf>  (103) 
nan

>  <Num_Resolved_Atoms>  (103) 
nan

>  <Num_Not_Resolved_Atoms>  (103) 
nan

$$$$
CHEMBL3670772
     RDKit          3D

  0  0  0  0  0  0  0  0  0  0999 V3000
M  V30 BEGIN CTAB
M  V30 COUNTS 51 54 0 0 0
M  V30 BEGIN ATOM
M  V30 1 C 0.940889 2.486504 5.569083 0
M  V30 2 C 0.493362 1.051181 5.751983 0
M  V30 3 O 0.287985 0.498251 4.484746 0
M  V30 4 C -0.117590 -0.781562 4.222242 0
M  V30 5 O -0.128577 -0.923420 5.460714 0
M  V30 6 C -0.328490 -1.347744 2.900851 0
M  V30 7 C -0.134142 -0.628054 1.816426 0
M  V30 8 N 0.260522 0.675681 1.452542 0
M  V30 9 C 1.680401 1.032515 1.459255 0
M  V30 10 C 2.005843 1.445434 0.026255 0
M  V30 11 C 1.664626 2.890418 -0.144934 0
M  V30 12 C 0.328193 3.018012 -0.798183 0
M  V30 13 C -0.676746 1.984083 -0.395385 0
M  V30 14 C -0.702821 1.683165 1.067635 0
M  V30 15 O -0.418693 -1.455742 0.770610 0
M  V30 16 C -0.803130 -2.728269 1.153249 0
M  V30 17 C -1.143549 -3.758129 0.364576 0
M  V30 18 C -1.126192 -3.575799 -1.095379 0
M  V30 19 C -1.531279 -2.368544 -1.618195 0
M  V30 20 N -1.438538 -2.402947 -2.977629 0
M  V30 21 C -0.975089 -3.632076 -3.312064 0
M  V30 22 N -0.682961 -4.249453 -4.478585 0
M  V30 23 C -0.229996 -5.504614 -4.463080 0
M  V30 24 C -0.023558 -6.262857 -3.320512 0
M  V30 25 C -0.310266 -5.670341 -2.097843 0
M  V30 26 C -0.775982 -4.373541 -2.149771 0
M  V30 27 C -0.757509 -2.706102 2.610386 0
M  V30 28 O -1.025356 -3.636309 3.401666 0
M  V30 29 H 1.828260 2.707617 6.200573 0
M  V30 30 H 0.155321 3.210504 5.829527 0
M  V30 31 H 1.229174 2.671153 4.492022 0
M  V30 32 H -0.417556 1.098800 6.371150 0
M  V30 33 H 1.274508 0.508536 6.351151 0
M  V30 34 H 2.304273 0.185367 1.789300 0
M  V30 35 H 1.815592 1.900133 2.155188 0
M  V30 36 H 1.423036 0.765489 -0.629823 0
M  V30 37 H 3.077499 1.218012 -0.205928 0
M  V30 38 H 2.445395 3.339720 -0.818309 0
M  V30 39 H 1.688257 3.455975 0.815266 0
M  V30 40 H 0.492079 2.962350 -1.896296 0
M  V30 41 H -0.095876 4.040735 -0.628002 0
M  V30 42 H -0.570759 1.060283 -1.023186 0
M  V30 43 H -1.684340 2.393848 -0.677350 0
M  V30 44 H -1.712193 1.238956 1.300944 0
M  V30 45 H -0.537341 2.600251 1.631299 0
M  V30 46 H -1.416503 -4.681371 0.871687 0
M  V30 47 H -1.885963 -1.462449 -1.151153 0
M  V30 48 H -1.654174 -1.690081 -3.688386 0
M  V30 49 H -0.015721 -5.936945 -5.448495 0
M  V30 50 H 0.348332 -7.277799 -3.400788 0
M  V30 51 H -0.174954 -6.195533 -1.176389 0
M  V30 END ATOM
M  V30 BEGIN BOND
M  V30 1 1 1 2
M  V30 2 1 2 3
M  V30 3 1 3 4
M  V30 4 2 4 5
M  V30 5 1 4 6
M  V30 6 2 6 7
M  V30 7 1 7 8
M  V30 8 1 8 9
M  V30 9 1 9 10
M  V30 10 1 10 11
M  V30 11 1 11 12
M  V30 12 1 12 13
M  V30 13 1 13 14
M  V30 14 1 7 15
M  V30 15 1 15 16
M  V30 16 2 16 17
M  V30 17 1 17 18
M  V30 18 2 18 19
M  V30 19 1 19 20
M  V30 20 1 20 21
M  V30 21 2 21 22
M  V30 22 1 22 23
M  V30 23 2 23 24
M  V30 24 1 24 25
M  V30 25 2 25 26
M  V30 26 1 16 27
M  V30 27 2 27 28
M  V30 28 1 27 6
M  V30 29 1 14 8
M  V30 30 1 26 18
M  V30 31 1 26 21
M  V30 32 1 1 29
M  V30 33 1 1 30
M  V30 34 1 1 31
M  V30 35 1 2 32
M  V30 36 1 2 33
M  V30 37 1 9 34
M  V30 38 1 9 35
M  V30 39 1 10 36
M  V30 40 1 10 37
M  V30 41 1 11 38
M  V30 42 1 11 39
M  V30 43 1 12 40
M  V30 44 1 12 41
M  V30 45 1 13 42
M  V30 46 1 13 43
M  V30 47 1 14 44
M  V30 48 1 14 45
M  V30 49 1 17 46
M  V30 50 1 19 47
M  V30 51 1 20 48
M  V30 52 1 23 49
M  V30 53 1 24 50
M  V30 54 1 25 51
M  V30 END BOND
M  V30 END CTAB
M  END
>  <Dataset>  (104) 
ChEMBL_Kinases

>  <Ligand_Instance>  (104) 
nan

>  <PDB_ID>  (104) 
nan

>  <Standardized_SMILES>  (104) 
CCOC(=O)C1=C(N2CCCCCC2)O/C(=C\c2c[nH]c3ncccc23)C1=O

>  <Name>  (104) 
nan

>  <Pocket>  (104) 
nan

>  <ATP_Site>  (104) 
nan

>  <Peripheral>  (104) 
nan

>  <Num_H_Atoms_ProtBoundConf>  (104) 
nan

>  <Num_Resolved_Atoms>  (104) 
nan

>  <Num_Not_Resolved_Atoms>  (104) 
nan

$$$$
CHEMBL3670773
     RDKit          3D

  0  0  0  0  0  0  0  0  0  0999 V3000
M  V30 BEGIN CTAB
M  V30 COUNTS 48 52 0 0 0
M  V30 BEGIN ATOM
M  V30 1 C 2.828066 -5.515851 0.730881 0
M  V30 2 C 3.207313 -4.375750 -0.194950 0
M  V30 3 O 2.735922 -3.143295 0.264805 0
M  V30 4 C 3.102316 -2.683525 1.521832 0
M  V30 5 O 3.868572 -3.464797 2.182615 0
M  V30 6 C 2.457727 -1.356040 1.728242 0
M  V30 7 C 2.990389 -0.348832 0.769023 0
M  V30 8 O 4.013062 -0.059086 0.097808 0
M  V30 9 C 1.887175 0.590793 0.597173 0
M  V30 10 C 1.732212 1.845625 0.200278 0
M  V30 11 C 0.465925 2.557623 0.120509 0
M  V30 12 C -0.815462 2.310443 -0.367196 0
M  V30 13 N -1.612994 3.364849 -0.118289 0
M  V30 14 C -0.866617 4.301861 0.527130 0
M  V30 15 N -1.365856 5.502013 0.939894 0
M  V30 16 C -0.529941 6.369104 1.591510 0
M  V30 17 C 0.760662 5.918316 1.761285 0
M  V30 18 C 1.262813 4.704161 1.342086 0
M  V30 19 C 0.393186 3.822675 0.676218 0
M  V30 20 O 0.717091 -0.099233 0.976972 0
M  V30 21 C 1.020625 -1.392170 1.370610 0
M  V30 22 N 0.209127 -2.358552 1.398666 0
M  V30 23 C -1.154531 -2.320036 1.043275 0
M  V30 24 C -2.004455 -1.225879 0.876065 0
M  V30 25 C -3.326141 -1.350458 0.554024 0
M  V30 26 C -3.826432 -2.611768 0.390526 0
M  V30 27 C -5.118805 -2.972253 0.077121 0
M  V30 28 N -5.096184 -4.320188 0.042894 0
M  V30 29 N -3.876960 -4.814027 0.314456 0
M  V30 30 C -3.062027 -3.737516 0.535384 0
M  V30 31 C -1.711413 -3.588134 0.864812 0
M  V30 32 H 1.850583 -5.364510 1.225946 0
M  V30 33 H 2.838332 -6.451904 0.120747 0
M  V30 34 H 3.575648 -5.689410 1.531370 0
M  V30 35 H 4.292851 -4.335548 -0.305330 0
M  V30 36 H 2.669212 -4.573172 -1.167457 0
M  V30 37 H 2.631575 -0.980170 2.753730 0
M  V30 38 H 2.682690 2.318825 -0.071362 0
M  V30 39 H -0.884384 1.318275 -0.842088 0
M  V30 40 H -2.598350 3.276341 -0.447859 0
M  V30 41 H -0.790186 7.346204 1.967727 0
M  V30 42 H 1.485538 6.562033 2.279858 0
M  V30 43 H 2.284076 4.378602 1.489727 0
M  V30 44 H -1.551495 -0.265239 1.018980 0
M  V30 45 H -3.917396 -0.470113 0.440571 0
M  V30 46 H -6.017020 -2.382185 -0.113101 0
M  V30 47 H -5.939190 -4.894723 -0.166981 0
M  V30 48 H -1.152824 -4.510596 0.964589 0
M  V30 END ATOM
M  V30 BEGIN BOND
M  V30 1 1 1 2
M  V30 2 1 2 3
M  V30 3 1 3 4
M  V30 4 2 4 5
M  V30 5 1 4 6
M  V30 6 1 6 7
M  V30 7 2 7 8
M  V30 8 1 7 9
M  V30 9 2 9 10
M  V30 10 1 10 11
M  V30 11 2 11 12
M  V30 12 1 12 13
M  V30 13 1 13 14
M  V30 14 2 14 15
M  V30 15 1 15 16
M  V30 16 2 16 17
M  V30 17 1 17 18
M  V30 18 2 18 19
M  V30 19 1 9 20
M  V30 20 1 20 21
M  V30 21 2 21 22
M  V30 22 1 22 23
M  V30 23 1 23 24
M  V30 24 2 24 25
M  V30 25 1 25 26
M  V30 26 2 26 27
M  V30 27 1 27 28
M  V30 28 1 28 29
M  V30 29 2 29 30
M  V30 30 1 30 31
M  V30 31 1 21 6
M  V30 32 2 31 23
M  V30 33 1 19 11
M  V30 34 1 30 26
M  V30 35 1 19 14
M  V30 36 1 1 32
M  V30 37 1 1 33
M  V30 38 1 1 34
M  V30 39 1 2 35
M  V30 40 1 2 36
M  V30 41 1 6 37
M  V30 42 1 10 38
M  V30 43 1 12 39
M  V30 44 1 13 40
M  V30 45 1 16 41
M  V30 46 1 17 42
M  V30 47 1 18 43
M  V30 48 1 24 44
M  V30 49 1 25 45
M  V30 50 1 27 46
M  V30 51 1 28 47
M  V30 52 1 31 48
M  V30 END BOND
M  V30 END CTAB
M  END
>  <Dataset>  (105) 
ChEMBL_Kinases

>  <Ligand_Instance>  (105) 
nan

>  <PDB_ID>  (105) 
nan

>  <Standardized_SMILES>  (105) 
CCOC(=O)C1C(=O)/C(=C/c2c[nH]c3ncccc23)O/C1=N\c1ccc2c[nH]nc2c1

>  <Name>  (105) 
nan

>  <Pocket>  (105) 
nan

>  <ATP_Site>  (105) 
nan

>  <Peripheral>  (105) 
nan

>  <Num_H_Atoms_ProtBoundConf>  (105) 
nan

>  <Num_Resolved_Atoms>  (105) 
nan

>  <Num_Not_Resolved_Atoms>  (105) 
nan

$$$$
CHEMBL3670788
     RDKit          3D

  0  0  0  0  0  0  0  0  0  0999 V3000
M  V30 BEGIN CTAB
M  V30 COUNTS 56 60 0 0 0
M  V30 BEGIN ATOM
M  V30 1 C 1.130954 0.592172 5.206595 0
M  V30 2 C -0.369044 0.649041 5.133142 0
M  V30 3 O -0.757723 -0.521769 4.393325 0
M  V30 4 C -0.256487 -0.622998 3.091254 0
M  V30 5 O 0.456705 0.373425 2.830812 0
M  V30 6 C -0.514261 -1.705615 2.178229 0
M  V30 7 C 0.049062 -1.630221 0.986001 0
M  V30 8 N 0.893479 -0.795845 0.203923 0
M  V30 9 C 2.302144 -0.719880 0.436887 0
M  V30 10 C 2.911266 0.644018 0.242402 0
M  V30 11 C 1.800475 1.609110 0.022077 0
M  V30 12 C 2.128031 2.921243 0.387498 0
M  V30 13 C 1.269770 3.995818 0.274917 0
M  V30 14 C 0.019155 3.721340 -0.233832 0
M  V30 15 O -0.944254 4.706938 -0.402307 0
M  V30 16 C -0.725860 6.061240 -0.071791 0
M  V30 17 C -0.354610 2.453803 -0.608005 0
M  V30 18 C 0.535832 1.393335 -0.480755 0
M  V30 19 C 0.255341 -0.022877 -0.850749 0
M  V30 20 O -0.313835 -2.752105 0.260288 0
M  V30 21 C -1.137261 -3.590311 0.989394 0
M  V30 22 C -1.740478 -4.739596 0.780535 0
M  V30 23 C -1.570328 -5.386705 -0.517450 0
M  V30 24 C -1.237258 -6.736413 -0.669744 0
M  V30 25 N -1.175274 -7.022458 -1.981754 0
M  V30 26 C -1.450108 -5.934897 -2.720638 0
M  V30 27 N -1.538561 -5.650194 -4.058040 0
M  V30 28 C -1.858665 -4.408961 -4.457591 0
M  V30 29 C -2.119414 -3.346493 -3.619463 0
M  V30 30 C -2.024061 -3.655398 -2.258289 0
M  V30 31 C -1.695177 -4.921752 -1.805939 0
M  V30 32 C -1.296832 -2.927186 2.279642 0
M  V30 33 O -1.886792 -3.129577 3.355274 0
M  V30 34 H 1.606503 1.427254 4.618250 0
M  V30 35 H 1.473298 0.639169 6.239334 0
M  V30 36 H 1.572620 -0.332741 4.773277 0
M  V30 37 H -0.767830 0.552804 6.161891 0
M  V30 38 H -0.748938 1.555007 4.626086 0
M  V30 39 H 2.453778 -0.966512 1.527443 0
M  V30 40 H 2.878580 -1.430998 -0.200707 0
M  V30 41 H 3.553463 0.647454 -0.668722 0
M  V30 42 H 3.510770 0.913391 1.136250 0
M  V30 43 H 3.107857 3.189356 0.796960 0
M  V30 44 H 1.551339 4.996868 0.566814 0
M  V30 45 H -1.362572 6.676547 -0.750336 0
M  V30 46 H -1.050964 6.325381 0.960209 0
M  V30 47 H 0.305853 6.399035 -0.228257 0
M  V30 48 H -1.318736 2.187274 -1.010623 0
M  V30 49 H 0.766871 -0.174595 -1.825941 0
M  V30 50 H -0.817390 -0.192697 -0.912548 0
M  V30 51 H -2.359799 -5.234480 1.522974 0
M  V30 52 H -1.045442 -7.494127 0.068706 0
M  V30 53 H -0.954255 -7.923282 -2.464744 0
M  V30 54 H -1.909988 -4.254159 -5.541362 0
M  V30 55 H -2.373380 -2.366911 -3.996188 0
M  V30 56 H -2.234063 -2.845136 -1.591770 0
M  V30 END ATOM
M  V30 BEGIN BOND
M  V30 1 1 1 2
M  V30 2 1 2 3
M  V30 3 1 3 4
M  V30 4 2 4 5
M  V30 5 1 4 6
M  V30 6 2 6 7
M  V30 7 1 7 8
M  V30 8 1 8 9
M  V30 9 1 9 10
M  V30 10 1 10 11
M  V30 11 2 11 12
M  V30 12 1 12 13
M  V30 13 2 13 14
M  V30 14 1 14 15
M  V30 15 1 15 16
M  V30 16 1 14 17
M  V30 17 2 17 18
M  V30 18 1 18 19
M  V30 19 1 7 20
M  V30 20 1 20 21
M  V30 21 2 21 22
M  V30 22 1 22 23
M  V30 23 2 23 24
M  V30 24 1 24 25
M  V30 25 1 25 26
M  V30 26 2 26 27
M  V30 27 1 27 28
M  V30 28 2 28 29
M  V30 29 1 29 30
M  V30 30 2 30 31
M  V30 31 1 21 32
M  V30 32 2 32 33
M  V30 33 1 32 6
M  V30 34 1 19 8
M  V30 35 1 31 23
M  V30 36 1 18 11
M  V30 37 1 31 26
M  V30 38 1 1 34
M  V30 39 1 1 35
M  V30 40 1 1 36
M  V30 41 1 2 37
M  V30 42 1 2 38
M  V30 43 1 9 39
M  V30 44 1 9 40
M  V30 45 1 10 41
M  V30 46 1 10 42
M  V30 47 1 12 43
M  V30 48 1 13 44
M  V30 49 1 16 45
M  V30 50 1 16 46
M  V30 51 1 16 47
M  V30 52 1 17 48
M  V30 53 1 19 49
M  V30 54 1 19 50
M  V30 55 1 22 51
M  V30 56 1 24 52
M  V30 57 1 25 53
M  V30 58 1 28 54
M  V30 59 1 29 55
M  V30 60 1 30 56
M  V30 END BOND
M  V30 END CTAB
M  END
>  <Dataset>  (106) 
ChEMBL_Kinases

>  <Ligand_Instance>  (106) 
nan

>  <PDB_ID>  (106) 
nan

>  <Standardized_SMILES>  (106) 
CCOC(=O)C1=C(N2CCc3ccc(OC)cc3C2)O/C(=C\c2c[nH]c3ncccc23)C1=O

>  <Name>  (106) 
nan

>  <Pocket>  (106) 
nan

>  <ATP_Site>  (106) 
nan

>  <Peripheral>  (106) 
nan

>  <Num_H_Atoms_ProtBoundConf>  (106) 
nan

>  <Num_Resolved_Atoms>  (106) 
nan

>  <Num_Not_Resolved_Atoms>  (106) 
nan

$$$$
CHEMBL3670775
     RDKit          3D

  0  0  0  0  0  0  0  0  0  0999 V3000
M  V30 BEGIN CTAB
M  V30 COUNTS 55 58 0 0 0
M  V30 BEGIN ATOM
M  V30 1 C 2.252073 -1.583759 5.970835 0
M  V30 2 C 1.585969 -2.341065 4.850044 0
M  V30 3 O 1.004323 -1.511279 3.876926 0
M  V30 4 C -0.001587 -0.587078 4.107871 0
M  V30 5 O -0.274601 -0.648328 5.334856 0
M  V30 6 C -0.372099 0.112522 2.852725 0
M  V30 7 C 0.801397 0.850930 2.283936 0
M  V30 8 O 1.608577 1.449039 3.064324 0
M  V30 9 C 0.735238 0.695500 0.835616 0
M  V30 10 C 1.567498 1.589952 -0.018954 0
M  V30 11 C 1.224050 3.013919 0.189030 0
M  V30 12 C 1.945497 3.944792 0.904422 0
M  V30 13 N 1.394500 5.169759 0.927563 0
M  V30 14 C 0.252706 5.053154 0.194423 0
M  V30 15 N -0.703170 5.941771 -0.129218 0
M  V30 16 C -1.764231 5.566293 -0.889041 0
M  V30 17 C -1.922846 4.291859 -1.361055 0
M  V30 18 C -0.947444 3.342597 -1.043330 0
M  V30 19 C 0.125526 3.750008 -0.266783 0
M  V30 20 C -0.111926 -0.279453 0.542657 0
M  V30 21 C -0.678766 -0.853224 1.758255 0
M  V30 22 N -1.324034 -1.978585 1.879867 0
M  V30 23 C -1.518755 -2.768384 0.713652 0
M  V30 24 C -0.448701 -3.579499 0.405699 0
M  V30 25 C -0.523264 -4.389810 -0.702730 0
M  V30 26 C -1.619928 -4.435104 -1.530627 0
M  V30 27 O -1.994974 -5.095827 -2.659072 0
M  V30 28 C -1.333975 -6.024902 -3.437303 0
M  V30 29 C -0.077047 -5.490332 -4.067415 0
M  V30 30 O -0.351306 -4.393542 -4.900621 0
M  V30 31 C -2.705301 -3.601814 -1.203810 0
M  V30 32 C -2.650886 -2.766508 -0.076527 0
M  V30 33 F -3.606788 -1.918408 0.360052 0
M  V30 34 H 1.545954 -1.161598 6.705543 0
M  V30 35 H 2.937658 -2.293074 6.498061 0
M  V30 36 H 2.919941 -0.809996 5.512900 0
M  V30 37 H 2.374780 -2.933595 4.334061 0
M  V30 38 H 0.875626 -3.091099 5.276749 0
M  V30 39 H -1.207934 0.786338 3.032792 0
M  V30 40 H 1.452129 1.280928 -1.088250 0
M  V30 41 H 2.641532 1.463716 0.215861 0
M  V30 42 H 2.886555 3.727586 1.416801 0
M  V30 43 H 1.776926 6.005306 1.407187 0
M  V30 44 H -2.524376 6.321403 -1.132110 0
M  V30 45 H -2.768497 3.991982 -1.966680 0
M  V30 46 H -1.017607 2.306101 -1.391250 0
M  V30 47 H -0.324038 -0.576254 -0.475720 0
M  V30 48 H 0.473446 -3.656145 0.951666 0
M  V30 49 H 0.234499 -5.058434 -1.024719 0
M  V30 50 H -0.996266 -6.850432 -2.742196 0
M  V30 51 H -1.979972 -6.482451 -4.219852 0
M  V30 52 H 0.448864 -6.291570 -4.632129 0
M  V30 53 H 0.607898 -5.152064 -3.302394 0
M  V30 54 H -0.308164 -3.547946 -4.360457 0
M  V30 55 H -3.669596 -3.444836 -1.674886 0
M  V30 END ATOM
M  V30 BEGIN BOND
M  V30 1 1 1 2
M  V30 2 1 2 3
M  V30 3 1 3 4
M  V30 4 2 4 5
M  V30 5 1 4 6
M  V30 6 1 6 7
M  V30 7 2 7 8
M  V30 8 1 7 9
M  V30 9 1 9 10
M  V30 10 1 10 11
M  V30 11 2 11 12
M  V30 12 1 12 13
M  V30 13 1 13 14
M  V30 14 2 14 15
M  V30 15 1 15 16
M  V30 16 2 16 17
M  V30 17 1 17 18
M  V30 18 2 18 19
M  V30 19 2 9 20
M  V30 20 1 20 21
M  V30 21 2 21 22
M  V30 22 1 22 23
M  V30 23 2 23 24
M  V30 24 1 24 25
M  V30 25 2 25 26
M  V30 26 1 26 27
M  V30 27 1 27 28
M  V30 28 1 28 29
M  V30 29 1 29 30
M  V30 30 1 26 31
M  V30 31 2 31 32
M  V30 32 1 32 33
M  V30 33 1 21 6
M  V30 34 1 32 23
M  V30 35 1 19 11
M  V30 36 1 19 14
M  V30 37 1 1 34
M  V30 38 1 1 35
M  V30 39 1 1 36
M  V30 40 1 2 37
M  V30 41 1 2 38
M  V30 42 1 6 39
M  V30 43 1 10 40
M  V30 44 1 10 41
M  V30 45 1 12 42
M  V30 46 1 13 43
M  V30 47 1 16 44
M  V30 48 1 17 45
M  V30 49 1 18 46
M  V30 50 1 20 47
M  V30 51 1 24 48
M  V30 52 1 25 49
M  V30 53 1 28 50
M  V30 54 1 28 51
M  V30 55 1 29 52
M  V30 56 1 29 53
M  V30 57 1 30 54
M  V30 58 1 31 55
M  V30 END BOND
M  V30 END CTAB
M  END
>  <Dataset>  (107) 
ChEMBL_Kinases

>  <Ligand_Instance>  (107) 
nan

>  <PDB_ID>  (107) 
nan

>  <Standardized_SMILES>  (107) 
CCOC(=O)C1C(=O)C(Cc2c[nH]c3ncccc23)=C/C1=N\c1ccc(OCCO)cc1F

>  <Name>  (107) 
nan

>  <Pocket>  (107) 
nan

>  <ATP_Site>  (107) 
nan

>  <Peripheral>  (107) 
nan

>  <Num_H_Atoms_ProtBoundConf>  (107) 
nan

>  <Num_Resolved_Atoms>  (107) 
nan

>  <Num_Not_Resolved_Atoms>  (107) 
nan

$$$$
CHEMBL3670777
     RDKit          3D

  0  0  0  0  0  0  0  0  0  0999 V3000
M  V30 BEGIN CTAB
M  V30 COUNTS 53 56 0 0 0
M  V30 BEGIN ATOM
M  V30 1 C 1.873953 -0.788374 2.374721 0
M  V30 2 N 2.769255 -1.691476 3.024274 0
M  V30 3 C 2.973890 -1.429685 4.412174 0
M  V30 4 C 2.534086 -3.047575 2.666695 0
M  V30 5 C 2.906600 -3.286579 1.222000 0
M  V30 6 O 2.156392 -2.468752 0.339364 0
M  V30 7 C 2.326554 -2.558049 -1.047054 0
M  V30 8 O 3.146772 -3.369377 -1.541459 0
M  V30 9 C 1.554717 -1.710088 -1.968663 0
M  V30 10 C 1.943484 -0.279954 -1.715263 0
M  V30 11 O 2.997454 0.089947 -2.280095 0
M  V30 12 C 0.962467 0.330413 -0.849689 0
M  V30 13 C 1.151915 1.514728 -0.315943 0
M  V30 14 C 0.221700 2.194333 0.556275 0
M  V30 15 C 0.659942 2.808382 1.738556 0
M  V30 16 N -0.357693 3.402571 2.385619 0
M  V30 17 C -1.509603 3.216607 1.676125 0
M  V30 18 N -2.825098 3.559627 1.787171 0
M  V30 19 C -3.710305 3.185734 0.840474 0
M  V30 20 C -3.391702 2.452283 -0.285053 0
M  V30 21 C -2.054263 2.120333 -0.368837 0
M  V30 22 C -1.114400 2.482204 0.578660 0
M  V30 23 O -0.133706 -0.521439 -0.705313 0
M  V30 24 C 0.130414 -1.675652 -1.469477 0
M  V30 25 N -0.686240 -2.616347 -1.745391 0
M  V30 26 C -2.024782 -2.678433 -1.331823 0
M  V30 27 C -2.314126 -3.813056 -0.550517 0
M  V30 28 C -3.647907 -3.868013 -0.141111 0
M  V30 29 C -4.617029 -2.946146 -0.436875 0
M  V30 30 F -5.892788 -3.070539 0.001619 0
M  V30 31 C -4.268313 -1.852964 -1.209733 0
M  V30 32 C -2.975961 -1.739262 -1.644126 0
M  V30 33 F -2.509360 -0.730737 -2.411671 0
M  V30 34 H 1.503300 -0.069569 3.140959 0
M  V30 35 H 2.430343 -0.209649 1.625098 0
M  V30 36 H 0.991867 -1.337036 1.988940 0
M  V30 37 H 3.137602 -2.327351 5.024188 0
M  V30 38 H 2.102299 -0.859468 4.798313 0
M  V30 39 H 3.837934 -0.714848 4.476237 0
M  V30 40 H 1.470205 -3.388436 2.759736 0
M  V30 41 H 3.105000 -3.753952 3.306374 0
M  V30 42 H 3.966584 -2.910519 1.112315 0
M  V30 43 H 2.947399 -4.342840 0.933524 0
M  V30 44 H 1.619618 -2.005530 -3.011085 0
M  V30 45 H 2.070376 2.060623 -0.519097 0
M  V30 46 H 1.676543 2.839442 2.139870 0
M  V30 47 H -0.331669 3.930832 3.282706 0
M  V30 48 H -4.739976 3.489427 0.986929 0
M  V30 49 H -4.132970 2.173253 -1.019886 0
M  V30 50 H -1.777066 1.555249 -1.244417 0
M  V30 51 H -1.599421 -4.574601 -0.281800 0
M  V30 52 H -3.984820 -4.688696 0.460267 0
M  V30 53 H -4.983400 -1.094977 -1.477201 0
M  V30 END ATOM
M  V30 BEGIN BOND
M  V30 1 1 1 2
M  V30 2 1 2 3
M  V30 3 1 2 4
M  V30 4 1 4 5
M  V30 5 1 5 6
M  V30 6 1 6 7
M  V30 7 2 7 8
M  V30 8 1 7 9
M  V30 9 1 9 10
M  V30 10 2 10 11
M  V30 11 1 10 12
M  V30 12 2 12 13
M  V30 13 1 13 14
M  V30 14 2 14 15
M  V30 15 1 15 16
M  V30 16 1 16 17
M  V30 17 2 17 18
M  V30 18 1 18 19
M  V30 19 2 19 20
M  V30 20 1 20 21
M  V30 21 2 21 22
M  V30 22 1 12 23
M  V30 23 1 23 24
M  V30 24 2 24 25
M  V30 25 1 25 26
M  V30 26 2 26 27
M  V30 27 1 27 28
M  V30 28 2 28 29
M  V30 29 1 29 30
M  V30 30 1 29 31
M  V30 31 2 31 32
M  V30 32 1 32 33
M  V30 33 1 24 9
M  V30 34 1 32 26
M  V30 35 1 22 14
M  V30 36 1 22 17
M  V30 37 1 1 34
M  V30 38 1 1 35
M  V30 39 1 1 36
M  V30 40 1 3 37
M  V30 41 1 3 38
M  V30 42 1 3 39
M  V30 43 1 4 40
M  V30 44 1 4 41
M  V30 45 1 5 42
M  V30 46 1 5 43
M  V30 47 1 9 44
M  V30 48 1 13 45
M  V30 49 1 15 46
M  V30 50 1 16 47
M  V30 51 1 19 48
M  V30 52 1 20 49
M  V30 53 1 21 50
M  V30 54 1 27 51
M  V30 55 1 28 52
M  V30 56 1 31 53
M  V30 END BOND
M  V30 END CTAB
M  END
>  <Dataset>  (108) 
ChEMBL_Kinases

>  <Ligand_Instance>  (108) 
nan

>  <PDB_ID>  (108) 
nan

>  <Standardized_SMILES>  (108) 
CN(C)CCOC(=O)C1C(=O)/C(=C/c2c[nH]c3ncccc23)O/C1=N\c1ccc(F)cc1F

>  <Name>  (108) 
nan

>  <Pocket>  (108) 
nan

>  <ATP_Site>  (108) 
nan

>  <Peripheral>  (108) 
nan

>  <Num_H_Atoms_ProtBoundConf>  (108) 
nan

>  <Num_Resolved_Atoms>  (108) 
nan

>  <Num_Not_Resolved_Atoms>  (108) 
nan

$$$$
CHEMBL3670778
     RDKit          3D

  0  0  0  0  0  0  0  0  0  0999 V3000
M  V30 BEGIN CTAB
M  V30 COUNTS 52 56 0 0 0
M  V30 BEGIN ATOM
M  V30 1 C 4.802295 0.063069 -2.616186 0
M  V30 2 C 4.126279 0.647765 -1.375860 0
M  V30 3 O 2.926242 -0.025698 -1.102347 0
M  V30 4 C 2.049214 0.224879 -0.070800 0
M  V30 5 O 2.650917 1.168049 0.467654 0
M  V30 6 C 0.830445 -0.551123 0.103548 0
M  V30 7 C -0.100159 -0.425032 1.030414 0
M  V30 8 N -0.151438 0.510305 2.105250 0
M  V30 9 C 0.702699 0.362421 3.266105 0
M  V30 10 C 1.390068 1.642808 3.588368 0
M  V30 11 C 1.001424 2.775956 2.714956 0
M  V30 12 C 1.865133 3.844968 2.608799 0
M  V30 13 C 1.619393 4.954476 1.829611 0
M  V30 14 C 0.427243 4.959449 1.127916 0
M  V30 15 C -0.497800 3.916218 1.182251 0
M  V30 16 C -0.168883 2.842024 1.990660 0
M  V30 17 C -1.053984 1.659009 2.142710 0
M  V30 18 O -1.080641 -1.377124 0.809127 0
M  V30 19 C -0.785687 -2.150523 -0.292013 0
M  V30 20 C -1.386528 -3.152532 -0.886349 0
M  V30 21 C -2.650931 -3.659641 -0.373372 0
M  V30 22 C -3.792623 -2.974177 0.038556 0
M  V30 23 N -4.729909 -3.861058 0.427799 0
M  V30 24 C -4.243566 -5.120313 0.286781 0
M  V30 25 N -4.760526 -6.338118 0.529365 0
M  V30 26 C -4.057523 -7.482661 0.303595 0
M  V30 27 C -2.751781 -7.414095 -0.196519 0
M  V30 28 C -2.209312 -6.152878 -0.450446 0
M  V30 29 C -2.943958 -5.000152 -0.213687 0
M  V30 30 C 0.478407 -1.640089 -0.799047 0
M  V30 31 O 1.139996 -2.035932 -1.797055 0
M  V30 32 H 4.828328 -1.033874 -2.616177 0
M  V30 33 H 4.193114 0.442914 -3.473625 0
M  V30 34 H 5.822562 0.489312 -2.651582 0
M  V30 35 H 3.999985 1.740206 -1.474488 0
M  V30 36 H 4.817326 0.478004 -0.530874 0
M  V30 37 H -0.006435 0.149473 4.115414 0
M  V30 38 H 1.360687 -0.525786 3.211255 0
M  V30 39 H 1.187811 1.974961 4.636341 0
M  V30 40 H 2.509647 1.559387 3.537856 0
M  V30 41 H 2.794516 3.834299 3.162170 0
M  V30 42 H 2.249985 5.822316 1.701184 0
M  V30 43 H 0.072208 5.759278 0.460970 0
M  V30 44 H -1.441369 3.838947 0.675552 0
M  V30 45 H -1.463777 1.706353 3.166342 0
M  V30 46 H -1.834153 1.598693 1.366723 0
M  V30 47 H -0.992956 -3.645158 -1.764002 0
M  V30 48 H -3.883289 -1.881641 0.033998 0
M  V30 49 H -5.687731 -3.577779 0.782064 0
M  V30 50 H -4.471079 -8.484913 0.498777 0
M  V30 51 H -2.144801 -8.304119 -0.392629 0
M  V30 52 H -1.190747 -6.047666 -0.841367 0
M  V30 END ATOM
M  V30 BEGIN BOND
M  V30 1 1 1 2
M  V30 2 1 2 3
M  V30 3 1 3 4
M  V30 4 2 4 5
M  V30 5 1 4 6
M  V30 6 2 6 7
M  V30 7 1 7 8
M  V30 8 1 8 9
M  V30 9 1 9 10
M  V30 10 1 10 11
M  V30 11 2 11 12
M  V30 12 1 12 13
M  V30 13 2 13 14
M  V30 14 1 14 15
M  V30 15 2 15 16
M  V30 16 1 16 17
M  V30 17 1 7 18
M  V30 18 1 18 19
M  V30 19 2 19 20
M  V30 20 1 20 21
M  V30 21 2 21 22
M  V30 22 1 22 23
M  V30 23 1 23 24
M  V30 24 2 24 25
M  V30 25 1 25 26
M  V30 26 2 26 27
M  V30 27 1 27 28
M  V30 28 2 28 29
M  V30 29 1 19 30
M  V30 30 2 30 31
M  V30 31 1 30 6
M  V30 32 1 17 8
M  V30 33 1 29 21
M  V30 34 1 16 11
M  V30 35 1 29 24
M  V30 36 1 1 32
M  V30 37 1 1 33
M  V30 38 1 1 34
M  V30 39 1 2 35
M  V30 40 1 2 36
M  V30 41 1 9 37
M  V30 42 1 9 38
M  V30 43 1 10 39
M  V30 44 1 10 40
M  V30 45 1 12 41
M  V30 46 1 13 42
M  V30 47 1 14 43
M  V30 48 1 15 44
M  V30 49 1 17 45
M  V30 50 1 17 46
M  V30 51 1 20 47
M  V30 52 1 22 48
M  V30 53 1 23 49
M  V30 54 1 26 50
M  V30 55 1 27 51
M  V30 56 1 28 52
M  V30 END BOND
M  V30 END CTAB
M  END
>  <Dataset>  (109) 
ChEMBL_Kinases

>  <Ligand_Instance>  (109) 
nan

>  <PDB_ID>  (109) 
nan

>  <Standardized_SMILES>  (109) 
CCOC(=O)C1=C(N2CCc3ccccc3C2)O/C(=C\c2c[nH]c3ncccc23)C1=O

>  <Name>  (109) 
nan

>  <Pocket>  (109) 
nan

>  <ATP_Site>  (109) 
nan

>  <Peripheral>  (109) 
nan

>  <Num_H_Atoms_ProtBoundConf>  (109) 
nan

>  <Num_Resolved_Atoms>  (109) 
nan

>  <Num_Not_Resolved_Atoms>  (109) 
nan

$$$$
CHEMBL3670780
     RDKit          3D

  0  0  0  0  0  0  0  0  0  0999 V3000
M  V30 BEGIN CTAB
M  V30 COUNTS 59 62 0 0 0
M  V30 BEGIN ATOM
M  V30 1 C 4.038759 -2.685133 6.011596 0
M  V30 2 C 2.918349 -3.134247 5.099433 0
M  V30 3 O 2.418677 -1.972241 4.446906 0
M  V30 4 C 3.149487 -1.144144 3.639109 0
M  V30 5 O 4.368948 -1.403683 3.434738 0
M  V30 6 C 2.354485 -0.032508 3.116110 0
M  V30 7 C 3.164102 0.875583 2.229563 0
M  V30 8 O 4.368519 1.155221 1.995841 0
M  V30 9 C 2.116085 1.587711 1.464632 0
M  V30 10 C 2.045460 2.752906 0.854317 0
M  V30 11 C 0.958719 3.376284 0.116676 0
M  V30 12 C 0.670985 4.727001 0.359426 0
M  V30 13 N -0.351553 5.103552 -0.424054 0
M  V30 14 C -0.777301 4.083962 -1.188831 0
M  V30 15 N -1.717096 3.868460 -2.125130 0
M  V30 16 C -1.841924 2.643785 -2.702225 0
M  V30 17 C -1.032026 1.572153 -2.371524 0
M  V30 18 C -0.072386 1.785125 -1.417707 0
M  V30 19 C 0.038887 3.028650 -0.844817 0
M  V30 20 O 0.997995 0.732366 1.459687 0
M  V30 21 C 1.292478 -0.429821 2.157430 0
M  V30 22 N 0.783108 -1.626268 2.039076 0
M  V30 23 C -0.231795 -1.820920 1.059966 0
M  V30 24 C -1.543800 -1.936787 1.489516 0
M  V30 25 C -2.527098 -2.124814 0.539222 0
M  V30 26 C -2.302441 -2.207736 -0.827046 0
M  V30 27 C -3.342085 -2.407751 -1.835237 0
M  V30 28 N -3.655869 -3.737087 -2.191373 0
M  V30 29 C -4.119615 -4.609868 -1.178092 0
M  V30 30 C -2.968325 -4.320077 -3.280430 0
M  V30 31 C -0.977448 -2.085244 -1.191125 0
M  V30 32 C 0.049238 -1.894844 -0.272630 0
M  V30 33 C 1.436883 -1.777983 -0.777920 0
M  V30 34 H 3.849574 -1.644123 6.298101 0
M  V30 35 H 4.133325 -3.339317 6.903940 0
M  V30 36 H 4.980168 -2.684057 5.398340 0
M  V30 37 H 3.250597 -3.905641 4.362983 0
M  V30 38 H 2.090877 -3.504912 5.744905 0
M  V30 39 H 1.931451 0.631346 3.893142 0
M  V30 40 H 2.995664 3.310733 0.943718 0
M  V30 41 H 1.153011 5.430491 1.056453 0
M  V30 42 H -0.785651 6.063532 -0.457899 0
M  V30 43 H -2.632426 2.587407 -3.442066 0
M  V30 44 H -1.208307 0.642066 -2.884040 0
M  V30 45 H 0.556876 0.953247 -1.172894 0
M  V30 46 H -1.811058 -1.884686 2.532201 0
M  V30 47 H -3.537252 -2.211678 0.897302 0
M  V30 48 H -2.975069 -1.893602 -2.768043 0
M  V30 49 H -4.295394 -1.863779 -1.588860 0
M  V30 50 H -3.431455 -5.427333 -0.882960 0
M  V30 51 H -5.024268 -5.143202 -1.592908 0
M  V30 52 H -4.525061 -4.026596 -0.327425 0
M  V30 53 H -3.349738 -3.873508 -4.217489 0
M  V30 54 H -3.228401 -5.399206 -3.326955 0
M  V30 55 H -1.861718 -4.259839 -3.249251 0
M  V30 56 H -0.719621 -2.138615 -2.235739 0
M  V30 57 H 1.859600 -2.804357 -0.956574 0
M  V30 58 H 2.102431 -1.306699 -0.040971 0
M  V30 59 H 1.440313 -1.264213 -1.762568 0
M  V30 END ATOM
M  V30 BEGIN BOND
M  V30 1 1 1 2
M  V30 2 1 2 3
M  V30 3 1 3 4
M  V30 4 2 4 5
M  V30 5 1 4 6
M  V30 6 1 6 7
M  V30 7 2 7 8
M  V30 8 1 7 9
M  V30 9 2 9 10
M  V30 10 1 10 11
M  V30 11 2 11 12
M  V30 12 1 12 13
M  V30 13 1 13 14
M  V30 14 2 14 15
M  V30 15 1 15 16
M  V30 16 2 16 17
M  V30 17 1 17 18
M  V30 18 2 18 19
M  V30 19 1 9 20
M  V30 20 1 20 21
M  V30 21 2 21 22
M  V30 22 1 22 23
M  V30 23 2 23 24
M  V30 24 1 24 25
M  V30 25 2 25 26
M  V30 26 1 26 27
M  V30 27 1 27 28
M  V30 28 1 28 29
M  V30 29 1 28 30
M  V30 30 1 26 31
M  V30 31 2 31 32
M  V30 32 1 32 33
M  V30 33 1 21 6
M  V30 34 1 32 23
M  V30 35 1 19 11
M  V30 36 1 19 14
M  V30 37 1 1 34
M  V30 38 1 1 35
M  V30 39 1 1 36
M  V30 40 1 2 37
M  V30 41 1 2 38
M  V30 42 1 6 39
M  V30 43 1 10 40
M  V30 44 1 12 41
M  V30 45 1 13 42
M  V30 46 1 16 43
M  V30 47 1 17 44
M  V30 48 1 18 45
M  V30 49 1 24 46
M  V30 50 1 25 47
M  V30 51 1 27 48
M  V30 52 1 27 49
M  V30 53 1 29 50
M  V30 54 1 29 51
M  V30 55 1 29 52
M  V30 56 1 30 53
M  V30 57 1 30 54
M  V30 58 1 30 55
M  V30 59 1 31 56
M  V30 60 1 33 57
M  V30 61 1 33 58
M  V30 62 1 33 59
M  V30 END BOND
M  V30 END CTAB
M  END
>  <Dataset>  (110) 
ChEMBL_Kinases

>  <Ligand_Instance>  (110) 
nan

>  <PDB_ID>  (110) 
nan

>  <Standardized_SMILES>  (110) 
CCOC(=O)C1C(=O)/C(=C/c2c[nH]c3ncccc23)O/C1=N\c1ccc(CN(C)C)cc1C

>  <Name>  (110) 
nan

>  <Pocket>  (110) 
nan

>  <ATP_Site>  (110) 
nan

>  <Peripheral>  (110) 
nan

>  <Num_H_Atoms_ProtBoundConf>  (110) 
nan

>  <Num_Resolved_Atoms>  (110) 
nan

>  <Num_Not_Resolved_Atoms>  (110) 
nan

$$$$
CHEMBL3670781
     RDKit          3D

  0  0  0  0  0  0  0  0  0  0999 V3000
M  V30 BEGIN CTAB
M  V30 COUNTS 48 51 0 0 0
M  V30 BEGIN ATOM
M  V30 1 C 1.093259 -3.743825 -2.718166 0
M  V30 2 C 2.064269 -4.018412 -1.593167 0
M  V30 3 O 2.046892 -2.943769 -0.655298 0
M  V30 4 C 2.884991 -3.039800 0.449029 0
M  V30 5 O 3.595300 -4.059726 0.541263 0
M  V30 6 C 2.745912 -1.831202 1.340173 0
M  V30 7 C 3.157591 -0.665035 0.494295 0
M  V30 8 O 4.119078 -0.501112 -0.328268 0
M  V30 9 C 2.202024 0.411717 0.753386 0
M  V30 10 C 2.233790 1.707271 0.502072 0
M  V30 11 C 1.252550 2.741832 0.778423 0
M  V30 12 C 1.712086 3.946306 1.328326 0
M  V30 13 N 0.672657 4.780250 1.504939 0
M  V30 14 C -0.457622 4.188798 1.098170 0
M  V30 15 N -1.751749 4.550476 1.041113 0
M  V30 16 C -2.669156 3.680468 0.547567 0
M  V30 17 C -2.316722 2.428273 0.098905 0
M  V30 18 C -0.979301 2.015424 0.142398 0
M  V30 19 C -0.085009 2.945104 0.657221 0
M  V30 20 O 1.087770 -0.156020 1.391676 0
M  V30 21 C 1.297243 -1.517880 1.543079 0
M  V30 22 N 0.474372 -2.470380 1.813779 0
M  V30 23 N -0.882564 -2.177981 2.003445 0
M  V30 24 C -1.781890 -3.098593 1.334869 0
M  V30 25 C -3.149836 -2.546769 1.066001 0
M  V30 26 O -3.754768 -1.914045 2.116650 0
M  V30 27 C -2.916242 -1.804222 3.210806 0
M  V30 28 C -1.619994 -1.139303 2.736773 0
M  V30 29 H 0.114637 -3.337119 -2.361030 0
M  V30 30 H 0.842933 -4.697034 -3.247414 0
M  V30 31 H 1.465468 -3.004070 -3.445454 0
M  V30 32 H 1.713793 -4.926829 -1.066422 0
M  V30 33 H 3.057026 -4.162979 -2.040058 0
M  V30 34 H 3.315981 -1.936224 2.258397 0
M  V30 35 H 3.182546 1.971947 0.000201 0
M  V30 36 H 2.707312 4.278573 1.611281 0
M  V30 37 H 0.673191 5.760926 1.897359 0
M  V30 38 H -3.672738 4.098115 0.559587 0
M  V30 39 H -3.101360 1.795280 -0.278734 0
M  V30 40 H -0.697666 1.036487 -0.215549 0
M  V30 41 H -1.335628 -3.316367 0.333539 0
M  V30 42 H -1.794046 -4.013239 1.954732 0
M  V30 43 H -3.785422 -3.447900 0.817634 0
M  V30 44 H -3.160036 -1.918934 0.145965 0
M  V30 45 H -3.417690 -1.190090 3.970061 0
M  V30 46 H -2.667410 -2.786673 3.664609 0
M  V30 47 H -1.908793 -0.300208 2.093046 0
M  V30 48 H -1.063003 -0.838717 3.643516 0
M  V30 END ATOM
M  V30 BEGIN BOND
M  V30 1 1 1 2
M  V30 2 1 2 3
M  V30 3 1 3 4
M  V30 4 2 4 5
M  V30 5 1 4 6
M  V30 6 1 6 7
M  V30 7 2 7 8
M  V30 8 1 7 9
M  V30 9 2 9 10
M  V30 10 1 10 11
M  V30 11 2 11 12
M  V30 12 1 12 13
M  V30 13 1 13 14
M  V30 14 2 14 15
M  V30 15 1 15 16
M  V30 16 2 16 17
M  V30 17 1 17 18
M  V30 18 2 18 19
M  V30 19 1 9 20
M  V30 20 1 20 21
M  V30 21 2 21 22
M  V30 22 1 22 23
M  V30 23 1 23 24
M  V30 24 1 24 25
M  V30 25 1 25 26
M  V30 26 1 26 27
M  V30 27 1 27 28
M  V30 28 1 21 6
M  V30 29 1 28 23
M  V30 30 1 19 11
M  V30 31 1 19 14
M  V30 32 1 1 29
M  V30 33 1 1 30
M  V30 34 1 1 31
M  V30 35 1 2 32
M  V30 36 1 2 33
M  V30 37 1 6 34
M  V30 38 1 10 35
M  V30 39 1 12 36
M  V30 40 1 13 37
M  V30 41 1 16 38
M  V30 42 1 17 39
M  V30 43 1 18 40
M  V30 44 1 24 41
M  V30 45 1 24 42
M  V30 46 1 25 43
M  V30 47 1 25 44
M  V30 48 1 27 45
M  V30 49 1 27 46
M  V30 50 1 28 47
M  V30 51 1 28 48
M  V30 END BOND
M  V30 END CTAB
M  END
>  <Dataset>  (111) 
ChEMBL_Kinases

>  <Ligand_Instance>  (111) 
nan

>  <PDB_ID>  (111) 
nan

>  <Standardized_SMILES>  (111) 
CCOC(=O)C1C(=O)/C(=C/c2c[nH]c3ncccc23)O/C1=N\N1CCOCC1

>  <Name>  (111) 
nan

>  <Pocket>  (111) 
nan

>  <ATP_Site>  (111) 
nan

>  <Peripheral>  (111) 
nan

>  <Num_H_Atoms_ProtBoundConf>  (111) 
nan

>  <Num_Resolved_Atoms>  (111) 
nan

>  <Num_Not_Resolved_Atoms>  (111) 
nan

$$$$
CHEMBL3670782
     RDKit          3D

  0  0  0  0  0  0  0  0  0  0999 V3000
M  V30 BEGIN CTAB
M  V30 COUNTS 59 62 0 0 0
M  V30 BEGIN ATOM
M  V30 1 C 1.136358 -1.624833 0.421043 0
M  V30 2 C 1.665668 -0.296620 0.807016 0
M  V30 3 C 2.624664 -0.077159 1.768230 0
M  V30 4 C 3.073499 1.203537 2.066669 0
M  V30 5 O 4.029036 1.463612 3.019342 0
M  V30 6 C 4.676651 0.523649 3.816813 0
M  V30 7 C 5.690652 1.167312 4.762236 0
M  V30 8 O 6.260460 0.139735 5.496652 0
M  V30 9 C 2.540078 2.296617 1.376277 0
M  V30 10 C 1.574604 2.072907 0.409185 0
M  V30 11 C 1.133361 0.772496 0.121669 0
M  V30 12 N 0.143196 0.809834 -0.892866 0
M  V30 13 C -1.000756 0.249900 -0.699730 0
M  V30 14 O -1.554338 -0.450857 0.364241 0
M  V30 15 C -2.538141 -1.312964 -0.095648 0
M  V30 16 C -3.301959 -2.158501 0.618320 0
M  V30 17 C -3.101617 -2.209052 2.082315 0
M  V30 18 C -2.828891 -1.082348 2.871688 0
M  V30 19 N -2.704318 -1.502735 4.163247 0
M  V30 20 C -2.884794 -2.845296 4.234384 0
M  V30 21 N -2.869391 -3.753032 5.237965 0
M  V30 22 C -3.096937 -5.066374 4.943817 0
M  V30 23 C -3.345112 -5.519514 3.656029 0
M  V30 24 C -3.366843 -4.626219 2.623303 0
M  V30 25 C -3.132992 -3.290882 2.939390 0
M  V30 26 C -2.597155 -1.128175 -1.563424 0
M  V30 27 O -3.035012 -2.070250 -2.292151 0
M  V30 28 C -2.060061 0.269894 -1.730644 0
M  V30 29 C -1.606524 0.556477 -3.088289 0
M  V30 30 O -2.027910 1.593659 -3.670571 0
M  V30 31 O -0.780323 -0.026437 -4.001635 0
M  V30 32 C -0.499026 0.463842 -5.283369 0
M  V30 33 C -1.038856 -0.603501 -6.252747 0
M  V30 34 C 0.973407 0.619042 -5.484775 0
M  V30 35 H 2.006015 -2.351996 0.399960 0
M  V30 36 H 0.719323 -1.664031 -0.582667 0
M  V30 37 H 0.472114 -2.074321 1.216550 0
M  V30 38 H 3.028962 -0.929425 2.293201 0
M  V30 39 H 3.974041 -0.022502 4.496529 0
M  V30 40 H 5.205052 -0.247893 3.244041 0
M  V30 41 H 5.250143 1.934419 5.414283 0
M  V30 42 H 6.500861 1.662055 4.173073 0
M  V30 43 H 5.985091 -0.761612 5.173120 0
M  V30 44 H 2.903140 3.306186 1.622293 0
M  V30 45 H 1.228954 2.994640 -0.066824 0
M  V30 46 H -4.045034 -2.790040 0.145466 0
M  V30 47 H -2.730170 -0.047931 2.526576 0
M  V30 48 H -2.497042 -0.896504 5.012722 0
M  V30 49 H -3.078564 -5.780333 5.780443 0
M  V30 50 H -3.511145 -6.597859 3.552831 0
M  V30 51 H -3.555626 -4.959307 1.633180 0
M  V30 52 H -2.896450 0.934298 -1.457833 0
M  V30 53 H -0.993053 1.424339 -5.537341 0
M  V30 54 H -0.513647 -1.545503 -6.010769 0
M  V30 55 H -0.920205 -0.278885 -7.298968 0
M  V30 56 H -2.105168 -0.735094 -5.935816 0
M  V30 57 H 1.257997 1.387737 -6.239636 0
M  V30 58 H 1.364273 -0.390021 -5.765198 0
M  V30 59 H 1.468331 0.856881 -4.523648 0
M  V30 END ATOM
M  V30 BEGIN BOND
M  V30 1 1 1 2
M  V30 2 2 2 3
M  V30 3 1 3 4
M  V30 4 1 4 5
M  V30 5 1 5 6
M  V30 6 1 6 7
M  V30 7 1 7 8
M  V30 8 2 4 9
M  V30 9 1 9 10
M  V30 10 2 10 11
M  V30 11 1 11 12
M  V30 12 2 12 13
M  V30 13 1 13 14
M  V30 14 1 14 15
M  V30 15 2 15 16
M  V30 16 1 16 17
M  V30 17 2 17 18
M  V30 18 1 18 19
M  V30 19 1 19 20
M  V30 20 2 20 21
M  V30 21 1 21 22
M  V30 22 2 22 23
M  V30 23 1 23 24
M  V30 24 2 24 25
M  V30 25 1 15 26
M  V30 26 2 26 27
M  V30 27 1 26 28
M  V30 28 1 28 29
M  V30 29 2 29 30
M  V30 30 1 29 31
M  V30 31 1 31 32
M  V30 32 1 32 33
M  V30 33 1 32 34
M  V30 34 1 11 2
M  V30 35 1 28 13
M  V30 36 1 25 17
M  V30 37 1 25 20
M  V30 38 1 1 35
M  V30 39 1 1 36
M  V30 40 1 1 37
M  V30 41 1 3 38
M  V30 42 1 6 39
M  V30 43 1 6 40
M  V30 44 1 7 41
M  V30 45 1 7 42
M  V30 46 1 8 43
M  V30 47 1 9 44
M  V30 48 1 10 45
M  V30 49 1 16 46
M  V30 50 1 18 47
M  V30 51 1 19 48
M  V30 52 1 22 49
M  V30 53 1 23 50
M  V30 54 1 24 51
M  V30 55 1 28 52
M  V30 56 1 32 53
M  V30 57 1 33 54
M  V30 58 1 33 55
M  V30 59 1 33 56
M  V30 60 1 34 57
M  V30 61 1 34 58
M  V30 62 1 34 59
M  V30 END BOND
M  V30 END CTAB
M  END
>  <Dataset>  (112) 
ChEMBL_Kinases

>  <Ligand_Instance>  (112) 
nan

>  <PDB_ID>  (112) 
nan

>  <Standardized_SMILES>  (112) 
Cc1cc(OCCO)ccc1/N=C1\O/C(=C\c2c[nH]c3ncccc23)C(=O)C1C(=O)OC(C)C

>  <Name>  (112) 
nan

>  <Pocket>  (112) 
nan

>  <ATP_Site>  (112) 
nan

>  <Peripheral>  (112) 
nan

>  <Num_H_Atoms_ProtBoundConf>  (112) 
nan

>  <Num_Resolved_Atoms>  (112) 
nan

>  <Num_Not_Resolved_Atoms>  (112) 
nan

$$$$
CHEMBL3670784
     RDKit          3D

  0  0  0  0  0  0  0  0  0  0999 V3000
M  V30 BEGIN CTAB
M  V30 COUNTS 45 48 0 0 0
M  V30 BEGIN ATOM
M  V30 1 O -0.443400 3.099509 3.682439 0
M  V30 2 C -0.058706 1.888799 3.657587 0
M  V30 3 C 0.932595 1.013219 4.382375 0
M  V30 4 C 1.421252 0.154304 3.245048 0
M  V30 5 N 2.629505 -0.242607 3.061108 0
M  V30 6 C 3.020418 -1.056729 1.956706 0
M  V30 7 C 2.003964 -1.980219 1.400117 0
M  V30 8 C 1.367671 -1.542111 0.109489 0
M  V30 9 C 2.087734 -2.067926 -1.119492 0
M  V30 10 C 3.253420 -1.127867 -1.349244 0
M  V30 11 C 4.187809 -1.267179 -0.169151 0
M  V30 12 C 3.740530 -0.253012 0.875299 0
M  V30 13 O 0.280729 -0.078803 2.493556 0
M  V30 14 C -0.657339 0.940735 2.700431 0
M  V30 15 C -1.878596 1.072720 2.154537 0
M  V30 16 C -2.368858 0.069493 1.217499 0
M  V30 17 C -2.077088 -1.248817 1.468110 0
M  V30 18 N -2.627020 -2.001547 0.475766 0
M  V30 19 C -3.273223 -1.202490 -0.419981 0
M  V30 20 N -3.966956 -1.407819 -1.554355 0
M  V30 21 C -4.473072 -0.315927 -2.183367 0
M  V30 22 C -4.327447 0.990598 -1.743363 0
M  V30 23 C -3.607026 1.207187 -0.564602 0
M  V30 24 C -3.105298 0.081331 0.052258 0
M  V30 25 H 1.743664 1.577388 4.847168 0
M  V30 26 H 0.361721 0.376259 5.092576 0
M  V30 27 H 3.845913 -1.720243 2.363882 0
M  V30 28 H 2.430934 -3.006968 1.180626 0
M  V30 29 H 1.213818 -2.162400 2.146315 0
M  V30 30 H 1.273232 -0.460388 -0.023574 0
M  V30 31 H 0.349478 -1.980628 0.068658 0
M  V30 32 H 2.380337 -3.115915 -1.019194 0
M  V30 33 H 1.390925 -1.943204 -1.984447 0
M  V30 34 H 2.788200 -0.097748 -1.349209 0
M  V30 35 H 3.725326 -1.225552 -2.325104 0
M  V30 36 H 5.249567 -1.127762 -0.447356 0
M  V30 37 H 4.112453 -2.315451 0.192883 0
M  V30 38 H 3.147912 0.567282 0.475760 0
M  V30 39 H 4.689209 0.109873 1.350346 0
M  V30 40 H -2.503117 1.911499 2.399931 0
M  V30 41 H -1.540380 -1.845063 2.223293 0
M  V30 42 H -2.640795 -3.047105 0.285846 0
M  V30 43 H -5.016256 -0.587746 -3.088250 0
M  V30 44 H -4.766793 1.795367 -2.313158 0
M  V30 45 H -3.468113 2.200656 -0.185619 0
M  V30 END ATOM
M  V30 BEGIN BOND
M  V30 1 2 1 2
M  V30 2 1 2 3
M  V30 3 1 3 4
M  V30 4 2 4 5
M  V30 5 1 5 6
M  V30 6 1 6 7
M  V30 7 1 7 8
M  V30 8 1 8 9
M  V30 9 1 9 10
M  V30 10 1 10 11
M  V30 11 1 11 12
M  V30 12 1 4 13
M  V30 13 1 13 14
M  V30 14 2 14 15
M  V30 15 1 15 16
M  V30 16 2 16 17
M  V30 17 1 17 18
M  V30 18 1 18 19
M  V30 19 2 19 20
M  V30 20 1 20 21
M  V30 21 2 21 22
M  V30 22 1 22 23
M  V30 23 2 23 24
M  V30 24 1 14 2
M  V30 25 1 24 16
M  V30 26 1 12 6
M  V30 27 1 24 19
M  V30 28 1 3 25
M  V30 29 1 3 26
M  V30 30 1 6 27
M  V30 31 1 7 28
M  V30 32 1 7 29
M  V30 33 1 8 30
M  V30 34 1 8 31
M  V30 35 1 9 32
M  V30 36 1 9 33
M  V30 37 1 10 34
M  V30 38 1 10 35
M  V30 39 1 11 36
M  V30 40 1 11 37
M  V30 41 1 12 38
M  V30 42 1 12 39
M  V30 43 1 15 40
M  V30 44 1 17 41
M  V30 45 1 18 42
M  V30 46 1 21 43
M  V30 47 1 22 44
M  V30 48 1 23 45
M  V30 END BOND
M  V30 END CTAB
M  END
>  <Dataset>  (113) 
ChEMBL_Kinases

>  <Ligand_Instance>  (113) 
nan

>  <PDB_ID>  (113) 
nan

>  <Standardized_SMILES>  (113) 
O=C1C/C(=N/C2CCCCCC2)O/C1=C\c1c[nH]c2ncccc12

>  <Name>  (113) 
nan

>  <Pocket>  (113) 
nan

>  <ATP_Site>  (113) 
nan

>  <Peripheral>  (113) 
nan

>  <Num_H_Atoms_ProtBoundConf>  (113) 
nan

>  <Num_Resolved_Atoms>  (113) 
nan

>  <Num_Not_Resolved_Atoms>  (113) 
nan

$$$$
CHEMBL3670786
     RDKit          3D

  0  0  0  0  0  0  0  0  0  0999 V3000
M  V30 BEGIN CTAB
M  V30 COUNTS 39 43 0 0 0
M  V30 BEGIN ATOM
M  V30 1 O 1.299099 0.845463 5.120168 0
M  V30 2 C 1.794633 0.215092 4.124452 0
M  V30 3 C 3.103713 -0.236087 3.517994 0
M  V30 4 C 2.826508 -0.036410 2.070449 0
M  V30 5 N 3.554984 0.394170 1.067075 0
M  V30 6 C 2.934086 0.456864 -0.230927 0
M  V30 7 C 2.905804 -0.442929 -1.274310 0
M  V30 8 C 2.211294 -0.102253 -2.408761 0
M  V30 9 C 1.547842 1.089312 -2.548799 0
M  V30 10 N 0.823157 1.580540 -3.585114 0
M  V30 11 N 0.388443 2.788313 -3.207309 0
M  V30 12 C 0.816494 3.056357 -1.987144 0
M  V30 13 C 1.570178 2.008764 -1.495992 0
M  V30 14 C 2.274412 1.675034 -0.331351 0
M  V30 15 O 1.484635 -0.432058 1.936719 0
M  V30 16 C 0.829652 -0.286860 3.181631 0
M  V30 17 C -0.466611 -0.637126 3.166824 0
M  V30 18 C -1.211259 -1.138625 1.992597 0
M  V30 19 C -1.069425 -0.717567 0.677838 0
M  V30 20 N -1.924491 -1.416912 -0.114562 0
M  V30 21 C -2.600668 -2.269414 0.680454 0
M  V30 22 N -3.567492 -3.188377 0.388262 0
M  V30 23 C -4.048851 -3.897498 1.432888 0
M  V30 24 C -3.684405 -3.806092 2.747949 0
M  V30 25 C -2.708494 -2.874203 3.026107 0
M  V30 26 C -2.180511 -2.121045 1.997470 0
M  V30 27 H 3.195426 -1.336360 3.671697 0
M  V30 28 H 3.958725 0.338784 3.871785 0
M  V30 29 H 3.467236 -1.331301 -1.022659 0
M  V30 30 H 2.240931 -0.867637 -3.179293 0
M  V30 31 H 0.628567 1.119061 -4.509850 0
M  V30 32 H 0.639283 3.959722 -1.386523 0
M  V30 33 H 2.196881 2.487634 0.382917 0
M  V30 34 H -0.924467 -0.505148 4.155718 0
M  V30 35 H -0.399994 0.040199 0.295525 0
M  V30 36 H -2.051587 -1.323362 -1.163668 0
M  V30 37 H -4.809063 -4.598484 1.105312 0
M  V30 38 H -4.110750 -4.405752 3.527949 0
M  V30 39 H -2.346948 -2.724613 4.052596 0
M  V30 END ATOM
M  V30 BEGIN BOND
M  V30 1 2 1 2
M  V30 2 1 2 3
M  V30 3 1 3 4
M  V30 4 2 4 5
M  V30 5 1 5 6
M  V30 6 2 6 7
M  V30 7 1 7 8
M  V30 8 2 8 9
M  V30 9 1 9 10
M  V30 10 1 10 11
M  V30 11 2 11 12
M  V30 12 1 12 13
M  V30 13 2 13 14
M  V30 14 1 4 15
M  V30 15 1 15 16
M  V30 16 2 16 17
M  V30 17 1 17 18
M  V30 18 2 18 19
M  V30 19 1 19 20
M  V30 20 1 20 21
M  V30 21 2 21 22
M  V30 22 1 22 23
M  V30 23 2 23 24
M  V30 24 1 24 25
M  V30 25 2 25 26
M  V30 26 1 16 2
M  V30 27 1 26 18
M  V30 28 1 14 6
M  V30 29 1 26 21
M  V30 30 1 13 9
M  V30 31 1 3 27
M  V30 32 1 3 28
M  V30 33 1 7 29
M  V30 34 1 8 30
M  V30 35 1 10 31
M  V30 36 1 12 32
M  V30 37 1 14 33
M  V30 38 1 17 34
M  V30 39 1 19 35
M  V30 40 1 20 36
M  V30 41 1 23 37
M  V30 42 1 24 38
M  V30 43 1 25 39
M  V30 END BOND
M  V30 END CTAB
M  END
>  <Dataset>  (114) 
ChEMBL_Kinases

>  <Ligand_Instance>  (114) 
nan

>  <PDB_ID>  (114) 
nan

>  <Standardized_SMILES>  (114) 
O=C1C/C(=N/c2ccc3[nH]ncc3c2)O/C1=C\c1c[nH]c2ncccc12

>  <Name>  (114) 
nan

>  <Pocket>  (114) 
nan

>  <ATP_Site>  (114) 
nan

>  <Peripheral>  (114) 
nan

>  <Num_H_Atoms_ProtBoundConf>  (114) 
nan

>  <Num_Resolved_Atoms>  (114) 
nan

>  <Num_Not_Resolved_Atoms>  (114) 
nan

$$$$
CHEMBL3670774
     RDKit          3D

  0  0  0  0  0  0  0  0  0  0999 V3000
M  V30 BEGIN CTAB
M  V30 COUNTS 51 54 0 0 0
M  V30 BEGIN ATOM
M  V30 1 C -0.339671 1.318214 6.481664 0
M  V30 2 C 0.234479 -0.062616 6.288720 0
M  V30 3 O -0.181950 -0.720339 5.129521 0
M  V30 4 C 0.020508 -0.277319 3.845821 0
M  V30 5 O 0.630442 0.797720 3.872651 0
M  V30 6 C -0.392630 -0.924934 2.614742 0
M  V30 7 C -0.160990 -0.448360 1.408636 0
M  V30 8 N 0.502004 0.736773 0.936402 0
M  V30 9 C 1.936070 0.637663 0.927489 0
M  V30 10 C 2.592483 1.157925 -0.317393 0
M  V30 11 C 2.049099 2.520506 -0.711785 0
M  V30 12 C 2.320701 3.577033 0.345057 0
M  V30 13 C 0.547743 2.326654 -0.904720 0
M  V30 14 C -0.032886 2.014055 0.463959 0
M  V30 15 O -0.671650 -1.287675 0.457949 0
M  V30 16 C -1.294189 -2.415077 1.033762 0
M  V30 17 C -1.863076 -3.373088 0.315219 0
M  V30 18 C -1.821870 -3.217750 -1.127330 0
M  V30 19 C -2.166829 -2.078332 -1.812790 0
M  V30 20 N -1.986811 -2.226307 -3.132201 0
M  V30 21 C -1.521032 -3.476401 -3.289226 0
M  V30 22 N -1.154408 -4.157344 -4.391637 0
M  V30 23 C -0.696022 -5.418682 -4.286962 0
M  V30 24 C -0.562205 -6.109505 -3.092716 0
M  V30 25 C -0.933716 -5.429427 -1.930945 0
M  V30 26 C -1.402876 -4.124611 -2.081768 0
M  V30 27 C -1.114960 -2.185335 2.486832 0
M  V30 28 O -1.540723 -2.977933 3.333200 0
M  V30 29 H -0.106363 1.688304 7.480786 0
M  V30 30 H -1.439494 1.309401 6.339866 0
M  V30 31 H 0.048301 2.054646 5.738521 0
M  V30 32 H -0.102317 -0.670149 7.164294 0
M  V30 33 H 1.352661 -0.021877 6.379957 0
M  V30 34 H 2.301267 -0.416211 1.046054 0
M  V30 35 H 2.373677 1.168807 1.806109 0
M  V30 36 H 3.686574 1.176621 -0.128998 0
M  V30 37 H 2.388438 0.504582 -1.207127 0
M  V30 38 H 2.520671 2.834268 -1.631987 0
M  V30 39 H 2.294800 3.133623 1.373574 0
M  V30 40 H 1.469047 4.280511 0.282750 0
M  V30 41 H 3.294999 4.054575 0.167310 0
M  V30 42 H 0.061516 3.238477 -1.307656 0
M  V30 43 H 0.450782 1.436481 -1.560484 0
M  V30 44 H -1.135565 1.968522 0.339776 0
M  V30 45 H 0.226073 2.846083 1.148778 0
M  V30 46 H -2.296596 -4.168748 0.922045 0
M  V30 47 H -2.535850 -1.184916 -1.343512 0
M  V30 48 H -2.168238 -1.531669 -3.917187 0
M  V30 49 H -0.401714 -5.954508 -5.205574 0
M  V30 50 H -0.184106 -7.129560 -3.062719 0
M  V30 51 H -0.845896 -5.919479 -0.962068 0
M  V30 END ATOM
M  V30 BEGIN BOND
M  V30 1 1 1 2
M  V30 2 1 2 3
M  V30 3 1 3 4
M  V30 4 2 4 5
M  V30 5 1 4 6
M  V30 6 2 6 7
M  V30 7 1 7 8
M  V30 8 1 8 9
M  V30 9 1 9 10
M  V30 10 1 10 11
M  V30 11 1 11 12
M  V30 12 1 11 13
M  V30 13 1 13 14
M  V30 14 1 7 15
M  V30 15 1 15 16
M  V30 16 2 16 17
M  V30 17 1 17 18
M  V30 18 2 18 19
M  V30 19 1 19 20
M  V30 20 1 20 21
M  V30 21 2 21 22
M  V30 22 1 22 23
M  V30 23 2 23 24
M  V30 24 1 24 25
M  V30 25 2 25 26
M  V30 26 1 16 27
M  V30 27 2 27 28
M  V30 28 1 27 6
M  V30 29 1 14 8
M  V30 30 1 26 18
M  V30 31 1 26 21
M  V30 32 1 1 29
M  V30 33 1 1 30
M  V30 34 1 1 31
M  V30 35 1 2 32
M  V30 36 1 2 33
M  V30 37 1 9 34
M  V30 38 1 9 35
M  V30 39 1 10 36
M  V30 40 1 10 37
M  V30 41 1 11 38
M  V30 42 1 12 39
M  V30 43 1 12 40
M  V30 44 1 12 41
M  V30 45 1 13 42
M  V30 46 1 13 43
M  V30 47 1 14 44
M  V30 48 1 14 45
M  V30 49 1 17 46
M  V30 50 1 19 47
M  V30 51 1 20 48
M  V30 52 1 23 49
M  V30 53 1 24 50
M  V30 54 1 25 51
M  V30 END BOND
M  V30 END CTAB
M  END
>  <Dataset>  (115) 
ChEMBL_Kinases

>  <Ligand_Instance>  (115) 
nan

>  <PDB_ID>  (115) 
nan

>  <Standardized_SMILES>  (115) 
CCOC(=O)C1=C(N2CCC(C)CC2)O/C(=C\c2c[nH]c3ncccc23)C1=O

>  <Name>  (115) 
nan

>  <Pocket>  (115) 
nan

>  <ATP_Site>  (115) 
nan

>  <Peripheral>  (115) 
nan

>  <Num_H_Atoms_ProtBoundConf>  (115) 
nan

>  <Num_Resolved_Atoms>  (115) 
nan

>  <Num_Not_Resolved_Atoms>  (115) 
nan

$$$$
CHEMBL3664627
     RDKit          3D

  0  0  0  0  0  0  0  0  0  0999 V3000
M  V30 BEGIN CTAB
M  V30 COUNTS 46 49 0 0 0
M  V30 BEGIN ATOM
M  V30 1 C 1.194251 -4.143189 2.631491 0
M  V30 2 C 1.801277 -3.076663 1.769009 0
M  V30 3 C 2.583632 -2.044963 2.526755 0
M  V30 4 C 1.754705 -1.298441 3.543334 0
M  V30 5 O 2.629750 -0.375610 4.162356 0
M  V30 6 C 3.090680 -1.045514 1.504485 0
M  V30 7 O 1.951227 -0.489089 0.871842 0
M  V30 8 C 2.075914 0.480141 -0.135954 0
M  V30 9 C 3.340891 0.888430 -0.506386 0
M  V30 10 C 3.561573 1.838537 -1.489918 0
M  V30 11 C 2.458357 2.382664 -2.108063 0
M  V30 12 C 1.184007 1.982990 -1.747055 0
M  V30 13 C 0.089197 2.538992 -2.377254 0
M  V30 14 C -1.159012 2.106378 -1.980652 0
M  V30 15 C -1.365892 1.157216 -0.997490 0
M  V30 16 C -2.731502 0.774741 -0.658604 0
M  V30 17 N -3.869279 1.246172 -1.202382 0
M  V30 18 N -4.914088 0.668449 -0.645040 0
M  V30 19 C -4.458784 -0.197706 0.280941 0
M  V30 20 C -5.213081 -1.012026 1.098653 0
M  V30 21 C -4.515641 -1.833238 1.988476 0
M  V30 22 C -3.136653 -1.773529 1.987697 0
M  V30 23 C -2.460653 -0.920932 1.126460 0
M  V30 24 N -3.115602 -0.123535 0.263438 0
M  V30 25 N -0.273055 0.640137 -0.408073 0
M  V30 26 C 0.980314 1.034946 -0.764920 0
M  V30 27 H 1.033618 -5.056558 2.008891 0
M  V30 28 H 1.802813 -4.424641 3.490509 0
M  V30 29 H 0.161454 -3.784954 2.891621 0
M  V30 30 H 1.031846 -2.545552 1.183961 0
M  V30 31 H 2.503164 -3.538803 1.044559 0
M  V30 32 H 3.427747 -2.532239 3.023019 0
M  V30 33 H 0.977898 -0.666385 3.074850 0
M  V30 34 H 1.277892 -1.938745 4.283450 0
M  V30 35 H 3.558871 -0.768010 4.219820 0
M  V30 36 H 3.666761 -1.647666 0.747429 0
M  V30 37 H 3.766776 -0.281445 1.934125 0
M  V30 38 H 4.231545 0.464520 -0.023424 0
M  V30 39 H 4.577001 2.116402 -1.735115 0
M  V30 40 H 2.638509 3.125352 -2.876555 0
M  V30 41 H 0.196350 3.285992 -3.153495 0
M  V30 42 H -2.026356 2.540525 -2.473291 0
M  V30 43 H -6.294783 -1.017100 1.055601 0
M  V30 44 H -5.127375 -2.468607 2.625450 0
M  V30 45 H -2.626519 -2.423016 2.689601 0
M  V30 46 H -1.371449 -0.890898 1.143749 0
M  V30 END ATOM
M  V30 BEGIN BOND
M  V30 1 1 1 2
M  V30 2 1 2 3
M  V30 3 1 3 4
M  V30 4 1 4 5
M  V30 5 1 3 6
M  V30 6 1 6 7
M  V30 7 1 7 8
M  V30 8 2 8 9
M  V30 9 1 9 10
M  V30 10 2 10 11
M  V30 11 1 11 12
M  V30 12 2 12 13
M  V30 13 1 13 14
M  V30 14 2 14 15
M  V30 15 1 15 16
M  V30 16 2 16 17
M  V30 17 1 17 18
M  V30 18 2 18 19
M  V30 19 1 19 20
M  V30 20 2 20 21
M  V30 21 1 21 22
M  V30 22 2 22 23
M  V30 23 1 23 24
M  V30 24 1 15 25
M  V30 25 2 25 26
M  V30 26 1 26 8
M  V30 27 1 26 12
M  V30 28 1 24 16
M  V30 29 1 24 19
M  V30 30 1 1 27
M  V30 31 1 1 28
M  V30 32 1 1 29
M  V30 33 1 2 30
M  V30 34 1 2 31
M  V30 35 1 3 32
M  V30 36 1 4 33
M  V30 37 1 4 34
M  V30 38 1 5 35
M  V30 39 1 6 36
M  V30 40 1 6 37
M  V30 41 1 9 38
M  V30 42 1 10 39
M  V30 43 1 11 40
M  V30 44 1 13 41
M  V30 45 1 14 42
M  V30 46 1 20 43
M  V30 47 1 21 44
M  V30 48 1 22 45
M  V30 49 1 23 46
M  V30 END BOND
M  V30 END CTAB
M  END
>  <Dataset>  (116) 
ChEMBL_Kinases

>  <Ligand_Instance>  (116) 
nan

>  <PDB_ID>  (116) 
nan

>  <Standardized_SMILES>  (116) 
CCC(CO)COc1cccc2ccc(-c3nnc4ccccn34)nc12

>  <Name>  (116) 
nan

>  <Pocket>  (116) 
nan

>  <ATP_Site>  (116) 
nan

>  <Peripheral>  (116) 
nan

>  <Num_H_Atoms_ProtBoundConf>  (116) 
nan

>  <Num_Resolved_Atoms>  (116) 
nan

>  <Num_Not_Resolved_Atoms>  (116) 
nan

$$$$
CHEMBL3664626
     RDKit          3D

  0  0  0  0  0  0  0  0  0  0999 V3000
M  V30 BEGIN CTAB
M  V30 COUNTS 51 55 0 0 0
M  V30 BEGIN ATOM
M  V30 1 N -0.483456 -2.162818 1.781854 0
M  V30 2 C -0.418427 -3.471232 1.182452 0
M  V30 3 C -0.155729 -3.386989 -0.294057 0
M  V30 4 C 1.151487 -2.691852 -0.565503 0
M  V30 5 O 1.086292 -1.380836 -0.027118 0
M  V30 6 C 2.186898 -0.507924 -0.142255 0
M  V30 7 C 3.323921 -0.951169 -0.784984 0
M  V30 8 C 4.451217 -0.170292 -0.946766 0
M  V30 9 C 4.429464 1.114531 -0.437202 0
M  V30 10 C 3.284166 1.566234 0.212204 0
M  V30 11 C 3.283190 2.866023 0.718578 0
M  V30 12 C 2.132468 3.282942 1.356210 0
M  V30 13 C 1.014547 2.489501 1.509125 0
M  V30 14 C -0.149868 3.032859 2.200457 0
M  V30 15 N -0.272690 4.263718 2.731858 0
M  V30 16 N -1.469023 4.403595 3.278195 0
M  V30 17 C -2.151682 3.263084 3.113126 0
M  V30 18 C -3.434111 2.948059 3.516926 0
M  V30 19 C -3.888590 1.681745 3.208705 0
M  V30 20 C -3.066896 0.789540 2.522332 0
M  V30 21 C -1.804519 1.202346 2.164993 0
M  V30 22 N -1.322256 2.418060 2.442056 0
M  V30 23 N 1.072226 1.236347 0.997534 0
M  V30 24 C 2.164115 0.773976 0.366540 0
M  V30 25 C -1.255527 -2.641636 -1.021867 0
M  V30 26 C -2.384760 -3.642870 -1.006460 0
M  V30 27 C -1.647177 -4.909453 -1.431907 0
M  V30 28 C -0.236968 -4.740318 -0.932198 0
M  V30 29 H 0.428485 -1.864509 2.217020 0
M  V30 30 H -1.194703 -2.212393 2.545306 0
M  V30 31 H 0.486869 -3.972238 1.622339 0
M  V30 32 H -1.307761 -4.090290 1.388669 0
M  V30 33 H 1.984316 -3.256085 -0.085922 0
M  V30 34 H 1.380593 -2.675368 -1.641132 0
M  V30 35 H 3.365325 -1.958703 -1.194638 0
M  V30 36 H 5.336632 -0.533762 -1.454400 0
M  V30 37 H 5.277042 1.805637 -0.518311 0
M  V30 38 H 4.137500 3.550763 0.632220 0
M  V30 39 H 2.097486 4.300023 1.766579 0
M  V30 40 H -4.039915 3.670176 4.048101 0
M  V30 41 H -4.893451 1.363685 3.497279 0
M  V30 42 H -3.376590 -0.200068 2.262771 0
M  V30 43 H -1.132288 0.553679 1.634870 0
M  V30 44 H -1.490339 -1.706769 -0.480794 0
M  V30 45 H -0.905495 -2.412998 -2.034765 0
M  V30 46 H -2.776345 -3.710639 0.021507 0
M  V30 47 H -3.169703 -3.385295 -1.744235 0
M  V30 48 H -2.124554 -5.769726 -0.953853 0
M  V30 49 H -1.711082 -4.952674 -2.548472 0
M  V30 50 H -0.011712 -5.507603 -0.159787 0
M  V30 51 H 0.449084 -4.836724 -1.808522 0
M  V30 END ATOM
M  V30 BEGIN BOND
M  V30 1 1 1 2
M  V30 2 1 2 3
M  V30 3 1 3 4
M  V30 4 1 4 5
M  V30 5 1 5 6
M  V30 6 2 6 7
M  V30 7 1 7 8
M  V30 8 2 8 9
M  V30 9 1 9 10
M  V30 10 2 10 11
M  V30 11 1 11 12
M  V30 12 2 12 13
M  V30 13 1 13 14
M  V30 14 2 14 15
M  V30 15 1 15 16
M  V30 16 2 16 17
M  V30 17 1 17 18
M  V30 18 2 18 19
M  V30 19 1 19 20
M  V30 20 2 20 21
M  V30 21 1 21 22
M  V30 22 1 13 23
M  V30 23 2 23 24
M  V30 24 1 3 25
M  V30 25 1 25 26
M  V30 26 1 26 27
M  V30 27 1 27 28
M  V30 28 1 28 3
M  V30 29 1 24 6
M  V30 30 1 24 10
M  V30 31 1 22 14
M  V30 32 1 22 17
M  V30 33 1 1 29
M  V30 34 1 1 30
M  V30 35 1 2 31
M  V30 36 1 2 32
M  V30 37 1 4 33
M  V30 38 1 4 34
M  V30 39 1 7 35
M  V30 40 1 8 36
M  V30 41 1 9 37
M  V30 42 1 11 38
M  V30 43 1 12 39
M  V30 44 1 18 40
M  V30 45 1 19 41
M  V30 46 1 20 42
M  V30 47 1 21 43
M  V30 48 1 25 44
M  V30 49 1 25 45
M  V30 50 1 26 46
M  V30 51 1 26 47
M  V30 52 1 27 48
M  V30 53 1 27 49
M  V30 54 1 28 50
M  V30 55 1 28 51
M  V30 END BOND
M  V30 END CTAB
M  END
>  <Dataset>  (117) 
ChEMBL_Kinases

>  <Ligand_Instance>  (117) 
nan

>  <PDB_ID>  (117) 
nan

>  <Standardized_SMILES>  (117) 
NCC1(COc2cccc3ccc(-c4nnc5ccccn45)nc23)CCCC1

>  <Name>  (117) 
nan

>  <Pocket>  (117) 
nan

>  <ATP_Site>  (117) 
nan

>  <Peripheral>  (117) 
nan

>  <Num_H_Atoms_ProtBoundConf>  (117) 
nan

>  <Num_Resolved_Atoms>  (117) 
nan

>  <Num_Not_Resolved_Atoms>  (117) 
nan

$$$$
CHEMBL3664625
     RDKit          3D

  0  0  0  0  0  0  0  0  0  0999 V3000
M  V30 BEGIN CTAB
M  V30 COUNTS 46 50 0 0 0
M  V30 BEGIN ATOM
M  V30 1 C -0.906800 -4.434633 -0.385061 0
M  V30 2 C 0.092229 -3.494864 -0.386111 0
M  V30 3 C -0.014414 -2.123286 -0.209114 0
M  V30 4 O 0.816838 -1.073621 -0.182954 0
M  V30 5 C 2.178301 -0.928206 -0.314155 0
M  V30 6 C 2.914926 -1.678486 0.770066 0
M  V30 7 C 4.392355 -1.281615 0.582169 0
M  V30 8 N 5.141933 -1.459877 1.790712 0
M  V30 9 C 4.473571 -2.322714 2.726811 0
M  V30 10 C 3.096742 -1.806149 3.066735 0
M  V30 11 O 2.496116 -1.149388 1.994965 0
M  V30 12 C -1.342774 -1.707118 -0.007778 0
M  V30 13 N -1.733029 -0.456278 0.178280 0
M  V30 14 C -2.978080 -0.007650 0.364557 0
M  V30 15 C -3.209226 1.418168 0.564863 0
M  V30 16 N -4.412153 1.995793 0.727277 0
M  V30 17 N -4.248543 3.315144 0.884030 0
M  V30 18 C -2.932170 3.555230 0.818272 0
M  V30 19 C -2.120866 4.664627 0.901204 0
M  V30 20 C -0.752440 4.714238 0.808126 0
M  V30 21 C -0.090425 3.493351 0.604336 0
M  V30 22 C -0.924737 2.399549 0.524192 0
M  V30 23 N -2.260781 2.374131 0.617539 0
M  V30 24 C -4.016211 -0.909428 0.373902 0
M  V30 25 C -3.725819 -2.244860 0.189832 0
M  V30 26 C -2.403968 -2.587162 0.007219 0
M  V30 27 C -2.172127 -3.934616 -0.180611 0
M  V30 28 H -0.599431 -5.452859 -0.540652 0
M  V30 29 H 1.129940 -3.770130 -0.542752 0
M  V30 30 H 2.511816 0.144011 -0.188980 0
M  V30 31 H 2.586319 -1.211547 -1.307267 0
M  V30 32 H 2.854724 -2.767478 0.705920 0
M  V30 33 H 4.753302 -1.868512 -0.272314 0
M  V30 34 H 4.404924 -0.203868 0.318523 0
M  V30 35 H 5.466668 -0.596698 2.241086 0
M  V30 36 H 5.077824 -2.332028 3.656490 0
M  V30 37 H 4.385818 -3.352191 2.328177 0
M  V30 38 H 2.474175 -2.682451 3.321774 0
M  V30 39 H 3.151791 -1.196059 3.978734 0
M  V30 40 H -2.593675 5.650429 1.061131 0
M  V30 41 H -0.170575 5.621960 0.883268 0
M  V30 42 H 0.982912 3.425881 0.517441 0
M  V30 43 H -0.369334 1.458785 0.363223 0
M  V30 44 H -5.030246 -0.612257 0.518006 0
M  V30 45 H -4.524477 -2.964655 0.194720 0
M  V30 46 H -2.962626 -4.667081 -0.177931 0
M  V30 END ATOM
M  V30 BEGIN BOND
M  V30 1 2 1 2
M  V30 2 1 2 3
M  V30 3 1 3 4
M  V30 4 1 4 5
M  V30 5 1 5 6
M  V30 6 1 6 7
M  V30 7 1 7 8
M  V30 8 1 8 9
M  V30 9 1 9 10
M  V30 10 1 10 11
M  V30 11 2 3 12
M  V30 12 1 12 13
M  V30 13 2 13 14
M  V30 14 1 14 15
M  V30 15 2 15 16
M  V30 16 1 16 17
M  V30 17 2 17 18
M  V30 18 1 18 19
M  V30 19 2 19 20
M  V30 20 1 20 21
M  V30 21 2 21 22
M  V30 22 1 22 23
M  V30 23 1 14 24
M  V30 24 2 24 25
M  V30 25 1 25 26
M  V30 26 2 26 27
M  V30 27 1 27 1
M  V30 28 1 11 6
M  V30 29 1 26 12
M  V30 30 1 23 15
M  V30 31 1 23 18
M  V30 32 1 1 28
M  V30 33 1 2 29
M  V30 34 1 5 30
M  V30 35 1 5 31
M  V30 36 1 6 32
M  V30 37 1 7 33
M  V30 38 1 7 34
M  V30 39 1 8 35
M  V30 40 1 9 36
M  V30 41 1 9 37
M  V30 42 1 10 38
M  V30 43 1 10 39
M  V30 44 1 19 40
M  V30 45 1 20 41
M  V30 46 1 21 42
M  V30 47 1 22 43
M  V30 48 1 24 44
M  V30 49 1 25 45
M  V30 50 1 27 46
M  V30 END BOND
M  V30 END CTAB
M  END
>  <Dataset>  (118) 
ChEMBL_Kinases

>  <Ligand_Instance>  (118) 
nan

>  <PDB_ID>  (118) 
nan

>  <Standardized_SMILES>  (118) 
c1cc(OCC2CNCCO2)c2nc(-c3nnc4ccccn34)ccc2c1

>  <Name>  (118) 
nan

>  <Pocket>  (118) 
nan

>  <ATP_Site>  (118) 
nan

>  <Peripheral>  (118) 
nan

>  <Num_H_Atoms_ProtBoundConf>  (118) 
nan

>  <Num_Resolved_Atoms>  (118) 
nan

>  <Num_Not_Resolved_Atoms>  (118) 
nan

$$$$
CHEMBL3664624
     RDKit          3D

  0  0  0  0  0  0  0  0  0  0999 V3000
M  V30 BEGIN CTAB
M  V30 COUNTS 55 59 0 0 0
M  V30 BEGIN ATOM
M  V30 1 C -0.537195 -1.288074 -3.071344 0
M  V30 2 O -0.897196 -1.836279 -1.867854 0
M  V30 3 C 0.007323 -2.687819 -1.290561 0
M  V30 4 C 1.339352 -2.029775 -1.002608 0
M  V30 5 O 1.234791 -0.929382 -0.121241 0
M  V30 6 C 2.439746 -0.277201 0.183782 0
M  V30 7 C 3.674940 -0.663365 -0.331132 0
M  V30 8 C 4.796238 0.057502 0.042132 0
M  V30 9 C 4.761568 1.139980 0.897455 0
M  V30 10 C 3.535915 1.520542 1.406337 0
M  V30 11 C 3.371853 2.584543 2.269363 0
M  V30 12 C 2.127832 2.949036 2.768796 0
M  V30 13 C 1.022860 2.217836 2.384632 0
M  V30 14 C -0.289005 2.591817 2.903234 0
M  V30 15 N -0.579261 3.601165 3.744948 0
M  V30 16 N -1.884421 3.606054 3.972875 0
M  V30 17 C -2.445837 2.592776 3.274303 0
M  V30 18 C -3.762553 2.180456 3.176885 0
M  V30 19 C -4.106922 1.092151 2.382185 0
M  V30 20 C -5.513133 0.631235 2.262003 0
M  V30 21 C -3.063631 0.466473 1.712188 0
M  V30 22 C -1.762089 0.910653 1.837204 0
M  V30 23 N -1.447000 1.968773 2.613249 0
M  V30 24 N 1.206264 1.184204 1.542116 0
M  V30 25 C 2.400623 0.815800 1.048128 0
M  V30 26 C -0.567416 -3.149178 0.032496 0
M  V30 27 C -0.293500 -4.632485 0.271164 0
M  V30 28 N -0.904342 -5.451721 -0.740637 0
M  V30 29 C -0.919428 -4.804410 -2.052931 0
M  V30 30 C 0.292920 -3.923706 -2.099996 0
M  V30 31 H -1.400006 -0.627266 -3.378056 0
M  V30 32 H -0.397136 -1.986225 -3.899244 0
M  V30 33 H 0.333643 -0.600948 -3.036854 0
M  V30 34 H 1.747086 -1.603834 -1.961890 0
M  V30 35 H 2.086587 -2.730454 -0.626422 0
M  V30 36 H 3.690763 -1.508225 -0.996778 0
M  V30 37 H 5.757215 -0.243802 -0.359160 0
M  V30 38 H 5.645642 1.690747 1.177947 0
M  V30 39 H 4.269406 3.125609 2.539922 0
M  V30 40 H 2.090968 3.791439 3.436111 0
M  V30 41 H -4.555089 2.694269 3.716063 0
M  V30 42 H -5.790155 0.096516 3.172704 0
M  V30 43 H -6.166781 1.504526 2.070072 0
M  V30 44 H -5.545965 -0.054964 1.372675 0
M  V30 45 H -3.340471 -0.369954 1.103513 0
M  V30 46 H -1.014288 0.367594 1.282743 0
M  V30 47 H -0.159906 -2.592199 0.899193 0
M  V30 48 H -1.668449 -3.026301 0.070663 0
M  V30 49 H -0.784444 -4.871722 1.243127 0
M  V30 50 H 0.790953 -4.835209 0.402457 0
M  V30 51 H -1.894209 -5.664012 -0.505886 0
M  V30 52 H -0.885350 -5.557431 -2.863679 0
M  V30 53 H -1.868220 -4.225311 -2.199385 0
M  V30 54 H 0.646145 -3.696375 -3.122108 0
M  V30 55 H 1.117846 -4.455007 -1.577650 0
M  V30 END ATOM
M  V30 BEGIN BOND
M  V30 1 1 1 2
M  V30 2 1 2 3
M  V30 3 1 3 4
M  V30 4 1 4 5
M  V30 5 1 5 6
M  V30 6 2 6 7
M  V30 7 1 7 8
M  V30 8 2 8 9
M  V30 9 1 9 10
M  V30 10 2 10 11
M  V30 11 1 11 12
M  V30 12 2 12 13
M  V30 13 1 13 14
M  V30 14 2 14 15
M  V30 15 1 15 16
M  V30 16 2 16 17
M  V30 17 1 17 18
M  V30 18 2 18 19
M  V30 19 1 19 20
M  V30 20 1 19 21
M  V30 21 2 21 22
M  V30 22 1 22 23
M  V30 23 1 13 24
M  V30 24 2 24 25
M  V30 25 1 3 26
M  V30 26 1 26 27
M  V30 27 1 27 28
M  V30 28 1 28 29
M  V30 29 1 29 30
M  V30 30 1 30 3
M  V30 31 1 25 6
M  V30 32 1 25 10
M  V30 33 1 23 14
M  V30 34 1 23 17
M  V30 35 1 1 31
M  V30 36 1 1 32
M  V30 37 1 1 33
M  V30 38 1 4 34
M  V30 39 1 4 35
M  V30 40 1 7 36
M  V30 41 1 8 37
M  V30 42 1 9 38
M  V30 43 1 11 39
M  V30 44 1 12 40
M  V30 45 1 18 41
M  V30 46 1 20 42
M  V30 47 1 20 43
M  V30 48 1 20 44
M  V30 49 1 21 45
M  V30 50 1 22 46
M  V30 51 1 26 47
M  V30 52 1 26 48
M  V30 53 1 27 49
M  V30 54 1 27 50
M  V30 55 1 28 51
M  V30 56 1 29 52
M  V30 57 1 29 53
M  V30 58 1 30 54
M  V30 59 1 30 55
M  V30 END BOND
M  V30 END CTAB
M  END
>  <Dataset>  (119) 
ChEMBL_Kinases

>  <Ligand_Instance>  (119) 
nan

>  <PDB_ID>  (119) 
nan

>  <Standardized_SMILES>  (119) 
COC1(COc2cccc3ccc(-c4nnc5cc(C)ccn45)nc23)CCNCC1

>  <Name>  (119) 
nan

>  <Pocket>  (119) 
nan

>  <ATP_Site>  (119) 
nan

>  <Peripheral>  (119) 
nan

>  <Num_H_Atoms_ProtBoundConf>  (119) 
nan

>  <Num_Resolved_Atoms>  (119) 
nan

>  <Num_Not_Resolved_Atoms>  (119) 
nan

$$$$
CHEMBL3664623
     RDKit          3D

  0  0  0  0  0  0  0  0  0  0999 V3000
M  V30 BEGIN CTAB
M  V30 COUNTS 45 49 0 0 0
M  V30 BEGIN ATOM
M  V30 1 F 3.952191 -4.650032 0.339838 0
M  V30 2 C 2.892870 -3.768441 0.247138 0 CFG=2
M  V30 3 C 1.738322 -4.351009 -0.537839 0
M  V30 4 N 1.766612 -4.087006 -1.941914 0
M  V30 5 C 1.954464 -2.664477 -2.226666 0
M  V30 6 C 3.353860 -2.339029 -1.746498 0
M  V30 7 C 3.303239 -2.415504 -0.215972 0
M  V30 8 O 2.335682 -1.487271 0.183199 0
M  V30 9 C 2.538592 -0.291586 0.816682 0
M  V30 10 C 3.768312 0.222801 1.144232 0
M  V30 11 C 4.007533 1.433406 1.785774 0
M  V30 12 C 2.903485 2.197773 2.128943 0
M  V30 13 C 1.638532 1.729686 1.824227 0
M  V30 14 C 0.413211 2.371513 2.109375 0
M  V30 15 C -0.743708 1.658049 1.695077 0
M  V30 16 C -0.957040 0.370398 1.021852 0
M  V30 17 C -2.373804 0.427999 1.000146 0
M  V30 18 N -2.722125 -0.199962 -0.170385 0
M  V30 19 N -4.066131 -0.223888 -0.253888 0
M  V30 20 C -4.520360 0.391676 0.877773 0
M  V30 21 C -5.767188 0.685925 1.445626 0
M  V30 22 C -5.858790 1.320839 2.686577 0
M  V30 23 Cl -7.465205 1.639890 3.292334 0
M  V30 24 C -4.698333 1.671910 3.382978 0
M  V30 25 C -3.485344 1.376830 2.807348 0
M  V30 26 N -3.477799 0.775799 1.623632 0
M  V30 27 N 0.248193 0.321580 1.040520 0
M  V30 28 C 1.479955 0.495850 1.175274 0
M  V30 29 H 2.488596 -3.662266 1.298797 0
M  V30 30 H 1.779901 -5.448954 -0.414665 0
M  V30 31 H 0.741737 -4.055648 -0.132447 0
M  V30 32 H 0.816108 -4.327606 -2.315264 0
M  V30 33 H 1.848055 -2.510327 -3.318721 0
M  V30 34 H 1.246574 -2.017578 -1.700539 0
M  V30 35 H 3.698764 -1.332946 -2.025665 0
M  V30 36 H 4.013133 -3.130288 -2.163725 0
M  V30 37 H 4.334588 -2.189589 0.138976 0
M  V30 38 H 4.653330 -0.327596 0.899772 0
M  V30 39 H 4.974462 1.823237 2.032896 0
M  V30 40 H 2.943340 3.177374 2.637358 0
M  V30 41 H 0.623747 3.323449 2.611918 0
M  V30 42 H -1.439798 2.519190 2.030109 0
M  V30 43 H -6.602366 0.371963 0.838684 0
M  V30 44 H -4.799171 2.163593 4.338028 0
M  V30 45 H -2.651393 1.637274 3.429254 0
M  V30 END ATOM
M  V30 BEGIN BOND
M  V30 1 1 1 2
M  V30 2 1 2 3
M  V30 3 1 3 4
M  V30 4 1 4 5
M  V30 5 1 5 6
M  V30 6 1 6 7
M  V30 7 1 7 8
M  V30 8 1 8 9
M  V30 9 2 9 10
M  V30 10 1 10 11
M  V30 11 2 11 12
M  V30 12 1 12 13
M  V30 13 2 13 14
M  V30 14 1 14 15
M  V30 15 2 15 16
M  V30 16 1 16 17
M  V30 17 2 17 18
M  V30 18 1 18 19
M  V30 19 2 19 20
M  V30 20 1 20 21
M  V30 21 2 21 22
M  V30 22 1 22 23
M  V30 23 1 22 24
M  V30 24 2 24 25
M  V30 25 1 25 26
M  V30 26 1 16 27
M  V30 27 2 27 28
M  V30 28 1 7 2
M  V30 29 1 28 9
M  V30 30 1 28 13
M  V30 31 1 26 17
M  V30 32 1 26 20
M  V30 33 1 2 29 CFG=1
M  V30 34 1 3 30
M  V30 35 1 3 31
M  V30 36 1 4 32
M  V30 37 1 5 33
M  V30 38 1 5 34
M  V30 39 1 6 35
M  V30 40 1 6 36
M  V30 41 1 7 37
M  V30 42 1 10 38
M  V30 43 1 11 39
M  V30 44 1 12 40
M  V30 45 1 14 41
M  V30 46 1 15 42
M  V30 47 1 21 43
M  V30 48 1 24 44
M  V30 49 1 25 45
M  V30 END BOND
M  V30 END CTAB
M  END
>  <Dataset>  (120) 
ChEMBL_Kinases

>  <Ligand_Instance>  (120) 
nan

>  <PDB_ID>  (120) 
nan

>  <Standardized_SMILES>  (120) 
F[C@@H]1CNCCC1Oc1cccc2ccc(-c3nnc4cc(Cl)ccn34)nc12

>  <Name>  (120) 
nan

>  <Pocket>  (120) 
nan

>  <ATP_Site>  (120) 
nan

>  <Peripheral>  (120) 
nan

>  <Num_H_Atoms_ProtBoundConf>  (120) 
nan

>  <Num_Resolved_Atoms>  (120) 
nan

>  <Num_Not_Resolved_Atoms>  (120) 
nan

$$$$
CHEMBL3664622
     RDKit          3D

  0  0  0  0  0  0  0  0  0  0999 V3000
M  V30 BEGIN CTAB
M  V30 COUNTS 50 53 0 0 0
M  V30 BEGIN ATOM
M  V30 1 C -1.172960 -6.519768 0.281515 0
M  V30 2 C -0.503849 -5.352361 -0.356947 0
M  V30 3 C -0.583027 -4.102489 0.238454 0
M  V30 4 C 0.023449 -2.988626 -0.319368 0
M  V30 5 N 0.716835 -3.094882 -1.473872 0
M  V30 6 C 1.391658 -2.217342 -2.230116 0
M  V30 7 C 1.571717 -0.790155 -1.985206 0
M  V30 8 C 2.299121 -0.028091 -2.870351 0
M  V30 9 C 2.558184 1.325600 -2.780441 0
M  V30 10 C 2.016435 1.948348 -1.675630 0
M  V30 11 C 2.246823 3.305725 -1.538382 0
M  V30 12 C 1.725170 3.972767 -0.449486 0
M  V30 13 C 0.988213 3.247861 0.464973 0
M  V30 14 C 0.760275 1.879437 0.319660 0
M  V30 15 O 0.002607 1.232373 1.296669 0
M  V30 16 C -0.520271 1.915974 2.393496 0
M  V30 17 C -1.311604 1.071583 3.351348 0
M  V30 18 C -1.786329 2.013605 4.465878 0
M  V30 19 C -2.471120 0.448190 2.627565 0
M  V30 20 C -0.507438 0.021093 4.033372 0
M  V30 21 N 0.105715 -0.923113 3.141562 0
M  V30 22 C 1.282156 1.212463 -0.769604 0
M  V30 23 N 1.066043 -0.120861 -0.920997 0
M  V30 24 N 1.879466 -2.909213 -3.273507 0
M  V30 25 N 1.515470 -4.167958 -3.159748 0
M  V30 26 C 0.777393 -4.320793 -2.030374 0
M  V30 27 C 0.201433 -5.473925 -1.536321 0
M  V30 28 H -0.613379 -7.440284 -0.053590 0
M  V30 29 H -2.253665 -6.573909 0.014093 0
M  V30 30 H -1.077476 -6.386642 1.365045 0
M  V30 31 H -1.112550 -3.944115 1.149042 0
M  V30 32 H -0.005462 -1.993566 0.099676 0
M  V30 33 H 2.715667 -0.546059 -3.734477 0
M  V30 34 H 3.146759 1.824409 -3.540748 0
M  V30 35 H 2.835125 3.855598 -2.279139 0
M  V30 36 H 1.862121 5.031225 -0.273759 0
M  V30 37 H 0.574048 3.759703 1.322872 0
M  V30 38 H -1.112362 2.780180 2.033892 0
M  V30 39 H 0.358386 2.376052 2.922851 0
M  V30 40 H -2.135381 2.977451 4.077769 0
M  V30 41 H -2.573408 1.485989 5.074927 0
M  V30 42 H -0.899541 2.155075 5.129476 0
M  V30 43 H -3.290885 1.172514 2.499838 0
M  V30 44 H -2.056859 0.086716 1.644039 0
M  V30 45 H -2.795196 -0.480047 3.162885 0
M  V30 46 H 0.222450 0.502651 4.721097 0
M  V30 47 H -1.202593 -0.538647 4.692912 0
M  V30 48 H -0.417826 -1.074938 2.276948 0
M  V30 49 H 0.178731 -1.836723 3.641478 0
M  V30 50 H 0.283255 -6.419515 -2.022003 0
M  V30 END ATOM
M  V30 BEGIN BOND
M  V30 1 1 1 2
M  V30 2 1 2 3
M  V30 3 2 3 4
M  V30 4 1 4 5
M  V30 5 1 5 6
M  V30 6 1 6 7
M  V30 7 2 7 8
M  V30 8 1 8 9
M  V30 9 2 9 10
M  V30 10 1 10 11
M  V30 11 2 11 12
M  V30 12 1 12 13
M  V30 13 2 13 14
M  V30 14 1 14 15
M  V30 15 1 15 16
M  V30 16 1 16 17
M  V30 17 1 17 18
M  V30 18 1 17 19
M  V30 19 1 17 20
M  V30 20 1 20 21
M  V30 21 1 14 22
M  V30 22 2 22 23
M  V30 23 2 6 24
M  V30 24 1 24 25
M  V30 25 2 25 26
M  V30 26 1 26 27
M  V30 27 2 27 2
M  V30 28 1 26 5
M  V30 29 1 23 7
M  V30 30 1 22 10
M  V30 31 1 1 28
M  V30 32 1 1 29
M  V30 33 1 1 30
M  V30 34 1 3 31
M  V30 35 1 4 32
M  V30 36 1 8 33
M  V30 37 1 9 34
M  V30 38 1 11 35
M  V30 39 1 12 36
M  V30 40 1 13 37
M  V30 41 1 16 38
M  V30 42 1 16 39
M  V30 43 1 18 40
M  V30 44 1 18 41
M  V30 45 1 18 42
M  V30 46 1 19 43
M  V30 47 1 19 44
M  V30 48 1 19 45
M  V30 49 1 20 46
M  V30 50 1 20 47
M  V30 51 1 21 48
M  V30 52 1 21 49
M  V30 53 1 27 50
M  V30 END BOND
M  V30 END CTAB
M  END
>  <Dataset>  (121) 
ChEMBL_Kinases

>  <Ligand_Instance>  (121) 
nan

>  <PDB_ID>  (121) 
nan

>  <Standardized_SMILES>  (121) 
Cc1ccn2c(-c3ccc4cccc(OCC(C)(C)CN)c4n3)nnc2c1

>  <Name>  (121) 
nan

>  <Pocket>  (121) 
nan

>  <ATP_Site>  (121) 
nan

>  <Peripheral>  (121) 
nan

>  <Num_H_Atoms_ProtBoundConf>  (121) 
nan

>  <Num_Resolved_Atoms>  (121) 
nan

>  <Num_Not_Resolved_Atoms>  (121) 
nan

$$$$
CHEMBL3664621
     RDKit          3D

  0  0  0  0  0  0  0  0  0  0999 V3000
M  V30 BEGIN CTAB
M  V30 COUNTS 51 55 0 0 0
M  V30 BEGIN ATOM
M  V30 1 C -1.139816 -3.656922 2.617039 0
M  V30 2 N 0.098744 -3.806481 1.953775 0
M  V30 3 C 1.137303 -4.498290 2.620271 0
M  V30 4 C 2.424670 -3.688885 2.428756 0
M  V30 5 C 2.041093 -2.251772 2.146972 0
M  V30 6 F 2.934711 -1.342251 2.662969 0
M  V30 7 C 1.997213 -2.079661 0.646791 0
M  V30 8 O 1.483096 -0.837228 0.259459 0
M  V30 9 C 2.109686 0.187789 -0.373426 0
M  V30 10 C 3.420789 0.258525 -0.795378 0
M  V30 11 C 3.993756 1.336806 -1.435236 0
M  V30 12 C 3.210987 2.458365 -1.689364 0
M  V30 13 C 1.898504 2.404968 -1.274527 0
M  V30 14 C 1.145625 3.544782 -1.545374 0
M  V30 15 C -0.173079 3.485572 -1.126074 0
M  V30 16 C -0.763715 2.419319 -0.486223 0
M  V30 17 C -2.159385 2.489021 -0.100328 0
M  V30 18 N -2.986410 3.532688 -0.305164 0
M  V30 19 N -4.193212 3.275040 0.165648 0
M  V30 20 C -4.174049 2.036012 0.695565 0
M  V30 21 C -5.213865 1.368945 1.293644 0
M  V30 22 C -4.927089 0.093654 1.759381 0
M  V30 23 C -3.652525 -0.402449 1.594282 0
M  V30 24 C -2.666150 0.350986 0.974752 0
M  V30 25 N -2.910591 1.571751 0.519927 0
M  V30 26 N 0.014447 1.347563 -0.252489 0
M  V30 27 C 1.316409 1.310730 -0.625053 0
M  V30 28 C 1.326631 -3.198356 -0.088950 0
M  V30 29 C 0.110408 -3.782726 0.545198 0
M  V30 30 H -0.929500 -3.637655 3.724314 0
M  V30 31 H -1.509662 -2.620910 2.414607 0
M  V30 32 H -1.905618 -4.411961 2.421247 0
M  V30 33 H 1.272006 -5.562265 2.341528 0
M  V30 34 H 0.916662 -4.479129 3.708771 0
M  V30 35 H 3.090550 -3.775978 3.309054 0
M  V30 36 H 2.950870 -4.160363 1.570794 0
M  V30 37 H 1.014783 -2.050899 2.530241 0
M  V30 38 H 3.060584 -2.108081 0.329655 0
M  V30 39 H 4.038608 -0.607078 -0.603165 0
M  V30 40 H 5.053322 1.293362 -1.732203 0
M  V30 41 H 3.622778 3.309005 -2.182155 0
M  V30 42 H 1.533535 4.423344 -2.042814 0
M  V30 43 H -0.792878 4.349454 -1.316344 0
M  V30 44 H -6.185334 1.796384 1.398528 0
M  V30 45 H -5.754287 -0.434068 2.233601 0
M  V30 46 H -3.522948 -1.392041 1.982893 0
M  V30 47 H -1.694598 -0.063829 0.864484 0
M  V30 48 H 2.060530 -4.021876 -0.309258 0
M  V30 49 H 1.034843 -2.797934 -1.083327 0
M  V30 50 H -0.001610 -4.834283 0.178202 0
M  V30 51 H -0.809119 -3.267398 0.199161 0
M  V30 END ATOM
M  V30 BEGIN BOND
M  V30 1 1 1 2
M  V30 2 1 2 3
M  V30 3 1 3 4
M  V30 4 1 4 5
M  V30 5 1 5 6
M  V30 6 1 5 7
M  V30 7 1 7 8
M  V30 8 1 8 9
M  V30 9 2 9 10
M  V30 10 1 10 11
M  V30 11 2 11 12
M  V30 12 1 12 13
M  V30 13 2 13 14
M  V30 14 1 14 15
M  V30 15 2 15 16
M  V30 16 1 16 17
M  V30 17 2 17 18
M  V30 18 1 18 19
M  V30 19 2 19 20
M  V30 20 1 20 21
M  V30 21 2 21 22
M  V30 22 1 22 23
M  V30 23 2 23 24
M  V30 24 1 24 25
M  V30 25 1 16 26
M  V30 26 2 26 27
M  V30 27 1 7 28
M  V30 28 1 28 29
M  V30 29 1 29 2
M  V30 30 1 27 9
M  V30 31 1 27 13
M  V30 32 1 25 17
M  V30 33 1 25 20
M  V30 34 1 1 30
M  V30 35 1 1 31
M  V30 36 1 1 32
M  V30 37 1 3 33
M  V30 38 1 3 34
M  V30 39 1 4 35
M  V30 40 1 4 36
M  V30 41 1 5 37
M  V30 42 1 7 38
M  V30 43 1 10 39
M  V30 44 1 11 40
M  V30 45 1 12 41
M  V30 46 1 14 42
M  V30 47 1 15 43
M  V30 48 1 21 44
M  V30 49 1 22 45
M  V30 50 1 23 46
M  V30 51 1 24 47
M  V30 52 1 28 48
M  V30 53 1 28 49
M  V30 54 1 29 50
M  V30 55 1 29 51
M  V30 END BOND
M  V30 END CTAB
M  END
>  <Dataset>  (122) 
ChEMBL_Kinases

>  <Ligand_Instance>  (122) 
nan

>  <PDB_ID>  (122) 
nan

>  <Standardized_SMILES>  (122) 
CN1CCC(F)C(Oc2cccc3ccc(-c4nnc5ccccn45)nc23)CC1

>  <Name>  (122) 
nan

>  <Pocket>  (122) 
nan

>  <ATP_Site>  (122) 
nan

>  <Peripheral>  (122) 
nan

>  <Num_H_Atoms_ProtBoundConf>  (122) 
nan

>  <Num_Resolved_Atoms>  (122) 
nan

>  <Num_Not_Resolved_Atoms>  (122) 
nan

$$$$
CHEMBL3664620
     RDKit          3D

  0  0  0  0  0  0  0  0  0  0999 V3000
M  V30 BEGIN CTAB
M  V30 COUNTS 55 59 0 0 0
M  V30 BEGIN ATOM
M  V30 1 C -1.937923 -1.835016 -2.072820 0
M  V30 2 O -1.280392 -1.567873 -0.945551 0
M  V30 3 C -0.902833 -2.543447 -0.073063 0
M  V30 4 C -0.188050 -1.770133 1.065196 0
M  V30 5 O 0.842659 -1.014932 0.739040 0
M  V30 6 C 2.009753 -0.728358 0.270222 0
M  V30 7 C 3.007753 -1.480517 -0.303950 0
M  V30 8 C 4.223761 -1.038627 -0.767398 0
M  V30 9 C 4.422399 0.315290 -0.620216 0
M  V30 10 C 3.515351 1.190931 -0.064931 0
M  V30 11 C 3.851019 2.523103 0.017629 0
M  V30 12 C 2.931270 3.383901 0.576007 0
M  V30 13 C 1.734652 2.862824 1.017058 0
M  V30 14 C 0.735642 3.743460 1.614172 0
M  V30 15 N 0.859306 5.070203 1.789949 0
M  V30 16 N -0.235123 5.562978 2.362051 0
M  V30 17 C -1.092406 4.548189 2.566574 0
M  V30 18 C -2.356678 4.497184 3.119605 0
M  V30 19 C -3.034087 3.298573 3.212233 0
M  V30 20 C -2.401275 2.168913 2.734530 0
M  V30 21 C -1.150880 2.292734 2.200329 0
M  V30 22 N -0.474403 3.433278 2.098016 0
M  V30 23 N 1.463348 1.553205 0.909816 0
M  V30 24 C 2.306802 0.638639 0.375981 0
M  V30 25 C -2.104003 -3.128786 0.576982 0
M  V30 26 C -2.741021 -4.337431 0.046825 0
M  V30 27 C -2.091116 -5.655478 0.398707 0
M  V30 28 N -0.686130 -5.556219 0.168981 0
M  V30 29 C -0.488500 -4.821435 -1.050678 0
M  V30 30 C 0.069047 -3.474111 -0.661081 0
M  V30 31 H -1.482267 -2.503323 -2.817424 0
M  V30 32 H -2.044393 -0.852422 -2.639663 0
M  V30 33 H -2.987600 -2.152691 -1.928863 0
M  V30 34 H 0.160500 -2.535037 1.836582 0
M  V30 35 H -0.975741 -1.228600 1.676654 0
M  V30 36 H 2.810380 -2.531169 -0.397717 0
M  V30 37 H 4.943179 -1.711277 -1.204011 0
M  V30 38 H 5.362616 0.718096 -0.967930 0
M  V30 39 H 4.797130 2.882293 -0.340269 0
M  V30 40 H 3.100822 4.439777 0.684322 0
M  V30 41 H -2.783231 5.447769 3.474495 0
M  V30 42 H -4.029382 3.270064 3.649631 0
M  V30 43 H -2.927209 1.214239 2.802268 0
M  V30 44 H -0.710925 1.373356 1.844904 0
M  V30 45 H -1.914711 -3.315720 1.660594 0
M  V30 46 H -2.892709 -2.317696 0.609240 0
M  V30 47 H -3.099702 -4.317534 -1.001683 0
M  V30 48 H -3.731028 -4.410044 0.611276 0
M  V30 49 H -2.354214 -5.997364 1.419760 0
M  V30 50 H -2.470939 -6.406949 -0.355253 0
M  V30 51 H -0.216288 -5.115837 0.990624 0
M  V30 52 H 0.362533 -5.351964 -1.572889 0
M  V30 53 H -1.298008 -4.821000 -1.763410 0
M  V30 54 H 0.893059 -3.770264 0.063937 0
M  V30 55 H 0.625267 -3.078680 -1.528144 0
M  V30 END ATOM
M  V30 BEGIN BOND
M  V30 1 1 1 2
M  V30 2 1 2 3
M  V30 3 1 3 4
M  V30 4 1 4 5
M  V30 5 1 5 6
M  V30 6 2 6 7
M  V30 7 1 7 8
M  V30 8 2 8 9
M  V30 9 1 9 10
M  V30 10 2 10 11
M  V30 11 1 11 12
M  V30 12 2 12 13
M  V30 13 1 13 14
M  V30 14 2 14 15
M  V30 15 1 15 16
M  V30 16 2 16 17
M  V30 17 1 17 18
M  V30 18 2 18 19
M  V30 19 1 19 20
M  V30 20 2 20 21
M  V30 21 1 21 22
M  V30 22 1 13 23
M  V30 23 2 23 24
M  V30 24 1 3 25
M  V30 25 1 25 26
M  V30 26 1 26 27
M  V30 27 1 27 28
M  V30 28 1 28 29
M  V30 29 1 29 30
M  V30 30 1 30 3
M  V30 31 1 24 6
M  V30 32 1 24 10
M  V30 33 1 22 14
M  V30 34 1 22 17
M  V30 35 1 1 31
M  V30 36 1 1 32
M  V30 37 1 1 33
M  V30 38 1 4 34
M  V30 39 1 4 35
M  V30 40 1 7 36
M  V30 41 1 8 37
M  V30 42 1 9 38
M  V30 43 1 11 39
M  V30 44 1 12 40
M  V30 45 1 18 41
M  V30 46 1 19 42
M  V30 47 1 20 43
M  V30 48 1 21 44
M  V30 49 1 25 45
M  V30 50 1 25 46
M  V30 51 1 26 47
M  V30 52 1 26 48
M  V30 53 1 27 49
M  V30 54 1 27 50
M  V30 55 1 28 51
M  V30 56 1 29 52
M  V30 57 1 29 53
M  V30 58 1 30 54
M  V30 59 1 30 55
M  V30 END BOND
M  V30 END CTAB
M  END
>  <Dataset>  (123) 
ChEMBL_Kinases

>  <Ligand_Instance>  (123) 
nan

>  <PDB_ID>  (123) 
nan

>  <Standardized_SMILES>  (123) 
COC1(COc2cccc3ccc(-c4nnc5ccccn45)nc23)CCCNCC1

>  <Name>  (123) 
nan

>  <Pocket>  (123) 
nan

>  <ATP_Site>  (123) 
nan

>  <Peripheral>  (123) 
nan

>  <Num_H_Atoms_ProtBoundConf>  (123) 
nan

>  <Num_Resolved_Atoms>  (123) 
nan

>  <Num_Not_Resolved_Atoms>  (123) 
nan

$$$$
CHEMBL3664619
     RDKit          3D

  0  0  0  0  0  0  0  0  0  0999 V3000
M  V30 BEGIN CTAB
M  V30 COUNTS 52 56 0 0 0
M  V30 BEGIN ATOM
M  V30 1 O -0.512506 -4.925937 2.081036 0
M  V30 2 C -0.380356 -3.600410 1.602580 0
M  V30 3 C 1.042350 -3.267785 1.308269 0
M  V30 4 O 1.141283 -1.926191 0.843675 0
M  V30 5 C 2.402289 -1.396266 0.497155 0
M  V30 6 C 3.523057 -2.225397 0.622614 0
M  V30 7 C 4.803749 -1.820483 0.313970 0
M  V30 8 C 4.969379 -0.527988 -0.140390 0
M  V30 9 C 3.861182 0.275894 -0.258904 0
M  V30 10 C 4.067968 1.562213 -0.714971 0
M  V30 11 C 2.938596 2.347900 -0.822629 0
M  V30 12 C 1.641168 1.982037 -0.524315 0
M  V30 13 C 0.575564 2.960618 -0.699328 0
M  V30 14 N 0.731640 4.232763 -1.151038 0
M  V30 15 N -0.457358 4.810023 -1.170099 0
M  V30 16 C -1.393586 3.948599 -0.741603 0
M  V30 17 C -2.748847 4.173646 -0.616487 0
M  V30 18 C -3.505942 3.119856 -0.148432 0
M  V30 19 C -2.837196 1.940385 0.150501 0
M  V30 20 C -1.480550 1.802745 -0.004406 0
M  V30 21 N -0.737385 2.806602 -0.453605 0
M  V30 22 N 1.502005 0.709083 -0.082151 0
M  V30 23 C 2.569289 -0.108729 0.044541 0
M  V30 24 C -0.971324 -2.726121 2.678720 0
M  V30 25 C -2.303139 -3.349987 3.050681 0
M  V30 26 C -3.268808 -2.956648 1.952774 0
M  V30 27 N -2.778009 -1.849156 1.191719 0
M  V30 28 C -1.924498 -2.261530 0.117452 0
M  V30 29 C -1.219095 -3.549962 0.355405 0
M  V30 30 H -0.197854 -5.012367 3.018117 0
M  V30 31 H 1.672281 -3.434399 2.201944 0
M  V30 32 H 1.430136 -3.902157 0.509041 0
M  V30 33 H 3.380694 -3.253427 0.985416 0
M  V30 34 H 5.624458 -2.517541 0.435843 0
M  V30 35 H 5.966158 -0.185719 -0.389805 0
M  V30 36 H 5.037725 1.939689 -0.972541 0
M  V30 37 H 3.110895 3.365221 -1.184474 0
M  V30 38 H -3.182836 5.129758 -0.874953 0
M  V30 39 H -4.573765 3.253073 -0.035042 0
M  V30 40 H -3.475218 1.150234 0.512158 0
M  V30 41 H -0.980675 0.880836 0.233768 0
M  V30 42 H -1.138008 -1.704943 2.254678 0
M  V30 43 H -0.309484 -2.591664 3.532807 0
M  V30 44 H -2.163919 -4.456075 3.040025 0
M  V30 45 H -2.644148 -3.099148 4.061875 0
M  V30 46 H -3.526095 -3.802250 1.291844 0
M  V30 47 H -4.219834 -2.620440 2.428847 0
M  V30 48 H -3.533366 -1.221252 0.839456 0
M  V30 49 H -2.577947 -2.411575 -0.771162 0
M  V30 50 H -1.184559 -1.468030 -0.153314 0
M  V30 51 H -0.496478 -3.682573 -0.504548 0
M  V30 52 H -1.904741 -4.431569 0.240975 0
M  V30 END ATOM
M  V30 BEGIN BOND
M  V30 1 1 1 2
M  V30 2 1 2 3
M  V30 3 1 3 4
M  V30 4 1 4 5
M  V30 5 2 5 6
M  V30 6 1 6 7
M  V30 7 2 7 8
M  V30 8 1 8 9
M  V30 9 2 9 10
M  V30 10 1 10 11
M  V30 11 2 11 12
M  V30 12 1 12 13
M  V30 13 2 13 14
M  V30 14 1 14 15
M  V30 15 2 15 16
M  V30 16 1 16 17
M  V30 17 2 17 18
M  V30 18 1 18 19
M  V30 19 2 19 20
M  V30 20 1 20 21
M  V30 21 1 12 22
M  V30 22 2 22 23
M  V30 23 1 2 24
M  V30 24 1 24 25
M  V30 25 1 25 26
M  V30 26 1 26 27
M  V30 27 1 27 28
M  V30 28 1 28 29
M  V30 29 1 29 2
M  V30 30 1 23 5
M  V30 31 1 23 9
M  V30 32 1 21 13
M  V30 33 1 21 16
M  V30 34 1 1 30
M  V30 35 1 3 31
M  V30 36 1 3 32
M  V30 37 1 6 33
M  V30 38 1 7 34
M  V30 39 1 8 35
M  V30 40 1 10 36
M  V30 41 1 11 37
M  V30 42 1 17 38
M  V30 43 1 18 39
M  V30 44 1 19 40
M  V30 45 1 20 41
M  V30 46 1 24 42
M  V30 47 1 24 43
M  V30 48 1 25 44
M  V30 49 1 25 45
M  V30 50 1 26 46
M  V30 51 1 26 47
M  V30 52 1 27 48
M  V30 53 1 28 49
M  V30 54 1 28 50
M  V30 55 1 29 51
M  V30 56 1 29 52
M  V30 END BOND
M  V30 END CTAB
M  END
>  <Dataset>  (124) 
ChEMBL_Kinases

>  <Ligand_Instance>  (124) 
nan

>  <PDB_ID>  (124) 
nan

>  <Standardized_SMILES>  (124) 
OC1(COc2cccc3ccc(-c4nnc5ccccn45)nc23)CCCNCC1

>  <Name>  (124) 
nan

>  <Pocket>  (124) 
nan

>  <ATP_Site>  (124) 
nan

>  <Peripheral>  (124) 
nan

>  <Num_H_Atoms_ProtBoundConf>  (124) 
nan

>  <Num_Resolved_Atoms>  (124) 
nan

>  <Num_Not_Resolved_Atoms>  (124) 
nan

$$$$
CHEMBL3664618
     RDKit          3D

  0  0  0  0  0  0  0  0  0  0999 V3000
M  V30 BEGIN CTAB
M  V30 COUNTS 62 66 0 0 0
M  V30 BEGIN ATOM
M  V30 1 C 2.284162 -3.579547 1.433234 0
M  V30 2 O 1.740523 -2.865894 0.405829 0
M  V30 3 C 0.428127 -2.521295 0.548671 0
M  V30 4 C 0.226851 -1.622533 1.733594 0
M  V30 5 O 0.801250 -0.421278 1.775577 0
M  V30 6 C 1.894374 0.299434 1.770027 0
M  V30 7 C 3.237783 0.008790 1.701572 0
M  V30 8 C 4.287617 0.904715 1.708044 0
M  V30 9 F 5.570663 0.481809 1.635600 0
M  V30 10 C 3.898717 2.224548 1.793477 0
M  V30 11 C 2.591108 2.647575 1.867700 0
M  V30 12 C 2.377561 3.998790 1.946890 0
M  V30 13 C 1.074362 4.437974 2.020345 0
M  V30 14 C 0.072627 3.497236 2.009516 0
M  V30 15 C -1.321087 3.919458 2.084508 0
M  V30 16 N -1.742926 5.193254 2.169328 0
M  V30 17 N -3.062182 5.249672 2.222341 0
M  V30 18 C -3.542818 3.992953 2.172031 0
M  V30 19 C -4.824629 3.476090 2.191367 0
M  V30 20 C -5.013505 2.113327 2.124003 0
M  V30 21 C -3.917819 1.299768 2.038863 0
M  V30 22 C -2.652443 1.874799 2.023239 0
M  V30 23 N -2.453011 3.208061 2.088561 0
M  V30 24 N 0.347032 2.190072 1.930405 0
M  V30 25 C 1.588758 1.667659 1.854994 0
M  V30 26 C -0.359703 -3.801299 0.812624 0
M  V30 27 C -0.146399 -4.865501 -0.201402 0
M  V30 28 C -1.119848 -4.785444 -1.362603 0
M  V30 29 N -0.829508 -3.587838 -2.071466 0
M  V30 30 C -1.199249 -3.552886 -3.449684 0
M  V30 31 C -0.377205 -4.480811 -4.299046 0
M  V30 32 O 0.967036 -4.118723 -4.201385 0
M  V30 33 C -1.279712 -2.453951 -1.322816 0
M  V30 34 C -0.103435 -1.812401 -0.671149 0
M  V30 35 H 2.278121 -3.092913 2.428310 0
M  V30 36 H 3.368229 -3.757840 1.134708 0
M  V30 37 H 1.892652 -4.606272 1.578882 0
M  V30 38 H -0.905396 -1.496873 1.852270 0
M  V30 39 H 0.458984 -2.270596 2.639713 0
M  V30 40 H 3.464059 -1.026595 1.638520 0
M  V30 41 H 4.704006 2.958733 1.801703 0
M  V30 42 H 3.197236 4.702618 1.952313 0
M  V30 43 H 0.844400 5.490269 2.084340 0
M  V30 44 H -5.668222 4.131125 2.258829 0
M  V30 45 H -5.986262 1.641332 2.133723 0
M  V30 46 H -4.054342 0.216347 1.984630 0
M  V30 47 H -1.821462 1.204762 1.955383 0
M  V30 48 H -1.450114 -3.612718 0.923716 0
M  V30 49 H -0.063549 -4.196662 1.825717 0
M  V30 50 H 0.859580 -4.903312 -0.644303 0
M  V30 51 H -0.316143 -5.861284 0.298234 0
M  V30 52 H -0.889297 -5.660918 -2.000207 0
M  V30 53 H -2.163376 -4.897616 -1.041843 0
M  V30 54 H -2.287918 -3.686833 -3.627185 0
M  V30 55 H -0.967388 -2.504783 -3.804364 0
M  V30 56 H -0.536197 -5.519884 -3.987241 0
M  V30 57 H -0.689120 -4.309104 -5.350323 0
M  V30 58 H 1.004007 -3.125734 -4.204678 0
M  V30 59 H -2.153750 -2.631649 -0.684558 0
M  V30 60 H -1.649698 -1.711939 -2.094329 0
M  V30 61 H -0.403159 -0.779847 -0.402854 0
M  V30 62 H 0.689865 -1.730634 -1.448187 0
M  V30 END ATOM
M  V30 BEGIN BOND
M  V30 1 1 1 2
M  V30 2 1 2 3
M  V30 3 1 3 4
M  V30 4 1 4 5
M  V30 5 1 5 6
M  V30 6 2 6 7
M  V30 7 1 7 8
M  V30 8 1 8 9
M  V30 9 2 8 10
M  V30 10 1 10 11
M  V30 11 2 11 12
M  V30 12 1 12 13
M  V30 13 2 13 14
M  V30 14 1 14 15
M  V30 15 2 15 16
M  V30 16 1 16 17
M  V30 17 2 17 18
M  V30 18 1 18 19
M  V30 19 2 19 20
M  V30 20 1 20 21
M  V30 21 2 21 22
M  V30 22 1 22 23
M  V30 23 1 14 24
M  V30 24 2 24 25
M  V30 25 1 3 26
M  V30 26 1 26 27
M  V30 27 1 27 28
M  V30 28 1 28 29
M  V30 29 1 29 30
M  V30 30 1 30 31
M  V30 31 1 31 32
M  V30 32 1 29 33
M  V30 33 1 33 34
M  V30 34 1 34 3
M  V30 35 1 25 6
M  V30 36 1 25 11
M  V30 37 1 23 15
M  V30 38 1 23 18
M  V30 39 1 1 35
M  V30 40 1 1 36
M  V30 41 1 1 37
M  V30 42 1 4 38
M  V30 43 1 4 39
M  V30 44 1 7 40
M  V30 45 1 10 41
M  V30 46 1 12 42
M  V30 47 1 13 43
M  V30 48 1 19 44
M  V30 49 1 20 45
M  V30 50 1 21 46
M  V30 51 1 22 47
M  V30 52 1 26 48
M  V30 53 1 26 49
M  V30 54 1 27 50
M  V30 55 1 27 51
M  V30 56 1 28 52
M  V30 57 1 28 53
M  V30 58 1 30 54
M  V30 59 1 30 55
M  V30 60 1 31 56
M  V30 61 1 31 57
M  V30 62 1 32 58
M  V30 63 1 33 59
M  V30 64 1 33 60
M  V30 65 1 34 61
M  V30 66 1 34 62
M  V30 END BOND
M  V30 END CTAB
M  END
>  <Dataset>  (125) 
ChEMBL_Kinases

>  <Ligand_Instance>  (125) 
nan

>  <PDB_ID>  (125) 
nan

>  <Standardized_SMILES>  (125) 
COC1(COc2cc(F)cc3ccc(-c4nnc5ccccn45)nc23)CCCN(CCO)CC1

>  <Name>  (125) 
nan

>  <Pocket>  (125) 
nan

>  <ATP_Site>  (125) 
nan

>  <Peripheral>  (125) 
nan

>  <Num_H_Atoms_ProtBoundConf>  (125) 
nan

>  <Num_Resolved_Atoms>  (125) 
nan

>  <Num_Not_Resolved_Atoms>  (125) 
nan

$$$$
CHEMBL3664617
     RDKit          3D

  0  0  0  0  0  0  0  0  0  0999 V3000
M  V30 BEGIN CTAB
M  V30 COUNTS 55 59 0 0 0
M  V30 BEGIN ATOM
M  V30 1 C -1.920353 -2.609255 2.562199 0
M  V30 2 O -1.192580 -1.957946 1.613647 0
M  V30 3 C -0.788605 -2.666803 0.515958 0
M  V30 4 C -0.004740 -1.636170 -0.336221 0
M  V30 5 O 1.012820 -1.154120 0.323031 0
M  V30 6 C 2.010934 -0.694141 0.967647 0
M  V30 7 C 3.074028 -1.442329 1.444401 0
M  V30 8 C 4.150630 -0.955395 2.136904 0
M  V30 9 F 5.164361 -1.737411 2.580467 0
M  V30 10 C 4.121000 0.414613 2.350693 0
M  V30 11 C 3.118628 1.258958 1.924462 0
M  V30 12 C 3.201228 2.602686 2.201255 0
M  V30 13 C 2.136423 3.334834 1.724521 0
M  V30 14 C 1.055730 2.815576 1.024683 0
M  V30 15 C 0.016812 3.744653 0.599703 0
M  V30 16 N -0.016231 5.065435 0.806249 0
M  V30 17 N -1.103921 5.591896 0.286345 0
M  V30 18 C -1.824813 4.612570 -0.284510 0
M  V30 19 C -3.025253 4.652255 -0.950586 0
M  V30 20 C -3.570176 3.496207 -1.453237 0
M  V30 21 C -2.828110 2.362647 -1.230662 0
M  V30 22 C -1.629233 2.340168 -0.562394 0
M  V30 23 N -1.110490 3.472180 -0.078504 0
M  V30 24 N 1.050012 1.491241 0.794445 0
M  V30 25 C 2.052678 0.682554 1.222918 0
M  V30 26 C 0.160931 -3.743144 0.895152 0
M  V30 27 C 0.888525 -4.350047 -0.277094 0
M  V30 28 C -0.065653 -4.990206 -1.260641 0
M  V30 29 N -1.197881 -5.475727 -0.554506 0
M  V30 30 C -2.248927 -4.581268 -0.264417 0
M  V30 31 C -1.967837 -3.126076 -0.269717 0
M  V30 32 H -2.881026 -3.021408 2.199408 0
M  V30 33 H -1.344408 -3.356032 3.147412 0
M  V30 34 H -2.215810 -1.838892 3.321987 0
M  V30 35 H -0.769000 -0.886033 -0.732479 0
M  V30 36 H 0.234574 -2.237247 -1.279192 0
M  V30 37 H 3.124707 -2.532170 1.283861 0
M  V30 38 H 4.940253 0.863276 2.891171 0
M  V30 39 H 4.012562 3.031381 2.733368 0
M  V30 40 H 2.160887 4.418232 1.924028 0
M  V30 41 H -3.549196 5.593699 -1.083340 0
M  V30 42 H -4.504661 3.441923 -1.986212 0
M  V30 43 H -3.211768 1.415940 -1.607684 0
M  V30 44 H -1.053967 1.446868 -0.391920 0
M  V30 45 H -0.316747 -4.586432 1.440851 0
M  V30 46 H 0.919882 -3.337378 1.581803 0
M  V30 47 H 1.514887 -5.167235 0.161354 0
M  V30 48 H 1.594050 -3.643248 -0.752580 0
M  V30 49 H -0.292433 -4.382656 -2.141554 0
M  V30 50 H 0.453687 -5.902935 -1.681730 0
M  V30 51 H -0.929445 -6.166955 0.149210 0
M  V30 52 H -3.042070 -4.748594 -1.057637 0
M  V30 53 H -2.783759 -4.840118 0.677946 0
M  V30 54 H -1.948764 -2.689298 -1.311931 0
M  V30 55 H -2.887289 -2.634059 0.168922 0
M  V30 END ATOM
M  V30 BEGIN BOND
M  V30 1 1 1 2
M  V30 2 1 2 3
M  V30 3 1 3 4
M  V30 4 1 4 5
M  V30 5 1 5 6
M  V30 6 2 6 7
M  V30 7 1 7 8
M  V30 8 1 8 9
M  V30 9 2 8 10
M  V30 10 1 10 11
M  V30 11 2 11 12
M  V30 12 1 12 13
M  V30 13 2 13 14
M  V30 14 1 14 15
M  V30 15 2 15 16
M  V30 16 1 16 17
M  V30 17 2 17 18
M  V30 18 1 18 19
M  V30 19 2 19 20
M  V30 20 1 20 21
M  V30 21 2 21 22
M  V30 22 1 22 23
M  V30 23 1 14 24
M  V30 24 2 24 25
M  V30 25 1 3 26
M  V30 26 1 26 27
M  V30 27 1 27 28
M  V30 28 1 28 29
M  V30 29 1 29 30
M  V30 30 1 30 31
M  V30 31 1 31 3
M  V30 32 1 25 6
M  V30 33 1 25 11
M  V30 34 1 23 15
M  V30 35 1 23 18
M  V30 36 1 1 32
M  V30 37 1 1 33
M  V30 38 1 1 34
M  V30 39 1 4 35
M  V30 40 1 4 36
M  V30 41 1 7 37
M  V30 42 1 10 38
M  V30 43 1 12 39
M  V30 44 1 13 40
M  V30 45 1 19 41
M  V30 46 1 20 42
M  V30 47 1 21 43
M  V30 48 1 22 44
M  V30 49 1 26 45
M  V30 50 1 26 46
M  V30 51 1 27 47
M  V30 52 1 27 48
M  V30 53 1 28 49
M  V30 54 1 28 50
M  V30 55 1 29 51
M  V30 56 1 30 52
M  V30 57 1 30 53
M  V30 58 1 31 54
M  V30 59 1 31 55
M  V30 END BOND
M  V30 END CTAB
M  END
>  <Dataset>  (126) 
ChEMBL_Kinases

>  <Ligand_Instance>  (126) 
nan

>  <PDB_ID>  (126) 
nan

>  <Standardized_SMILES>  (126) 
COC1(COc2cc(F)cc3ccc(-c4nnc5ccccn45)nc23)CCCNCC1

>  <Name>  (126) 
nan

>  <Pocket>  (126) 
nan

>  <ATP_Site>  (126) 
nan

>  <Peripheral>  (126) 
nan

>  <Num_H_Atoms_ProtBoundConf>  (126) 
nan

>  <Num_Resolved_Atoms>  (126) 
nan

>  <Num_Not_Resolved_Atoms>  (126) 
nan

$$$$
CHEMBL3664614
     RDKit          3D

  0  0  0  0  0  0  0  0  0  0999 V3000
M  V30 BEGIN CTAB
M  V30 COUNTS 59 63 0 0 0
M  V30 BEGIN ATOM
M  V30 1 C 1.543781 -1.560662 4.496767 0
M  V30 2 O 1.669629 -2.608742 3.624564 0
M  V30 3 C 1.867662 -2.203221 2.298131 0
M  V30 4 C 3.081978 -1.389780 2.105391 0
M  V30 5 O 3.436006 -0.905472 0.880547 0
M  V30 6 C 2.869155 -0.093730 -0.025470 0
M  V30 7 C 3.833914 0.029692 -1.037803 0
M  V30 8 C 3.598425 0.833078 -2.165485 0
M  V30 9 C 2.386621 1.460891 -2.187179 0
M  V30 10 N 1.920894 2.383617 -3.046277 0
M  V30 11 N 0.757628 2.801364 -2.642377 0
M  V30 12 C 0.322034 2.245223 -1.536292 0
M  V30 13 C -0.695179 2.368638 -0.463598 0
M  V30 14 C -1.155288 3.549832 0.071007 0
M  V30 15 C -1.950769 3.444478 1.210704 0
M  V30 16 C -2.269684 2.228388 1.776532 0
M  V30 17 C -3.041843 2.083350 2.910727 0
M  V30 18 C -3.311877 0.810579 3.418215 0
M  V30 19 C -2.822249 -0.328572 2.803107 0
M  V30 20 C -2.045405 -0.243109 1.663936 0
M  V30 21 O -1.500948 -1.265588 0.900850 0
M  V30 22 C -1.577756 -2.625706 1.127887 0
M  V30 23 C -1.060514 -3.406702 -0.051391 0
M  V30 24 F -1.094911 -4.771763 0.180173 0
M  V30 25 C -2.106984 -3.153505 -1.192480 0
M  V30 26 C -1.798339 -4.124268 -2.281880 0
M  V30 27 N -0.481110 -3.847821 -2.826001 0
M  V30 28 C 0.170045 -2.764814 -2.150618 0
M  V30 29 C 0.230121 -2.960837 -0.635642 0
M  V30 30 C -1.804194 1.063696 1.215930 0
M  V30 31 N -1.056756 1.243458 0.148768 0
M  V30 32 N 1.401297 1.414718 -1.302195 0
M  V30 33 C 1.713381 0.607682 -0.232709 0
M  V30 34 H 0.678300 -0.886721 4.257014 0
M  V30 35 H 1.228448 -2.024625 5.478128 0
M  V30 36 H 2.470560 -1.020581 4.745120 0
M  V30 37 H 1.883739 -3.131582 1.705281 0
M  V30 38 H 0.955707 -1.637756 2.041969 0
M  V30 39 H 4.006413 -1.895992 2.524554 0
M  V30 40 H 2.966194 -0.502619 2.835838 0
M  V30 41 H 4.828593 -0.416551 -1.136467 0
M  V30 42 H 4.281502 0.994161 -3.002690 0
M  V30 43 H -0.879091 4.470603 -0.412477 0
M  V30 44 H -2.337484 4.366029 1.674600 0
M  V30 45 H -3.435453 2.973161 3.401188 0
M  V30 46 H -3.913461 0.687659 4.308732 0
M  V30 47 H -2.995770 -1.341716 3.143231 0
M  V30 48 H -2.651253 -2.952891 1.253972 0
M  V30 49 H -1.039580 -2.970453 2.034863 0
M  V30 50 H -3.107083 -3.301030 -0.773456 0
M  V30 51 H -1.950564 -2.124240 -1.497083 0
M  V30 52 H -2.592546 -4.112807 -3.047582 0
M  V30 53 H -1.769773 -5.165993 -1.851439 0
M  V30 54 H -0.638342 -3.549825 -3.807043 0
M  V30 55 H -0.204771 -1.786559 -2.453118 0
M  V30 56 H 1.247053 -2.802709 -2.476778 0
M  V30 57 H 1.079387 -3.644241 -0.397377 0
M  V30 58 H 0.462779 -1.970508 -0.207205 0
M  V30 59 H 1.066601 0.418459 0.611934 0
M  V30 END ATOM
M  V30 BEGIN BOND
M  V30 1 1 1 2
M  V30 2 1 2 3
M  V30 3 1 3 4
M  V30 4 1 4 5
M  V30 5 1 5 6
M  V30 6 1 6 7
M  V30 7 2 7 8
M  V30 8 1 8 9
M  V30 9 2 9 10
M  V30 10 1 10 11
M  V30 11 2 11 12
M  V30 12 1 12 13
M  V30 13 2 13 14
M  V30 14 1 14 15
M  V30 15 2 15 16
M  V30 16 1 16 17
M  V30 17 2 17 18
M  V30 18 1 18 19
M  V30 19 2 19 20
M  V30 20 1 20 21
M  V30 21 1 21 22
M  V30 22 1 22 23
M  V30 23 1 23 24
M  V30 24 1 23 25
M  V30 25 1 25 26
M  V30 26 1 26 27
M  V30 27 1 27 28
M  V30 28 1 28 29
M  V30 29 1 20 30
M  V30 30 2 30 31
M  V30 31 1 12 32
M  V30 32 1 32 33
M  V30 33 2 33 6
M  V30 34 1 32 9
M  V30 35 1 31 13
M  V30 36 1 30 16
M  V30 37 1 29 23
M  V30 38 1 1 34
M  V30 39 1 1 35
M  V30 40 1 1 36
M  V30 41 1 3 37
M  V30 42 1 3 38
M  V30 43 1 4 39
M  V30 44 1 4 40
M  V30 45 1 7 41
M  V30 46 1 8 42
M  V30 47 1 14 43
M  V30 48 1 15 44
M  V30 49 1 17 45
M  V30 50 1 18 46
M  V30 51 1 19 47
M  V30 52 1 22 48
M  V30 53 1 22 49
M  V30 54 1 25 50
M  V30 55 1 25 51
M  V30 56 1 26 52
M  V30 57 1 26 53
M  V30 58 1 27 54
M  V30 59 1 28 55
M  V30 60 1 28 56
M  V30 61 1 29 57
M  V30 62 1 29 58
M  V30 63 1 33 59
M  V30 END BOND
M  V30 END CTAB
M  END
>  <Dataset>  (127) 
ChEMBL_Kinases

>  <Ligand_Instance>  (127) 
nan

>  <PDB_ID>  (127) 
nan

>  <Standardized_SMILES>  (127) 
COCCOc1ccc2nnc(-c3ccc4cccc(OCC5(F)CCNCC5)c4n3)n2c1

>  <Name>  (127) 
nan

>  <Pocket>  (127) 
nan

>  <ATP_Site>  (127) 
nan

>  <Peripheral>  (127) 
nan

>  <Num_H_Atoms_ProtBoundConf>  (127) 
nan

>  <Num_Resolved_Atoms>  (127) 
nan

>  <Num_Not_Resolved_Atoms>  (127) 
nan

$$$$
CHEMBL3664613
     RDKit          3D

  0  0  0  0  0  0  0  0  0  0999 V3000
M  V30 BEGIN CTAB
M  V30 COUNTS 52 56 0 0 0
M  V30 BEGIN ATOM
M  V30 1 C 0.514270 -3.902047 0.941398 0
M  V30 2 O 1.855697 -4.328550 1.059365 0
M  V30 3 C 2.930197 -3.454364 1.110034 0
M  V30 4 C 4.139538 -4.097782 1.231712 0
M  V30 5 C 5.308073 -3.349602 1.296054 0
M  V30 6 C 5.150954 -1.981925 1.230782 0
M  V30 7 N 6.108058 -1.025025 1.279207 0
M  V30 8 N 5.499903 0.141452 1.190142 0
M  V30 9 C 4.169334 0.006133 1.083466 0
M  V30 10 C 3.184975 1.072998 0.980364 0
M  V30 11 C 3.646611 2.387427 1.055777 0
M  V30 12 C 2.709383 3.390379 0.981072 0
M  V30 13 C 1.352050 3.116586 0.835051 0
M  V30 14 C 0.476477 4.168418 0.774779 0
M  V30 15 C -0.877277 3.948044 0.637686 0
M  V30 16 F -1.768403 4.948333 0.578377 0
M  V30 17 C -1.327151 2.629022 0.562410 0
M  V30 18 C -0.412238 1.600002 0.626536 0
M  V30 19 O -0.686253 0.244826 0.563394 0
M  V30 20 C -1.755828 -0.472900 0.447609 0
M  V30 21 C -2.947528 -1.272721 0.318597 0
M  V30 22 F -3.217714 -2.197801 1.296021 0
M  V30 23 C -4.236931 -0.403832 0.231811 0
M  V30 24 C -5.377264 -1.388114 0.373890 0
M  V30 25 N -5.075809 -2.713149 -0.055407 0
M  V30 26 C -4.159682 -2.839019 -1.142394 0
M  V30 27 C -2.951278 -1.964938 -1.067306 0
M  V30 28 C 0.943026 1.777696 0.763607 0
M  V30 29 N 1.875877 0.815437 0.839825 0
M  V30 30 N 3.987132 -1.323085 1.112081 0
M  V30 31 C 2.867860 -2.083177 1.051734 0
M  V30 32 H 0.177083 -3.789590 -0.108223 0
M  V30 33 H -0.200238 -4.586380 1.470148 0
M  V30 34 H 0.436935 -2.907136 1.476410 0
M  V30 35 H 4.266458 -5.170621 1.284078 0
M  V30 36 H 6.265963 -3.796469 1.390645 0
M  V30 37 H 4.698159 2.654015 1.167908 0
M  V30 38 H 3.010475 4.429805 1.035819 0
M  V30 39 H 0.761415 5.211123 0.826740 0
M  V30 40 H -2.354793 2.349605 0.454471 0
M  V30 41 H -0.969759 -1.537323 0.159890 0
M  V30 42 H -1.601362 -0.876708 1.715331 0
M  V30 43 H -4.247770 0.049077 -0.780654 0
M  V30 44 H -4.184854 0.340978 1.041448 0
M  V30 45 H -6.275864 -0.986885 -0.169238 0
M  V30 46 H -5.615819 -1.417875 1.475844 0
M  V30 47 H -5.037541 -3.443003 0.669873 0
M  V30 48 H -3.805835 -3.900860 -1.171357 0
M  V30 49 H -4.732243 -2.692342 -2.085451 0
M  V30 50 H -2.002986 -2.522755 -1.217373 0
M  V30 51 H -3.061028 -1.131368 -1.795119 0
M  V30 52 H 1.911885 -1.620553 0.954825 0
M  V30 END ATOM
M  V30 BEGIN BOND
M  V30 1 1 1 2
M  V30 2 1 2 3
M  V30 3 1 3 4
M  V30 4 2 4 5
M  V30 5 1 5 6
M  V30 6 2 6 7
M  V30 7 1 7 8
M  V30 8 2 8 9
M  V30 9 1 9 10
M  V30 10 2 10 11
M  V30 11 1 11 12
M  V30 12 2 12 13
M  V30 13 1 13 14
M  V30 14 2 14 15
M  V30 15 1 15 16
M  V30 16 1 15 17
M  V30 17 2 17 18
M  V30 18 1 18 19
M  V30 19 1 19 20
M  V30 20 1 20 21
M  V30 21 1 21 22
M  V30 22 1 21 23
M  V30 23 1 23 24
M  V30 24 1 24 25
M  V30 25 1 25 26
M  V30 26 1 26 27
M  V30 27 1 18 28
M  V30 28 2 28 29
M  V30 29 1 9 30
M  V30 30 1 30 31
M  V30 31 2 31 3
M  V30 32 1 30 6
M  V30 33 1 29 10
M  V30 34 1 28 13
M  V30 35 1 27 21
M  V30 36 1 1 32
M  V30 37 1 1 33
M  V30 38 1 1 34
M  V30 39 1 4 35
M  V30 40 1 5 36
M  V30 41 1 11 37
M  V30 42 1 12 38
M  V30 43 1 14 39
M  V30 44 1 17 40
M  V30 45 1 20 41
M  V30 46 1 20 42
M  V30 47 1 23 43
M  V30 48 1 23 44
M  V30 49 1 24 45
M  V30 50 1 24 46
M  V30 51 1 25 47
M  V30 52 1 26 48
M  V30 53 1 26 49
M  V30 54 1 27 50
M  V30 55 1 27 51
M  V30 56 1 31 52
M  V30 END BOND
M  V30 END CTAB
M  END
>  <Dataset>  (128) 
ChEMBL_Kinases

>  <Ligand_Instance>  (128) 
nan

>  <PDB_ID>  (128) 
nan

>  <Standardized_SMILES>  (128) 
COc1ccc2nnc(-c3ccc4cc(F)cc(OCC5(F)CCNCC5)c4n3)n2c1

>  <Name>  (128) 
nan

>  <Pocket>  (128) 
nan

>  <ATP_Site>  (128) 
nan

>  <Peripheral>  (128) 
nan

>  <Num_H_Atoms_ProtBoundConf>  (128) 
nan

>  <Num_Resolved_Atoms>  (128) 
nan

>  <Num_Not_Resolved_Atoms>  (128) 
nan

$$$$
CHEMBL3664612
     RDKit          3D

  0  0  0  0  0  0  0  0  0  0999 V3000
M  V30 BEGIN CTAB
M  V30 COUNTS 52 56 0 0 0
M  V30 BEGIN ATOM
M  V30 1 C -0.800031 -3.313363 4.386831 0
M  V30 2 O -0.196622 -2.469924 3.452918 0
M  V30 3 C 1.169126 -2.314321 3.311628 0
M  V30 4 C 2.044468 -3.012033 4.117927 0
M  V30 5 C 3.400029 -2.824959 3.940996 0
M  V30 6 C 3.785561 -1.940189 2.955486 0
M  V30 7 N 5.045628 -1.588195 2.590777 0
M  V30 8 N 4.935241 -0.708824 1.599130 0
M  V30 9 C 3.656748 -0.473048 1.302388 0
M  V30 10 C 3.148755 0.429579 0.274915 0
M  V30 11 C 4.048963 1.134877 -0.495460 0
M  V30 12 C 3.544275 1.980204 -1.458213 0
M  V30 13 C 2.176640 2.056084 -1.577541 0
M  V30 14 C 1.718767 2.912307 -2.551271 0
M  V30 15 C 0.377408 3.105491 -2.801185 0
M  V30 16 C -0.465360 2.372811 -1.998149 0
M  V30 17 C -0.132324 1.490100 -0.998758 0
M  V30 18 O -0.803132 0.725333 -0.153770 0
M  V30 19 C -2.051496 0.365421 0.203553 0
M  V30 20 C -2.795957 -0.341640 -0.892023 0
M  V30 21 F -2.971509 0.377238 -2.040074 0
M  V30 22 C -4.182648 -0.653904 -0.356086 0
M  V30 23 C -4.165623 -1.578353 0.820705 0
M  V30 24 N -2.997455 -2.431683 0.887426 0
M  V30 25 C -2.553966 -2.808379 -0.440663 0
M  V30 26 C -2.116525 -1.643501 -1.273041 0
M  V30 27 C 1.250710 1.345407 -0.801748 0
M  V30 28 N 1.822502 0.543003 0.114409 0
M  V30 29 N 2.958039 -1.246010 2.154355 0
M  V30 30 C 1.657430 -1.450881 2.352623 0
M  V30 31 H -1.840211 -2.995646 4.609682 0
M  V30 32 H -0.880117 -4.338889 3.942736 0
M  V30 33 H -0.246426 -3.331048 5.354025 0
M  V30 34 H 1.707796 -3.699220 4.882395 0
M  V30 35 H 4.150534 -3.335647 4.533800 0
M  V30 36 H 5.102962 1.025389 -0.346113 0
M  V30 37 H 4.207143 2.536612 -2.067184 0
M  V30 38 H 2.402150 3.484153 -3.177460 0
M  V30 39 H -0.042538 3.762615 -3.550119 0
M  V30 40 H -1.523351 2.506280 -2.148282 0
M  V30 41 H -1.966964 -0.310160 1.117697 0
M  V30 42 H -2.671602 1.240161 0.591318 0
M  V30 43 H -4.670096 0.308394 -0.146386 0
M  V30 44 H -4.766173 -1.150487 -1.170104 0
M  V30 45 H -5.063862 -2.255853 0.812256 0
M  V30 46 H -4.159606 -0.980778 1.766428 0
M  V30 47 H -3.274729 -3.307037 1.379401 0
M  V30 48 H -1.707048 -3.511309 -0.321163 0
M  V30 49 H -3.425578 -3.332114 -0.912042 0
M  V30 50 H -2.384881 -1.862447 -2.320476 0
M  V30 51 H -1.024536 -1.462039 -1.219421 0
M  V30 52 H 0.933827 -0.926119 1.744617 0
M  V30 END ATOM
M  V30 BEGIN BOND
M  V30 1 1 1 2
M  V30 2 1 2 3
M  V30 3 1 3 4
M  V30 4 2 4 5
M  V30 5 1 5 6
M  V30 6 2 6 7
M  V30 7 1 7 8
M  V30 8 2 8 9
M  V30 9 1 9 10
M  V30 10 2 10 11
M  V30 11 1 11 12
M  V30 12 2 12 13
M  V30 13 1 13 14
M  V30 14 2 14 15
M  V30 15 1 15 16
M  V30 16 2 16 17
M  V30 17 1 17 18
M  V30 18 1 18 19
M  V30 19 1 19 20
M  V30 20 1 20 21
M  V30 21 1 20 22
M  V30 22 1 22 23
M  V30 23 1 23 24
M  V30 24 1 24 25
M  V30 25 1 25 26
M  V30 26 1 17 27
M  V30 27 2 27 28
M  V30 28 1 9 29
M  V30 29 1 29 30
M  V30 30 2 30 3
M  V30 31 1 29 6
M  V30 32 1 28 10
M  V30 33 1 27 13
M  V30 34 1 26 20
M  V30 35 1 1 31
M  V30 36 1 1 32
M  V30 37 1 1 33
M  V30 38 1 4 34
M  V30 39 1 5 35
M  V30 40 1 11 36
M  V30 41 1 12 37
M  V30 42 1 14 38
M  V30 43 1 15 39
M  V30 44 1 16 40
M  V30 45 1 19 41
M  V30 46 1 19 42
M  V30 47 1 22 43
M  V30 48 1 22 44
M  V30 49 1 23 45
M  V30 50 1 23 46
M  V30 51 1 24 47
M  V30 52 1 25 48
M  V30 53 1 25 49
M  V30 54 1 26 50
M  V30 55 1 26 51
M  V30 56 1 30 52
M  V30 END BOND
M  V30 END CTAB
M  END
>  <Dataset>  (129) 
ChEMBL_Kinases

>  <Ligand_Instance>  (129) 
nan

>  <PDB_ID>  (129) 
nan

>  <Standardized_SMILES>  (129) 
COc1ccc2nnc(-c3ccc4cccc(OCC5(F)CCNCC5)c4n3)n2c1

>  <Name>  (129) 
nan

>  <Pocket>  (129) 
nan

>  <ATP_Site>  (129) 
nan

>  <Peripheral>  (129) 
nan

>  <Num_H_Atoms_ProtBoundConf>  (129) 
nan

>  <Num_Resolved_Atoms>  (129) 
nan

>  <Num_Not_Resolved_Atoms>  (129) 
nan

$$$$
CHEMBL3664611
     RDKit          3D

  0  0  0  0  0  0  0  0  0  0999 V3000
M  V30 BEGIN CTAB
M  V30 COUNTS 42 46 0 0 0
M  V30 BEGIN ATOM
M  V30 1 F 4.482707 -4.214032 2.050571 0
M  V30 2 C 3.289117 -3.599069 1.958793 0
M  V30 3 C 3.232133 -2.318009 1.475675 0
M  V30 4 C 2.116770 -1.528656 1.307340 0
M  V30 5 O 1.898859 -0.294671 0.862416 0
M  V30 6 C 2.611923 0.752668 0.367879 0
M  V30 7 C 3.368443 0.584910 -0.900213 0
M  V30 8 F 4.335912 -0.355410 -0.960143 0
M  V30 9 C 2.572124 0.780634 -2.172636 0
M  V30 10 N 3.625806 1.636614 -2.672250 0
M  V30 11 C 3.957540 1.949008 -1.296896 0
M  V30 12 C 0.917846 -2.147744 1.688427 0
M  V30 13 N -0.292622 -1.588761 1.620139 0
M  V30 14 C -1.442673 -2.178673 1.984192 0
M  V30 15 C -2.695460 -1.444685 1.854040 0
M  V30 16 N -3.911245 -1.905180 2.176526 0
M  V30 17 N -4.824068 -0.954756 1.922621 0
M  V30 18 C -4.188251 0.136017 1.428704 0
M  V30 19 C -4.698645 1.355255 1.023494 0
M  V30 20 C -3.798990 2.295279 0.555508 0
M  V30 21 C -2.448608 2.002751 0.505003 0
M  V30 22 C -2.060393 0.749343 0.937989 0
M  V30 23 N -2.885731 -0.199718 1.400493 0
M  V30 24 C -1.443559 -3.466121 2.476923 0
M  V30 25 C -0.233223 -4.118957 2.581141 0
M  V30 26 C 0.885142 -3.454017 2.192192 0
M  V30 27 C 2.073373 -4.142706 2.312810 0
M  V30 28 H 4.152354 -1.836619 1.192377 0
M  V30 29 H 3.402085 1.003448 1.149607 0
M  V30 30 H 2.026478 1.703156 0.316396 0
M  V30 31 H 2.480039 -0.133278 -2.799973 0
M  V30 32 H 1.629859 1.308384 -2.027908 0
M  V30 33 H 4.389867 1.183544 -3.190558 0
M  V30 34 H 3.361295 2.792227 -0.917582 0
M  V30 35 H 5.045798 2.009905 -1.136393 0
M  V30 36 H -5.763106 1.556793 1.074424 0
M  V30 37 H -4.132752 3.273488 0.221292 0
M  V30 38 H -1.722365 2.726717 0.140567 0
M  V30 39 H -0.999628 0.555385 0.884601 0
M  V30 40 H -2.349152 -3.974428 2.780350 0
M  V30 41 H -0.199175 -5.129850 2.963851 0
M  V30 42 H 2.099070 -5.162731 2.699928 0
M  V30 END ATOM
M  V30 BEGIN BOND
M  V30 1 1 1 2
M  V30 2 2 2 3
M  V30 3 1 3 4
M  V30 4 1 4 5
M  V30 5 1 5 6
M  V30 6 1 6 7
M  V30 7 1 7 8
M  V30 8 1 7 9
M  V30 9 1 9 10
M  V30 10 1 10 11
M  V30 11 2 4 12
M  V30 12 1 12 13
M  V30 13 2 13 14
M  V30 14 1 14 15
M  V30 15 2 15 16
M  V30 16 1 16 17
M  V30 17 2 17 18
M  V30 18 1 18 19
M  V30 19 2 19 20
M  V30 20 1 20 21
M  V30 21 2 21 22
M  V30 22 1 22 23
M  V30 23 1 14 24
M  V30 24 2 24 25
M  V30 25 1 25 26
M  V30 26 2 26 27
M  V30 27 1 27 2
M  V30 28 1 11 7
M  V30 29 1 26 12
M  V30 30 1 23 15
M  V30 31 1 23 18
M  V30 32 1 3 28
M  V30 33 1 6 29
M  V30 34 1 6 30
M  V30 35 1 9 31
M  V30 36 1 9 32
M  V30 37 1 10 33
M  V30 38 1 11 34
M  V30 39 1 11 35
M  V30 40 1 19 36
M  V30 41 1 20 37
M  V30 42 1 21 38
M  V30 43 1 22 39
M  V30 44 1 24 40
M  V30 45 1 25 41
M  V30 46 1 27 42
M  V30 END BOND
M  V30 END CTAB
M  END
>  <Dataset>  (130) 
ChEMBL_Kinases

>  <Ligand_Instance>  (130) 
nan

>  <PDB_ID>  (130) 
nan

>  <Standardized_SMILES>  (130) 
Fc1cc(OCC2(F)CNC2)c2nc(-c3nnc4ccccn34)ccc2c1

>  <Name>  (130) 
nan

>  <Pocket>  (130) 
nan

>  <ATP_Site>  (130) 
nan

>  <Peripheral>  (130) 
nan

>  <Num_H_Atoms_ProtBoundConf>  (130) 
nan

>  <Num_Resolved_Atoms>  (130) 
nan

>  <Num_Not_Resolved_Atoms>  (130) 
nan

$$$$
CHEMBL3668462
     RDKit          3D

  0  0  0  0  0  0  0  0  0  0999 V3000
M  V30 BEGIN CTAB
M  V30 COUNTS 62 66 0 0 0
M  V30 BEGIN ATOM
M  V30 1 C 4.899056 -2.621653 5.686920 0
M  V30 2 N 4.072553 -1.556045 5.292088 0
M  V30 3 C 4.598048 -0.249850 5.218572 0
M  V30 4 C 4.134829 0.400109 3.939562 0
M  V30 5 C 2.791616 -0.049823 3.486052 0
M  V30 6 C 2.837605 -0.878588 2.227309 0
M  V30 7 C 2.237750 -0.488349 1.022904 0
M  V30 8 C 2.445065 -1.441534 0.055104 0
M  V30 9 C 2.126834 -1.641411 -1.272053 0
M  V30 10 C 1.339546 -0.542977 -1.861055 0
M  V30 11 C -0.033101 -0.729199 -1.728546 0
M  V30 12 C -0.941103 0.185457 -2.213620 0
M  V30 13 N -2.341093 0.038466 -2.102019 0
M  V30 14 C -3.322528 0.957527 -2.588433 0
M  V30 15 C -4.710888 0.511402 -2.311082 0
M  V30 16 C -5.348789 0.875252 -1.138531 0
M  V30 17 C -6.643086 0.490604 -0.822299 0
M  V30 18 C -7.324562 -0.294429 -1.725872 0
M  V30 19 C -8.682762 -0.702203 -1.401652 0
M  V30 20 N -9.444846 -1.512458 -2.286729 0
M  V30 21 O -9.195753 -0.331626 -0.316532 0
M  V30 22 C -6.717264 -0.670728 -2.897135 0
M  V30 23 C -5.418722 -0.281570 -3.208447 0
M  V30 24 C -0.428540 1.317921 -2.849677 0
M  V30 25 C 0.931979 1.497926 -2.978474 0
M  V30 26 C 1.838695 0.579166 -2.491110 0
M  V30 27 F 3.188355 0.661912 -2.566009 0
M  V30 28 C 2.519284 -2.767631 -1.957140 0
M  V30 29 C 3.254114 -3.705572 -1.259594 0
M  V30 30 N 3.572014 -3.524207 0.035256 0
M  V30 31 C 3.182891 -2.417531 0.697618 0
M  V30 32 N 3.408161 -2.073235 1.980131 0
M  V30 33 C 1.958014 -0.714886 4.550974 0
M  V30 34 C 2.674595 -1.693655 5.408601 0
M  V30 35 H 5.607898 -2.435144 6.513047 0
M  V30 36 H 4.255133 -3.484829 5.967463 0
M  V30 37 H 5.506093 -2.963068 4.802505 0
M  V30 38 H 5.719012 -0.347165 5.264254 0
M  V30 39 H 4.262088 0.361501 6.081714 0
M  V30 40 H 4.252591 1.497275 4.061788 0
M  V30 41 H 4.884936 0.120484 3.144100 0
M  V30 42 H 2.211352 0.860593 3.212337 0
M  V30 43 H 1.670646 0.426844 0.808290 0
M  V30 44 H -0.486127 -1.599320 -1.238581 0
M  V30 45 H -2.683607 -0.835061 -1.611982 0
M  V30 46 H -3.197274 1.930815 -2.058628 0
M  V30 47 H -3.184907 1.185025 -3.670219 0
M  V30 48 H -4.798455 1.502949 -0.420288 0
M  V30 49 H -7.040499 0.841159 0.135661 0
M  V30 50 H -10.322899 -1.968256 -1.959815 0
M  V30 51 H -9.179270 -1.689946 -3.275246 0
M  V30 52 H -7.213000 -1.281854 -3.627959 0
M  V30 53 H -4.915700 -0.568650 -4.133069 0
M  V30 54 H -1.042821 2.103812 -3.270067 0
M  V30 55 H 1.399677 2.357584 -3.462981 0
M  V30 56 H 2.211370 -2.814399 -2.993082 0
M  V30 57 H 3.554972 -4.594495 -1.828154 0
M  V30 58 H 3.934292 -2.612756 2.702725 0
M  V30 59 H 1.398382 0.054568 5.154303 0
M  V30 60 H 1.146957 -1.267977 4.016351 0
M  V30 61 H 2.397820 -1.474284 6.478373 0
M  V30 62 H 2.392189 -2.754226 5.265784 0
M  V30 END ATOM
M  V30 BEGIN BOND
M  V30 1 1 1 2
M  V30 2 1 2 3
M  V30 3 1 3 4
M  V30 4 1 4 5
M  V30 5 1 5 6
M  V30 6 2 6 7
M  V30 7 1 7 8
M  V30 8 2 8 9
M  V30 9 1 9 10
M  V30 10 2 10 11
M  V30 11 1 11 12
M  V30 12 1 12 13
M  V30 13 1 13 14
M  V30 14 1 14 15
M  V30 15 2 15 16
M  V30 16 1 16 17
M  V30 17 2 17 18
M  V30 18 1 18 19
M  V30 19 1 19 20
M  V30 20 2 19 21
M  V30 21 1 18 22
M  V30 22 2 22 23
M  V30 23 2 12 24
M  V30 24 1 24 25
M  V30 25 2 25 26
M  V30 26 1 26 27
M  V30 27 1 9 28
M  V30 28 2 28 29
M  V30 29 1 29 30
M  V30 30 2 30 31
M  V30 31 1 31 32
M  V30 32 1 5 33
M  V30 33 1 33 34
M  V30 34 1 34 2
M  V30 35 1 32 6
M  V30 36 1 31 8
M  V30 37 1 26 10
M  V30 38 1 23 15
M  V30 39 1 1 35
M  V30 40 1 1 36
M  V30 41 1 1 37
M  V30 42 1 3 38
M  V30 43 1 3 39
M  V30 44 1 4 40
M  V30 45 1 4 41
M  V30 46 1 5 42
M  V30 47 1 7 43
M  V30 48 1 11 44
M  V30 49 1 13 45
M  V30 50 1 14 46
M  V30 51 1 14 47
M  V30 52 1 16 48
M  V30 53 1 17 49
M  V30 54 1 20 50
M  V30 55 1 20 51
M  V30 56 1 22 52
M  V30 57 1 23 53
M  V30 58 1 24 54
M  V30 59 1 25 55
M  V30 60 1 28 56
M  V30 61 1 29 57
M  V30 62 1 32 58
M  V30 63 1 33 59
M  V30 64 1 33 60
M  V30 65 1 34 61
M  V30 66 1 34 62
M  V30 END BOND
M  V30 END CTAB
M  END
>  <Dataset>  (131) 
ChEMBL_Kinases

>  <Ligand_Instance>  (131) 
nan

>  <PDB_ID>  (131) 
nan

>  <Standardized_SMILES>  (131) 
CN1CCC(c2cc3c(-c4cc(NCc5ccc(C(N)=O)cc5)ccc4F)ccnc3[nH]2)CC1

>  <Name>  (131) 
nan

>  <Pocket>  (131) 
nan

>  <ATP_Site>  (131) 
nan

>  <Peripheral>  (131) 
nan

>  <Num_H_Atoms_ProtBoundConf>  (131) 
nan

>  <Num_Resolved_Atoms>  (131) 
nan

>  <Num_Not_Resolved_Atoms>  (131) 
nan

$$$$
CHEMBL3663794
     RDKit          3D

  0  0  0  0  0  0  0  0  0  0999 V3000
M  V30 BEGIN CTAB
M  V30 COUNTS 57 61 0 0 0
M  V30 BEGIN ATOM
M  V30 1 C -2.139885 -1.623157 3.461004 0
M  V30 2 N -0.762607 -1.873742 3.045197 0
M  V30 3 C -0.133499 -2.733030 3.975442 0
M  V30 4 C 1.337729 -2.951324 3.672245 0
M  V30 5 C 1.798935 -2.180854 2.488571 0
M  V30 6 C 1.264372 -2.668123 1.222890 0
M  V30 7 C 1.489387 -1.858632 0.101703 0
M  V30 8 C 0.914814 -2.495214 -1.023822 0
M  V30 9 C 0.880354 -2.134632 -2.387421 0
M  V30 10 C 1.451102 -0.807463 -2.624280 0
M  V30 11 N 0.821230 0.215185 -1.999839 0
M  V30 12 C 1.171707 1.522529 -2.053643 0
M  V30 13 N 0.205957 2.243455 -1.300377 0
M  V30 14 C -0.728838 2.906767 -0.519293 0
M  V30 15 C -1.887195 2.026855 -0.134160 0
M  V30 16 C -2.255597 1.744494 1.168244 0
M  V30 17 C -3.268390 0.885480 1.527239 0
M  V30 18 C -3.983125 0.235203 0.551252 0
M  V30 19 C -3.620460 0.502941 -0.780826 0
M  V30 20 C -2.614039 1.370119 -1.094419 0
M  V30 21 C 2.259237 1.889987 -2.783761 0
M  V30 22 C 2.944115 0.896350 -3.443293 0
M  V30 23 C 2.537500 -0.408096 -3.354361 0
M  V30 24 Cl 3.352500 -1.707810 -4.167058 0
M  V30 25 C 0.270019 -2.993398 -3.287542 0
M  V30 26 C -0.258857 -4.144545 -2.741256 0
M  V30 27 N -0.222975 -4.480013 -1.445379 0
M  V30 28 C 0.358261 -3.676830 -0.558320 0
M  V30 29 N 0.582434 -3.744809 0.776636 0
M  V30 30 C 1.394108 -0.731972 2.761693 0
M  V30 31 C -0.117519 -0.708528 2.658353 0
M  V30 32 H -2.857575 -1.760255 2.619949 0
M  V30 33 H -2.467321 -2.356142 4.229647 0
M  V30 34 H -2.259078 -0.602086 3.866410 0
M  V30 35 H -0.630727 -3.716193 3.954069 0
M  V30 36 H -0.236951 -2.330564 4.987090 0
M  V30 37 H 1.595612 -4.021634 3.544435 0
M  V30 38 H 1.925262 -2.582723 4.557423 0
M  V30 39 H 2.910933 -2.176726 2.426281 0
M  V30 40 H 2.028926 -0.883713 0.061411 0
M  V30 41 H 0.204725 3.012661 -2.053151 0
M  V30 42 H -0.270066 3.184311 0.506898 0
M  V30 43 H -1.174569 3.834106 -0.919166 0
M  V30 44 H -1.720073 2.245637 2.006711 0
M  V30 45 H -3.514299 0.740152 2.578366 0
M  V30 46 H -4.761285 -0.443543 0.865240 0
M  V30 47 H -4.240347 -0.055287 -1.479517 0
M  V30 48 H -2.383011 1.550317 -2.148672 0
M  V30 49 H 2.444613 2.946477 -2.739990 0
M  V30 50 H 3.816505 1.197276 -4.011194 0
M  V30 51 H 0.280236 -2.619136 -4.296000 0
M  V30 52 H -0.743089 -4.784446 -3.489057 0
M  V30 53 H 0.313622 -4.489572 1.448059 0
M  V30 54 H 1.788379 -0.419656 3.724988 0
M  V30 55 H 1.820995 -0.168615 1.902435 0
M  V30 56 H -0.352969 -0.508328 1.596665 0
M  V30 57 H -0.497206 0.176736 3.240340 0
M  V30 END ATOM
M  V30 BEGIN BOND
M  V30 1 1 1 2
M  V30 2 1 2 3
M  V30 3 1 3 4
M  V30 4 1 4 5
M  V30 5 1 5 6
M  V30 6 2 6 7
M  V30 7 1 7 8
M  V30 8 2 8 9
M  V30 9 1 9 10
M  V30 10 2 10 11
M  V30 11 1 11 12
M  V30 12 1 12 13
M  V30 13 1 13 14
M  V30 14 1 14 15
M  V30 15 2 15 16
M  V30 16 1 16 17
M  V30 17 2 17 18
M  V30 18 1 18 19
M  V30 19 2 19 20
M  V30 20 2 12 21
M  V30 21 1 21 22
M  V30 22 2 22 23
M  V30 23 1 23 24
M  V30 24 1 9 25
M  V30 25 2 25 26
M  V30 26 1 26 27
M  V30 27 2 27 28
M  V30 28 1 28 29
M  V30 29 1 5 30
M  V30 30 1 30 31
M  V30 31 1 31 2
M  V30 32 1 29 6
M  V30 33 1 28 8
M  V30 34 1 23 10
M  V30 35 1 20 15
M  V30 36 1 1 32
M  V30 37 1 1 33
M  V30 38 1 1 34
M  V30 39 1 3 35
M  V30 40 1 3 36
M  V30 41 1 4 37
M  V30 42 1 4 38
M  V30 43 1 5 39
M  V30 44 1 7 40
M  V30 45 1 13 41
M  V30 46 1 14 42
M  V30 47 1 14 43
M  V30 48 1 16 44
M  V30 49 1 17 45
M  V30 50 1 18 46
M  V30 51 1 19 47
M  V30 52 1 20 48
M  V30 53 1 21 49
M  V30 54 1 22 50
M  V30 55 1 25 51
M  V30 56 1 26 52
M  V30 57 1 29 53
M  V30 58 1 30 54
M  V30 59 1 30 55
M  V30 60 1 31 56
M  V30 61 1 31 57
M  V30 END BOND
M  V30 END CTAB
M  END
>  <Dataset>  (132) 
ChEMBL_Kinases

>  <Ligand_Instance>  (132) 
nan

>  <PDB_ID>  (132) 
nan

>  <Standardized_SMILES>  (132) 
CN1CCC(c2cc3c(-c4nc(NCc5ccccc5)ccc4Cl)ccnc3[nH]2)CC1

>  <Name>  (132) 
nan

>  <Pocket>  (132) 
nan

>  <ATP_Site>  (132) 
nan

>  <Peripheral>  (132) 
nan

>  <Num_H_Atoms_ProtBoundConf>  (132) 
nan

>  <Num_Resolved_Atoms>  (132) 
nan

>  <Num_Not_Resolved_Atoms>  (132) 
nan

$$$$
CHEMBL3663795
     RDKit          3D

  0  0  0  0  0  0  0  0  0  0999 V3000
M  V30 BEGIN CTAB
M  V30 COUNTS 57 61 0 0 0
M  V30 BEGIN ATOM
M  V30 1 C -0.038631 -5.641423 0.126280 0
M  V30 2 C 0.913497 -4.459040 -0.064601 0 CFG=2
M  V30 3 N 1.446052 -4.011436 1.163044 0
M  V30 4 C 2.167427 -2.970334 1.808996 0
M  V30 5 C 2.765112 -3.090252 3.069973 0
M  V30 6 C 3.430113 -2.019207 3.605800 0
M  V30 7 C 3.520157 -0.829626 2.928642 0
M  V30 8 Cl 4.353239 0.576801 3.556847 0
M  V30 9 C 2.935623 -0.700525 1.691495 0
M  V30 10 C 2.887842 0.495035 0.849750 0
M  V30 11 C 3.905141 1.204197 0.219351 0
M  V30 12 C 3.563719 2.292989 -0.550293 0
M  V30 13 N 2.288462 2.687667 -0.709319 0
M  V30 14 C 1.255759 2.056183 -0.133515 0
M  V30 15 N -0.080383 2.249680 -0.113327 0
M  V30 16 C -0.700846 1.331602 0.649310 0
M  V30 17 C -2.138640 1.154957 0.979987 0
M  V30 18 C -2.808184 0.606087 -0.274269 0
M  V30 19 C -4.254001 0.312142 0.062767 0
M  V30 20 N -4.822193 1.412861 0.810054 0
M  V30 21 C -4.029572 2.634291 0.685602 0
M  V30 22 C -2.768555 2.402417 1.500577 0
M  V30 23 C 0.320936 0.532228 1.117760 0
M  V30 24 C 1.573617 0.952248 0.649595 0
M  V30 25 N 2.307904 -1.789082 1.239277 0
M  V30 26 C 0.280066 -3.494745 -0.957382 0
M  V30 27 C 0.863251 -2.403000 -1.556570 0
M  V30 28 C 0.250615 -1.501844 -2.401760 0
M  V30 29 C -1.083591 -1.688245 -2.696112 0
M  V30 30 C -1.741640 -2.765501 -2.131189 0
M  V30 31 C -1.059232 -3.626119 -1.292735 0
M  V30 32 H 0.479102 -6.424538 0.738346 0
M  V30 33 H -0.911465 -5.342264 0.738909 0
M  V30 34 H -0.343404 -6.052128 -0.836592 0
M  V30 35 H 1.776198 -4.973267 -0.673051 0
M  V30 36 H 1.219893 -4.742114 1.911209 0
M  V30 37 H 2.680292 -4.037627 3.583471 0
M  V30 38 H 3.881539 -2.138462 4.580418 0
M  V30 39 H 4.864015 0.776174 0.437178 0
M  V30 40 H 4.425752 2.787973 -1.007999 0
M  V30 41 H -0.554197 3.009908 -0.624621 0
M  V30 42 H -2.289433 0.339966 1.743463 0
M  V30 43 H -2.302511 -0.368733 -0.483437 0
M  V30 44 H -2.662466 1.242745 -1.149710 0
M  V30 45 H -4.270839 -0.638642 0.634937 0
M  V30 46 H -4.797288 0.198103 -0.893716 0
M  V30 47 H -5.795082 1.600480 0.477961 0
M  V30 48 H -4.632274 3.458724 1.072929 0
M  V30 49 H -3.719453 2.822590 -0.370356 0
M  V30 50 H -2.109676 3.294891 1.509213 0
M  V30 51 H -3.113870 2.273047 2.568056 0
M  V30 52 H 0.139670 -0.323848 1.778171 0
M  V30 53 H 1.899136 -2.202466 -1.390022 0
M  V30 54 H 0.775341 -0.664243 -2.837756 0
M  V30 55 H -1.600081 -1.015256 -3.345586 0
M  V30 56 H -2.785148 -2.874437 -2.386359 0
M  V30 57 H -1.694804 -4.431335 -0.918001 0
M  V30 END ATOM
M  V30 BEGIN BOND
M  V30 1 1 1 2
M  V30 2 1 2 3
M  V30 3 1 3 4
M  V30 4 2 4 5
M  V30 5 1 5 6
M  V30 6 2 6 7
M  V30 7 1 7 8
M  V30 8 1 7 9
M  V30 9 1 9 10
M  V30 10 2 10 11
M  V30 11 1 11 12
M  V30 12 2 12 13
M  V30 13 1 13 14
M  V30 14 1 14 15
M  V30 15 1 15 16
M  V30 16 1 16 17
M  V30 17 1 17 18
M  V30 18 1 18 19
M  V30 19 1 19 20
M  V30 20 1 20 21
M  V30 21 1 21 22
M  V30 22 2 16 23
M  V30 23 1 23 24
M  V30 24 2 9 25
M  V30 25 1 2 26
M  V30 26 2 26 27
M  V30 27 1 27 28
M  V30 28 2 28 29
M  V30 29 1 29 30
M  V30 30 2 30 31
M  V30 31 1 25 4
M  V30 32 1 31 26
M  V30 33 1 24 10
M  V30 34 2 24 14
M  V30 35 1 22 17
M  V30 36 1 1 32
M  V30 37 1 1 33
M  V30 38 1 1 34
M  V30 39 1 2 35 CFG=3
M  V30 40 1 3 36
M  V30 41 1 5 37
M  V30 42 1 6 38
M  V30 43 1 11 39
M  V30 44 1 12 40
M  V30 45 1 15 41
M  V30 46 1 17 42
M  V30 47 1 18 43
M  V30 48 1 18 44
M  V30 49 1 19 45
M  V30 50 1 19 46
M  V30 51 1 20 47
M  V30 52 1 21 48
M  V30 53 1 21 49
M  V30 54 1 22 50
M  V30 55 1 22 51
M  V30 56 1 23 52
M  V30 57 1 27 53
M  V30 58 1 28 54
M  V30 59 1 29 55
M  V30 60 1 30 56
M  V30 61 1 31 57
M  V30 END BOND
M  V30 END CTAB
M  END
>  <Dataset>  (133) 
ChEMBL_Kinases

>  <Ligand_Instance>  (133) 
nan

>  <PDB_ID>  (133) 
nan

>  <Standardized_SMILES>  (133) 
C[C@H](Nc1ccc(Cl)c(-c2ccnc3[nH]c(C4CCNCC4)cc23)n1)c1ccccc1

>  <Name>  (133) 
nan

>  <Pocket>  (133) 
nan

>  <ATP_Site>  (133) 
nan

>  <Peripheral>  (133) 
nan

>  <Num_H_Atoms_ProtBoundConf>  (133) 
nan

>  <Num_Resolved_Atoms>  (133) 
nan

>  <Num_Not_Resolved_Atoms>  (133) 
nan

$$$$
CHEMBL3663796
     RDKit          3D

  0  0  0  0  0  0  0  0  0  0999 V3000
M  V30 BEGIN CTAB
M  V30 COUNTS 57 61 0 0 0
M  V30 BEGIN ATOM
M  V30 1 C -1.715058 -5.685203 3.177249 0
M  V30 2 N -0.717250 -4.937074 2.541896 0
M  V30 3 C 0.500362 -4.731866 3.228199 0
M  V30 4 C 1.551882 -4.028053 2.390509 0
M  V30 5 C 1.037385 -2.816069 1.714297 0
M  V30 6 C 1.642688 -2.579458 0.373798 0
M  V30 7 C 1.548885 -1.352125 -0.249093 0
M  V30 8 C 2.174359 -1.313021 -1.451755 0
M  V30 9 C 2.351547 -0.332552 -2.399042 0
M  V30 10 C 1.805370 1.007399 -2.263233 0
M  V30 11 C 2.119822 1.998731 -3.152993 0
M  V30 12 C 1.612727 3.265973 -3.017495 0
M  V30 13 C 0.767422 3.617991 -1.993832 0
M  V30 14 C 0.460168 2.604365 -1.105494 0
M  V30 15 N -0.380313 2.589192 0.068833 0
M  V30 16 C -1.748252 2.661328 -0.416943 0
M  V30 17 C -2.756554 2.502509 0.665080 0
M  V30 18 C -3.210327 1.220339 0.904542 0
M  V30 19 C -4.130292 0.920896 1.880824 0
M  V30 20 C -4.628104 1.932123 2.660303 0
M  V30 21 C -4.181160 3.207677 2.427517 0
M  V30 22 C -3.264699 3.512144 1.455607 0
M  V30 23 N 0.978351 1.371373 -1.270541 0
M  V30 24 C 3.100035 -0.742349 -3.504583 0
M  V30 25 C 3.620765 -2.016172 -3.647389 0
M  V30 26 N 3.401055 -2.937593 -2.664304 0
M  V30 27 C 2.680476 -2.579770 -1.576003 0
M  V30 28 N 2.356910 -3.327465 -0.481883 0
M  V30 29 C -0.479003 -2.735447 1.677726 0
M  V30 30 C -1.049184 -4.097524 1.453586 0
M  V30 31 H -2.706327 -5.307657 2.915259 0
M  V30 32 H -1.671083 -6.754737 2.903844 0
M  V30 33 H -1.577747 -5.603054 4.286766 0
M  V30 34 H 0.303631 -4.159388 4.160191 0
M  V30 35 H 0.926269 -5.716935 3.525259 0
M  V30 36 H 1.971881 -4.771747 1.667007 0
M  V30 37 H 2.392465 -3.827260 3.103129 0
M  V30 38 H 1.327541 -1.913105 2.339096 0
M  V30 39 H 1.026391 -0.479844 0.168434 0
M  V30 40 H 2.767770 1.872604 -4.003268 0
M  V30 41 H 1.795116 4.129438 -3.673401 0
M  V30 42 H 0.276811 4.531110 -1.720453 0
M  V30 43 H 0.115771 2.532482 0.981156 0
M  V30 44 H -1.945995 1.952269 -1.225183 0
M  V30 45 H -1.860618 3.742372 -0.749821 0
M  V30 46 H -2.864307 0.365442 0.330522 0
M  V30 47 H -4.505359 -0.084126 2.087362 0
M  V30 48 H -5.363027 1.778840 3.459985 0
M  V30 49 H -4.570919 4.003374 3.040504 0
M  V30 50 H -2.891724 4.520003 1.247456 0
M  V30 51 H 3.299395 -0.055352 -4.305444 0
M  V30 52 H 4.195818 -2.269161 -4.543928 0
M  V30 53 H 2.578591 -4.326192 -0.248795 0
M  V30 54 H -0.796672 -2.331011 2.676566 0
M  V30 55 H -0.770684 -1.983495 0.913206 0
M  V30 56 H -2.170973 -4.040823 1.421922 0
M  V30 57 H -0.670014 -4.518095 0.508336 0
M  V30 END ATOM
M  V30 BEGIN BOND
M  V30 1 1 1 2
M  V30 2 1 2 3
M  V30 3 1 3 4
M  V30 4 1 4 5
M  V30 5 1 5 6
M  V30 6 2 6 7
M  V30 7 1 7 8
M  V30 8 2 8 9
M  V30 9 1 9 10
M  V30 10 2 10 11
M  V30 11 1 11 12
M  V30 12 2 12 13
M  V30 13 1 13 14
M  V30 14 1 14 15
M  V30 15 1 15 16
M  V30 16 1 16 17
M  V30 17 2 17 18
M  V30 18 1 18 19
M  V30 19 2 19 20
M  V30 20 1 20 21
M  V30 21 2 21 22
M  V30 22 2 14 23
M  V30 23 1 9 24
M  V30 24 2 24 25
M  V30 25 1 25 26
M  V30 26 2 26 27
M  V30 27 1 27 28
M  V30 28 1 5 29
M  V30 29 1 29 30
M  V30 30 1 30 2
M  V30 31 1 28 6
M  V30 32 1 27 8
M  V30 33 1 23 10
M  V30 34 1 22 17
M  V30 35 1 1 31
M  V30 36 1 1 32
M  V30 37 1 1 33
M  V30 38 1 3 34
M  V30 39 1 3 35
M  V30 40 1 4 36
M  V30 41 1 4 37
M  V30 42 1 5 38
M  V30 43 1 7 39
M  V30 44 1 11 40
M  V30 45 1 12 41
M  V30 46 1 13 42
M  V30 47 1 15 43
M  V30 48 1 16 44
M  V30 49 1 16 45
M  V30 50 1 18 46
M  V30 51 1 19 47
M  V30 52 1 20 48
M  V30 53 1 21 49
M  V30 54 1 22 50
M  V30 55 1 24 51
M  V30 56 1 25 52
M  V30 57 1 28 53
M  V30 58 1 29 54
M  V30 59 1 29 55
M  V30 60 1 30 56
M  V30 61 1 30 57
M  V30 END BOND
M  V30 END CTAB
M  END
>  <Dataset>  (134) 
ChEMBL_Kinases

>  <Ligand_Instance>  (134) 
nan

>  <PDB_ID>  (134) 
nan

>  <Standardized_SMILES>  (134) 
CN1CCC(c2cc3c(-c4cccc(NCc5ccccc5)n4)ccnc3[nH]2)CC1

>  <Name>  (134) 
nan

>  <Pocket>  (134) 
nan

>  <ATP_Site>  (134) 
nan

>  <Peripheral>  (134) 
nan

>  <Num_H_Atoms_ProtBoundConf>  (134) 
nan

>  <Num_Resolved_Atoms>  (134) 
nan

>  <Num_Not_Resolved_Atoms>  (134) 
nan

$$$$
CHEMBL3663797
     RDKit          3D

  0  0  0  0  0  0  0  0  0  0999 V3000
M  V30 BEGIN CTAB
M  V30 COUNTS 57 61 0 0 0
M  V30 BEGIN ATOM
M  V30 1 C 1.915405 -1.660789 6.398482 0
M  V30 2 N 1.880411 -1.710688 4.949290 0
M  V30 3 C 3.154961 -1.973583 4.387197 0
M  V30 4 C 3.398168 -1.524167 3.008852 0
M  V30 5 C 2.317605 -0.774245 2.318810 0
M  V30 6 C 1.337559 -1.620173 1.604913 0
M  V30 7 C 1.030997 -1.423463 0.259675 0
M  V30 8 C 0.082174 -2.358028 -0.177369 0
M  V30 9 C -0.562664 -2.622760 -1.367745 0
M  V30 10 C -0.256447 -1.782722 -2.528887 0
M  V30 11 N -0.401594 -0.463945 -2.244604 0
M  V30 12 C -0.184161 0.500008 -3.134136 0
M  V30 13 N -0.311234 1.898487 -2.914038 0
M  V30 14 C -1.637168 2.460185 -3.164124 0
M  V30 15 C -2.647611 1.832263 -2.274739 0
M  V30 16 C -2.873317 2.440102 -1.036030 0
M  V30 17 C -3.771209 2.004122 -0.075874 0
M  V30 18 C -4.496588 0.887397 -0.362989 0
M  V30 19 C -4.307920 0.252180 -1.574929 0
M  V30 20 F -5.035641 -0.864410 -1.858068 0
M  V30 21 C -3.406075 0.714883 -2.504991 0
M  V30 22 C 0.210502 0.133936 -4.416643 0
M  V30 23 C 0.366879 -1.201650 -4.737253 0
M  V30 24 C 0.133228 -2.181531 -3.788913 0
M  V30 25 Cl 0.275750 -3.905530 -4.004265 0
M  V30 26 C -1.478027 -3.653259 -1.478562 0
M  V30 27 C -1.704469 -4.398410 -0.321619 0
M  V30 28 N -1.064343 -4.120807 0.824787 0
M  V30 29 C -0.175178 -3.123895 0.940741 0
M  V30 30 N 0.578294 -2.655819 1.948763 0
M  V30 31 C 1.671475 0.152968 3.324299 0
M  V30 32 C 1.112516 -0.667182 4.423562 0
M  V30 33 H 2.303322 -0.681672 6.736111 0
M  V30 34 H 2.542760 -2.504281 6.765524 0
M  V30 35 H 0.875114 -1.824161 6.766304 0
M  V30 36 H 3.312853 -3.075303 4.442178 0
M  V30 37 H 3.910598 -1.536118 5.086538 0
M  V30 38 H 4.326706 -0.882724 2.974109 0
M  V30 39 H 3.673300 -2.377669 2.321782 0
M  V30 40 H 2.779151 -0.128499 1.525734 0
M  V30 41 H 1.393180 -0.693885 -0.475173 0
M  V30 42 H 0.490893 2.482547 -2.595665 0
M  V30 43 H -1.629164 3.541253 -2.971936 0
M  V30 44 H -1.920006 2.255595 -4.207343 0
M  V30 45 H -2.305701 3.334091 -0.780302 0
M  V30 46 H -3.876735 2.538604 0.849324 0
M  V30 47 H -5.199353 0.537453 0.374284 0
M  V30 48 H -3.225261 0.240499 -3.479859 0
M  V30 49 H 0.417222 0.814687 -5.225216 0
M  V30 50 H 0.670010 -1.588781 -5.706051 0
M  V30 51 H -1.938395 -3.803935 -2.419459 0
M  V30 52 H -2.420483 -5.203680 -0.407296 0
M  V30 53 H 0.566983 -3.069069 2.902362 0
M  V30 54 H 0.815321 0.640064 2.793904 0
M  V30 55 H 2.427429 0.898207 3.646098 0
M  V30 56 H 0.814601 0.043155 5.260868 0
M  V30 57 H 0.105393 -1.059600 4.090674 0
M  V30 END ATOM
M  V30 BEGIN BOND
M  V30 1 1 1 2
M  V30 2 1 2 3
M  V30 3 1 3 4
M  V30 4 1 4 5
M  V30 5 1 5 6
M  V30 6 2 6 7
M  V30 7 1 7 8
M  V30 8 2 8 9
M  V30 9 1 9 10
M  V30 10 2 10 11
M  V30 11 1 11 12
M  V30 12 1 12 13
M  V30 13 1 13 14
M  V30 14 1 14 15
M  V30 15 2 15 16
M  V30 16 1 16 17
M  V30 17 2 17 18
M  V30 18 1 18 19
M  V30 19 1 19 20
M  V30 20 2 19 21
M  V30 21 2 12 22
M  V30 22 1 22 23
M  V30 23 2 23 24
M  V30 24 1 24 25
M  V30 25 1 9 26
M  V30 26 2 26 27
M  V30 27 1 27 28
M  V30 28 2 28 29
M  V30 29 1 29 30
M  V30 30 1 5 31
M  V30 31 1 31 32
M  V30 32 1 32 2
M  V30 33 1 30 6
M  V30 34 1 29 8
M  V30 35 1 24 10
M  V30 36 1 21 15
M  V30 37 1 1 33
M  V30 38 1 1 34
M  V30 39 1 1 35
M  V30 40 1 3 36
M  V30 41 1 3 37
M  V30 42 1 4 38
M  V30 43 1 4 39
M  V30 44 1 5 40
M  V30 45 1 7 41
M  V30 46 1 13 42
M  V30 47 1 14 43
M  V30 48 1 14 44
M  V30 49 1 16 45
M  V30 50 1 17 46
M  V30 51 1 18 47
M  V30 52 1 21 48
M  V30 53 1 22 49
M  V30 54 1 23 50
M  V30 55 1 26 51
M  V30 56 1 27 52
M  V30 57 1 30 53
M  V30 58 1 31 54
M  V30 59 1 31 55
M  V30 60 1 32 56
M  V30 61 1 32 57
M  V30 END BOND
M  V30 END CTAB
M  END
>  <Dataset>  (135) 
ChEMBL_Kinases

>  <Ligand_Instance>  (135) 
nan

>  <PDB_ID>  (135) 
nan

>  <Standardized_SMILES>  (135) 
CN1CCC(c2cc3c(-c4nc(NCc5cccc(F)c5)ccc4Cl)ccnc3[nH]2)CC1

>  <Name>  (135) 
nan

>  <Pocket>  (135) 
nan

>  <ATP_Site>  (135) 
nan

>  <Peripheral>  (135) 
nan

>  <Num_H_Atoms_ProtBoundConf>  (135) 
nan

>  <Num_Resolved_Atoms>  (135) 
nan

>  <Num_Not_Resolved_Atoms>  (135) 
nan

$$$$
CHEMBL3663798
     RDKit          3D

  0  0  0  0  0  0  0  0  0  0999 V3000
M  V30 BEGIN CTAB
M  V30 COUNTS 53 57 0 0 0
M  V30 BEGIN ATOM
M  V30 1 Cl 0.543924 -3.772628 2.213287 0
M  V30 2 C 1.317146 -2.177829 2.146738 0
M  V30 3 C 2.223654 -1.869287 3.174205 0
M  V30 4 C 2.882689 -0.666617 3.248972 0
M  V30 5 C 2.653862 0.302635 2.271886 0
M  V30 6 O 3.301126 1.552508 2.245181 0
M  V30 7 C 2.963813 2.411944 1.193860 0
M  V30 8 C 3.865592 3.555812 1.037578 0
M  V30 9 C 4.991160 2.978994 0.341246 0
M  V30 10 C 6.150823 3.622385 -0.103486 0
M  V30 11 C 6.183191 4.975312 0.172328 0
M  V30 12 C 5.142749 5.565931 0.831761 0
M  V30 13 C 4.016852 4.900550 1.255396 0
M  V30 14 N 1.789333 -0.032045 1.330667 0
M  V30 15 C 1.115714 -1.190400 1.199765 0
M  V30 16 C 0.141652 -1.552772 0.222652 0
M  V30 17 C 0.981701 -1.579005 -0.950791 0
M  V30 18 C 0.378070 -1.701444 -2.231434 0
M  V30 19 N -0.972354 -1.801250 -2.400617 0
M  V30 20 C -1.769552 -1.788148 -1.321304 0
M  V30 21 N -3.057074 -1.960598 -1.005445 0
M  V30 22 C -3.246424 -1.965931 0.370928 0
M  V30 23 C -4.528180 -2.292701 1.089573 0
M  V30 24 C -5.698856 -2.367693 0.207248 0
M  V30 25 C -5.824435 -3.680528 -0.561552 0
M  V30 26 N -4.598667 -4.396345 -0.728647 0
M  V30 27 C -3.764917 -4.530158 0.410513 0
M  V30 28 C -4.346245 -3.783212 1.615602 0
M  V30 29 C -2.009133 -1.769063 0.975210 0
M  V30 30 C -1.135379 -1.666705 -0.125126 0
M  V30 31 H 2.409423 -2.612681 3.945178 0
M  V30 32 H 3.593595 -0.437789 4.047914 0
M  V30 33 H 1.927816 2.861032 1.431959 0
M  V30 34 H 2.794636 1.873128 0.266846 0
M  V30 35 H 5.131374 1.908293 0.046538 0
M  V30 36 H 6.995770 3.200279 -0.626851 0
M  V30 37 H 7.016568 5.597103 -0.113181 0
M  V30 38 H 5.084465 6.622157 1.081265 0
M  V30 39 H 3.113803 5.191121 1.776420 0
M  V30 40 H 2.046537 -1.520682 -1.127574 0
M  V30 41 H 0.914182 -1.738726 -3.194944 0
M  V30 42 H -3.732158 -2.059186 -1.783333 0
M  V30 43 H -4.637064 -1.702944 1.978953 0
M  V30 44 H -5.839472 -1.530863 -0.496841 0
M  V30 45 H -6.638140 -2.347825 0.845091 0
M  V30 46 H -6.609137 -4.361512 -0.124683 0
M  V30 47 H -6.182982 -3.438114 -1.590405 0
M  V30 48 H -4.208272 -4.408191 -1.649412 0
M  V30 49 H -3.710219 -5.633453 0.677841 0
M  V30 50 H -2.720029 -4.159442 0.232321 0
M  V30 51 H -3.627226 -3.796636 2.433847 0
M  V30 52 H -5.362799 -4.112528 1.820872 0
M  V30 53 H -1.866439 -1.728233 2.063592 0
M  V30 END ATOM
M  V30 BEGIN BOND
M  V30 1 1 1 2
M  V30 2 2 2 3
M  V30 3 1 3 4
M  V30 4 2 4 5
M  V30 5 1 5 6
M  V30 6 1 6 7
M  V30 7 1 7 8
M  V30 8 2 8 9
M  V30 9 1 9 10
M  V30 10 2 10 11
M  V30 11 1 11 12
M  V30 12 2 12 13
M  V30 13 1 5 14
M  V30 14 2 14 15
M  V30 15 1 15 16
M  V30 16 2 16 17
M  V30 17 1 17 18
M  V30 18 2 18 19
M  V30 19 1 19 20
M  V30 20 1 20 21
M  V30 21 1 21 22
M  V30 22 1 22 23
M  V30 23 1 23 24
M  V30 24 1 24 25
M  V30 25 1 25 26
M  V30 26 1 26 27
M  V30 27 1 27 28
M  V30 28 2 22 29
M  V30 29 1 29 30
M  V30 30 1 15 2
M  V30 31 1 30 16
M  V30 32 1 13 8
M  V30 33 2 30 20
M  V30 34 1 28 23
M  V30 35 1 3 31
M  V30 36 1 4 32
M  V30 37 1 7 33
M  V30 38 1 7 34
M  V30 39 1 9 35
M  V30 40 1 10 36
M  V30 41 1 11 37
M  V30 42 1 12 38
M  V30 43 1 13 39
M  V30 44 1 17 40
M  V30 45 1 18 41
M  V30 46 1 21 42
M  V30 47 1 23 43
M  V30 48 1 24 44
M  V30 49 1 24 45
M  V30 50 1 25 46
M  V30 51 1 25 47
M  V30 52 1 26 48
M  V30 53 1 27 49
M  V30 54 1 27 50
M  V30 55 1 28 51
M  V30 56 1 28 52
M  V30 57 1 29 53
M  V30 END BOND
M  V30 END CTAB
M  END
>  <Dataset>  (136) 
ChEMBL_Kinases

>  <Ligand_Instance>  (136) 
nan

>  <PDB_ID>  (136) 
nan

>  <Standardized_SMILES>  (136) 
Clc1ccc(OCc2ccccc2)nc1-c1ccnc2[nH]c(C3CCNCC3)cc12

>  <Name>  (136) 
nan

>  <Pocket>  (136) 
nan

>  <ATP_Site>  (136) 
nan

>  <Peripheral>  (136) 
nan

>  <Num_H_Atoms_ProtBoundConf>  (136) 
nan

>  <Num_Resolved_Atoms>  (136) 
nan

>  <Num_Not_Resolved_Atoms>  (136) 
nan

$$$$
CHEMBL3663799
     RDKit          3D

  0  0  0  0  0  0  0  0  0  0999 V3000
M  V30 BEGIN CTAB
M  V30 COUNTS 41 44 0 0 0
M  V30 BEGIN ATOM
M  V30 1 C 1.527117 -4.476590 -0.316508 0
M  V30 2 O 1.584175 -3.086840 -0.443757 0
M  V30 3 C 2.671400 -2.388986 0.085274 0
M  V30 4 C 3.688457 -3.060826 0.731913 0
M  V30 5 C 4.801339 -2.468669 1.287424 0
M  V30 6 C 4.876374 -1.082636 1.170672 0
M  V30 7 F 5.947193 -0.416375 1.694127 0
M  V30 8 C 3.900927 -0.351753 0.540577 0
M  V30 9 C 2.801675 -0.998536 -0.001040 0
M  V30 10 C 1.672359 -0.358048 -0.706961 0
M  V30 11 C 1.723672 -0.174738 -2.086875 0
M  V30 12 C 0.633726 0.433718 -2.703719 0
M  V30 13 N -0.442873 0.837721 -2.003460 0
M  V30 14 C -0.503804 0.666731 -0.675209 0
M  V30 15 N -1.417342 0.956134 0.274008 0
M  V30 16 C -1.022644 0.585937 1.493558 0
M  V30 17 C -1.771741 0.747435 2.775840 0
M  V30 18 C -3.038616 -0.095326 2.769186 0
M  V30 19 C -4.068653 0.854168 2.256689 0
M  V30 20 N -3.620229 2.201919 2.481704 0
M  V30 21 C -2.267261 2.135582 2.994342 0
M  V30 22 C 0.240403 0.010885 1.343986 0
M  V30 23 C 0.562473 0.060535 0.001057 0
M  V30 24 H 0.646445 -4.868370 -0.875491 0
M  V30 25 H 1.422252 -4.806101 0.754482 0
M  V30 26 H 2.427647 -4.994775 -0.681787 0
M  V30 27 H 3.606134 -4.145457 0.810057 0
M  V30 28 H 5.566702 -3.042317 1.781845 0
M  V30 29 H 3.907775 0.726347 0.420907 0
M  V30 30 H 2.576343 -0.490202 -2.671521 0
M  V30 31 H 0.602133 0.611096 -3.783449 0
M  V30 32 H -2.318310 1.424247 -0.004273 0
M  V30 33 H -1.152503 0.330997 3.596909 0
M  V30 34 H -3.271469 -0.535579 3.749472 0
M  V30 35 H -2.849215 -0.899504 1.999371 0
M  V30 36 H -4.282319 0.703416 1.181525 0
M  V30 37 H -5.008263 0.664125 2.850921 0
M  V30 38 H -3.733585 2.836816 1.668879 0
M  V30 39 H -2.326503 2.332700 4.086251 0
M  V30 40 H -1.619594 2.935414 2.578788 0
M  V30 41 H 0.881040 -0.410343 2.129370 0
M  V30 END ATOM
M  V30 BEGIN BOND
M  V30 1 1 1 2
M  V30 2 1 2 3
M  V30 3 2 3 4
M  V30 4 1 4 5
M  V30 5 2 5 6
M  V30 6 1 6 7
M  V30 7 1 6 8
M  V30 8 2 8 9
M  V30 9 1 9 10
M  V30 10 2 10 11
M  V30 11 1 11 12
M  V30 12 2 12 13
M  V30 13 1 13 14
M  V30 14 1 14 15
M  V30 15 1 15 16
M  V30 16 1 16 17
M  V30 17 1 17 18
M  V30 18 1 18 19
M  V30 19 1 19 20
M  V30 20 1 20 21
M  V30 21 2 16 22
M  V30 22 1 22 23
M  V30 23 1 9 3
M  V30 24 1 23 10
M  V30 25 2 23 14
M  V30 26 1 21 17
M  V30 27 1 1 24
M  V30 28 1 1 25
M  V30 29 1 1 26
M  V30 30 1 4 27
M  V30 31 1 5 28
M  V30 32 1 8 29
M  V30 33 1 11 30
M  V30 34 1 12 31
M  V30 35 1 15 32
M  V30 36 1 17 33
M  V30 37 1 18 34
M  V30 38 1 18 35
M  V30 39 1 19 36
M  V30 40 1 19 37
M  V30 41 1 20 38
M  V30 42 1 21 39
M  V30 43 1 21 40
M  V30 44 1 22 41
M  V30 END BOND
M  V30 END CTAB
M  END
>  <Dataset>  (137) 
ChEMBL_Kinases

>  <Ligand_Instance>  (137) 
nan

>  <PDB_ID>  (137) 
nan

>  <Standardized_SMILES>  (137) 
COc1ccc(F)cc1-c1ccnc2[nH]c(C3CCNC3)cc12

>  <Name>  (137) 
nan

>  <Pocket>  (137) 
nan

>  <ATP_Site>  (137) 
nan

>  <Peripheral>  (137) 
nan

>  <Num_H_Atoms_ProtBoundConf>  (137) 
nan

>  <Num_Resolved_Atoms>  (137) 
nan

>  <Num_Not_Resolved_Atoms>  (137) 
nan

$$$$
CHEMBL3663800
     RDKit          3D

  0  0  0  0  0  0  0  0  0  0999 V3000
M  V30 BEGIN CTAB
M  V30 COUNTS 41 44 0 0 0
M  V30 BEGIN ATOM
M  V30 1 C 1.728310 -4.469945 -0.019556 0
M  V30 2 O 1.811786 -3.071494 -0.198998 0
M  V30 3 C 2.799447 -2.288918 0.353355 0
M  V30 4 C 3.760370 -2.919403 1.126991 0
M  V30 5 C 4.807230 -2.250388 1.739690 0
M  V30 6 F 5.731503 -2.865778 2.485334 0
M  V30 7 C 4.857424 -0.874307 1.540959 0
M  V30 8 C 3.916558 -0.218299 0.776903 0
M  V30 9 C 2.883396 -0.916743 0.178701 0
M  V30 10 C 1.819551 -0.364432 -0.653111 0
M  V30 11 C 1.950779 -0.248522 -2.039920 0
M  V30 12 C 0.891546 0.289583 -2.772285 0
M  V30 13 N -0.264450 0.707051 -2.197414 0
M  V30 14 C -0.420392 0.607650 -0.859645 0
M  V30 15 N -1.426277 0.929921 -0.027529 0
M  V30 16 C -1.138669 0.652125 1.235736 0
M  V30 17 C -1.891113 0.807436 2.518506 0
M  V30 18 C -3.059532 -0.146488 2.496434 0
M  V30 19 C -4.139446 0.653070 1.824640 0
M  V30 20 N -3.776171 2.031957 1.878067 0
M  V30 21 C -2.564906 2.130022 2.663728 0
M  V30 22 C 0.147340 0.116971 1.169244 0
M  V30 23 C 0.621237 0.076896 -0.126608 0
M  V30 24 H 1.823004 -4.771648 1.047296 0
M  V30 25 H 2.546589 -5.014110 -0.550873 0
M  V30 26 H 0.723869 -4.800775 -0.404505 0
M  V30 27 H 3.708687 -3.995109 1.273709 0
M  V30 28 H 5.657445 -0.300092 1.998508 0
M  V30 29 H 3.911585 0.843917 0.593167 0
M  V30 30 H 2.862009 -0.573482 -2.526406 0
M  V30 31 H 0.961893 0.391727 -3.839636 0
M  V30 32 H -2.327884 1.351344 -0.332141 0
M  V30 33 H -1.238634 0.555016 3.389668 0
M  V30 34 H -3.345444 -0.487219 3.512128 0
M  V30 35 H -2.767924 -1.001751 1.841917 0
M  V30 36 H -4.193398 0.341946 0.737637 0
M  V30 37 H -5.144833 0.454767 2.270843 0
M  V30 38 H -4.578034 2.566106 2.285872 0
M  V30 39 H -2.870255 2.212840 3.728174 0
M  V30 40 H -1.935608 2.991194 2.408542 0
M  V30 41 H 0.714245 -0.228688 2.027958 0
M  V30 END ATOM
M  V30 BEGIN BOND
M  V30 1 1 1 2
M  V30 2 1 2 3
M  V30 3 2 3 4
M  V30 4 1 4 5
M  V30 5 1 5 6
M  V30 6 2 5 7
M  V30 7 1 7 8
M  V30 8 2 8 9
M  V30 9 1 9 10
M  V30 10 2 10 11
M  V30 11 1 11 12
M  V30 12 2 12 13
M  V30 13 1 13 14
M  V30 14 1 14 15
M  V30 15 1 15 16
M  V30 16 1 16 17
M  V30 17 1 17 18
M  V30 18 1 18 19
M  V30 19 1 19 20
M  V30 20 1 20 21
M  V30 21 2 16 22
M  V30 22 1 22 23
M  V30 23 1 9 3
M  V30 24 1 23 10
M  V30 25 2 23 14
M  V30 26 1 21 17
M  V30 27 1 1 24
M  V30 28 1 1 25
M  V30 29 1 1 26
M  V30 30 1 4 27
M  V30 31 1 7 28
M  V30 32 1 8 29
M  V30 33 1 11 30
M  V30 34 1 12 31
M  V30 35 1 15 32
M  V30 36 1 17 33
M  V30 37 1 18 34
M  V30 38 1 18 35
M  V30 39 1 19 36
M  V30 40 1 19 37
M  V30 41 1 20 38
M  V30 42 1 21 39
M  V30 43 1 21 40
M  V30 44 1 22 41
M  V30 END BOND
M  V30 END CTAB
M  END
>  <Dataset>  (138) 
ChEMBL_Kinases

>  <Ligand_Instance>  (138) 
nan

>  <PDB_ID>  (138) 
nan

>  <Standardized_SMILES>  (138) 
COc1cc(F)ccc1-c1ccnc2[nH]c(C3CCNC3)cc12

>  <Name>  (138) 
nan

>  <Pocket>  (138) 
nan

>  <ATP_Site>  (138) 
nan

>  <Peripheral>  (138) 
nan

>  <Num_H_Atoms_ProtBoundConf>  (138) 
nan

>  <Num_Resolved_Atoms>  (138) 
nan

>  <Num_Not_Resolved_Atoms>  (138) 
nan

$$$$
CHEMBL3664542
     RDKit          3D

  0  0  0  0  0  0  0  0  0  0999 V3000
M  V30 BEGIN CTAB
M  V30 COUNTS 58 63 0 0 0
M  V30 BEGIN ATOM
M  V30 1 C 6.193471 -2.809734 2.945765 0
M  V30 2 C 4.985362 -1.924141 3.038487 0
M  V30 3 N 5.059047 -0.806887 2.297138 0
M  V30 4 C 4.001122 0.011506 2.353216 0
M  V30 5 N 3.789587 1.241870 1.683604 0
M  V30 6 C 3.095757 1.697534 0.552571 0
M  V30 7 N 3.087465 2.981527 0.180190 0
M  V30 8 N 2.342770 3.028816 -0.903445 0
M  V30 9 C 1.876065 1.814753 -1.233152 0
M  V30 10 C 2.349331 0.917124 -0.301439 0
M  V30 11 C 1.826873 -0.433146 -0.678037 0
M  V30 12 N 0.607055 -0.073607 -1.379895 0
M  V30 13 C -0.571362 -0.813523 -1.132497 0
M  V30 14 O -0.256444 -1.701794 -0.287641 0
M  V30 15 N -1.863413 -0.651067 -1.678397 0
M  V30 16 C -2.916405 -1.570879 -1.245172 0 CFG=2
M  V30 17 C -4.075600 -1.841602 -2.144374 0
M  V30 18 C -4.288059 -1.000544 -0.935521 0 CFG=1
M  V30 19 C -5.080759 -1.644619 0.137407 0
M  V30 20 C -5.997268 -1.004714 0.934113 0
M  V30 21 C -6.705578 -1.670172 1.921722 0
M  V30 22 C -6.505504 -3.026983 2.137740 0
M  V30 23 C -5.595328 -3.644256 1.340521 0
M  V30 24 C -4.872133 -3.010965 0.347316 0
M  V30 25 C 1.055724 1.036745 -2.189057 0
M  V30 26 C -0.052112 1.854063 -2.792295 0
M  V30 27 C 1.922708 0.457315 -3.277578 0
M  V30 28 C 2.892286 -0.333711 3.166193 0
M  V30 29 S 1.323848 0.454249 3.517420 0
M  V30 30 C 0.709779 -0.902320 4.700614 0
M  V30 31 C 1.807619 -1.831734 4.692175 0
M  V30 32 C 2.871545 -1.497897 3.908868 0
M  V30 33 N 3.973907 -2.296490 3.817193 0
M  V30 34 H 6.438956 -2.897796 1.856625 0
M  V30 35 H 7.040471 -2.347376 3.489646 0
M  V30 36 H 5.969735 -3.808250 3.342633 0
M  V30 37 H 4.355717 1.844565 2.319183 0
M  V30 38 H 3.572635 3.804540 0.646583 0
M  V30 39 H 2.513021 -0.855289 -1.450644 0
M  V30 40 H 1.694252 -1.083009 0.181913 0
M  V30 41 H -1.963885 0.126195 -2.359869 0
M  V30 42 H -2.618873 -2.371279 -0.559602 0
M  V30 43 H -4.534144 -2.852942 -2.189457 0
M  V30 44 H -4.096470 -1.331454 -3.132194 0
M  V30 45 H -4.473438 0.063932 -1.105459 0
M  V30 46 H -6.154478 0.047876 0.769436 0
M  V30 47 H -7.435146 -1.170915 2.560245 0
M  V30 48 H -7.041073 -3.590472 2.903322 0
M  V30 49 H -5.439569 -4.709846 1.512103 0
M  V30 50 H -4.176913 -3.633494 -0.211967 0
M  V30 51 H -0.437091 1.382055 -3.714533 0
M  V30 52 H 0.450071 2.798756 -3.159847 0
M  V30 53 H -0.797403 2.195756 -2.076985 0
M  V30 54 H 1.640500 -0.581101 -3.543097 0
M  V30 55 H 3.005311 0.491454 -3.010819 0
M  V30 56 H 1.835442 1.060072 -4.222588 0
M  V30 57 H -0.230935 -0.938749 5.229911 0
M  V30 58 H 1.636558 -2.685796 5.318977 0
M  V30 END ATOM
M  V30 BEGIN BOND
M  V30 1 1 1 2
M  V30 2 2 2 3
M  V30 3 1 3 4
M  V30 4 1 4 5
M  V30 5 1 5 6
M  V30 6 1 6 7
M  V30 7 1 7 8
M  V30 8 2 8 9
M  V30 9 1 9 10
M  V30 10 1 10 11
M  V30 11 1 11 12
M  V30 12 1 12 13
M  V30 13 2 13 14
M  V30 14 1 13 15
M  V30 15 1 15 16
M  V30 16 1 16 17
M  V30 17 1 17 18
M  V30 18 1 18 19
M  V30 19 2 19 20
M  V30 20 1 20 21
M  V30 21 2 21 22
M  V30 22 1 22 23
M  V30 23 2 23 24
M  V30 24 1 12 25
M  V30 25 1 25 26
M  V30 26 1 25 27
M  V30 27 2 4 28
M  V30 28 1 28 29
M  V30 29 1 29 30
M  V30 30 2 30 31
M  V30 31 1 31 32
M  V30 32 2 32 33
M  V30 33 1 33 2
M  V30 34 2 10 6
M  V30 35 1 18 16
M  V30 36 1 24 19
M  V30 37 1 32 28
M  V30 38 1 25 9
M  V30 39 1 1 34
M  V30 40 1 1 35
M  V30 41 1 1 36
M  V30 42 1 5 37
M  V30 43 1 7 38
M  V30 44 1 11 39
M  V30 45 1 11 40
M  V30 46 1 15 41
M  V30 47 1 16 42 CFG=1
M  V30 48 1 17 43
M  V30 49 1 17 44
M  V30 50 1 18 45 CFG=3
M  V30 51 1 20 46
M  V30 52 1 21 47
M  V30 53 1 22 48
M  V30 54 1 23 49
M  V30 55 1 24 50
M  V30 56 1 26 51
M  V30 57 1 26 52
M  V30 58 1 26 53
M  V30 59 1 27 54
M  V30 60 1 27 55
M  V30 61 1 27 56
M  V30 62 1 30 57
M  V30 63 1 31 58
M  V30 END BOND
M  V30 END CTAB
M  END
>  <Dataset>  (139) 
ChEMBL_Kinases

>  <Ligand_Instance>  (139) 
nan

>  <PDB_ID>  (139) 
nan

>  <Standardized_SMILES>  (139) 
Cc1nc(Nc2[nH]nc3c2CN(C(=O)N[C@@H]2C[C@H]2c2ccccc2)C3(C)C)c2sccc2n1

>  <Name>  (139) 
nan

>  <Pocket>  (139) 
nan

>  <ATP_Site>  (139) 
nan

>  <Peripheral>  (139) 
nan

>  <Num_H_Atoms_ProtBoundConf>  (139) 
nan

>  <Num_Resolved_Atoms>  (139) 
nan

>  <Num_Not_Resolved_Atoms>  (139) 
nan

$$$$
CHEMBL3663802
     RDKit          3D

  0  0  0  0  0  0  0  0  0  0999 V3000
M  V30 BEGIN CTAB
M  V30 COUNTS 41 44 0 0 0
M  V30 BEGIN ATOM
M  V30 1 C 1.522545 -3.828474 -1.420348 0
M  V30 2 O 1.312583 -2.435006 -1.332920 0
M  V30 3 C 2.269390 -1.533984 -0.879371 0
M  V30 4 C 3.491114 -2.079143 -0.499492 0
M  V30 5 C 4.460448 -1.212740 -0.045465 0
M  V30 6 C 4.285679 0.155682 0.051818 0
M  V30 7 F 5.244296 1.003570 0.499769 0
M  V30 8 C 3.064826 0.684264 -0.329693 0
M  V30 9 C 2.069020 -0.152368 -0.789841 0
M  V30 10 C 0.734695 0.244443 -1.228066 0
M  V30 11 C 0.399744 0.582773 -2.523217 0
M  V30 12 C -0.879601 0.951810 -2.886706 0
M  V30 13 N -1.815146 0.970424 -1.905166 0
M  V30 14 C -1.505835 0.643679 -0.638103 0
M  V30 15 N -2.311642 0.610684 0.450834 0
M  V30 16 C -1.568212 0.227240 1.501101 0
M  V30 17 C -2.041661 0.056520 2.892540 0 CFG=2
M  V30 18 C -1.344615 1.014833 3.830728 0
M  V30 19 C -1.336582 0.158465 5.104878 0
M  V30 20 N -0.834896 -1.094306 4.519849 0
M  V30 21 C -1.818586 -1.301905 3.463724 0
M  V30 22 C -0.256229 -0.003536 1.140645 0
M  V30 23 C -0.223262 0.265240 -0.231656 0
M  V30 24 H 2.436141 -4.041305 -2.019130 0
M  V30 25 H 1.631582 -4.317402 -0.433721 0
M  V30 26 H 0.670445 -4.260761 -1.979353 0
M  V30 27 H 3.656822 -3.146230 -0.564665 0
M  V30 28 H 5.421514 -1.646868 0.252744 0
M  V30 29 H 2.813229 1.746042 -0.296364 0
M  V30 30 H 1.245127 0.523319 -3.198477 0
M  V30 31 H -1.064775 1.203856 -3.925500 0
M  V30 32 H -3.329655 0.835453 0.503627 0
M  V30 33 H -3.134356 0.289860 2.989094 0
M  V30 34 H -0.325817 1.288740 3.529034 0
M  V30 35 H -1.969056 1.905307 4.085617 0
M  V30 36 H -2.396709 0.037214 5.423917 0
M  V30 37 H -0.700798 0.557818 5.890897 0
M  V30 38 H -0.769499 -1.862295 5.194527 0
M  V30 39 H -2.724970 -1.764834 3.920340 0
M  V30 40 H -1.438301 -2.057470 2.750222 0
M  V30 41 H 0.613840 -0.314660 1.686430 0
M  V30 END ATOM
M  V30 BEGIN BOND
M  V30 1 1 1 2
M  V30 2 1 2 3
M  V30 3 2 3 4
M  V30 4 1 4 5
M  V30 5 2 5 6
M  V30 6 1 6 7
M  V30 7 1 6 8
M  V30 8 2 8 9
M  V30 9 1 9 10
M  V30 10 2 10 11
M  V30 11 1 11 12
M  V30 12 2 12 13
M  V30 13 1 13 14
M  V30 14 1 14 15
M  V30 15 1 15 16
M  V30 16 1 16 17
M  V30 17 1 17 18
M  V30 18 1 18 19
M  V30 19 1 19 20
M  V30 20 1 20 21
M  V30 21 2 16 22
M  V30 22 1 22 23
M  V30 23 1 9 3
M  V30 24 1 23 10
M  V30 25 2 23 14
M  V30 26 1 21 17
M  V30 27 1 1 24
M  V30 28 1 1 25
M  V30 29 1 1 26
M  V30 30 1 4 27
M  V30 31 1 5 28
M  V30 32 1 8 29
M  V30 33 1 11 30
M  V30 34 1 12 31
M  V30 35 1 15 32
M  V30 36 1 17 33 CFG=3
M  V30 37 1 18 34
M  V30 38 1 18 35
M  V30 39 1 19 36
M  V30 40 1 19 37
M  V30 41 1 20 38
M  V30 42 1 21 39
M  V30 43 1 21 40
M  V30 44 1 22 41
M  V30 END BOND
M  V30 END CTAB
M  END
>  <Dataset>  (140) 
ChEMBL_Kinases

>  <Ligand_Instance>  (140) 
nan

>  <PDB_ID>  (140) 
nan

>  <Standardized_SMILES>  (140) 
COc1ccc(F)cc1-c1ccnc2[nH]c([C@@H]3CCNC3)cc12

>  <Name>  (140) 
nan

>  <Pocket>  (140) 
nan

>  <ATP_Site>  (140) 
nan

>  <Peripheral>  (140) 
nan

>  <Num_H_Atoms_ProtBoundConf>  (140) 
nan

>  <Num_Resolved_Atoms>  (140) 
nan

>  <Num_Not_Resolved_Atoms>  (140) 
nan

$$$$
CHEMBL3663803
     RDKit          3D

  0  0  0  0  0  0  0  0  0  0999 V3000
M  V30 BEGIN CTAB
M  V30 COUNTS 44 47 0 0 0
M  V30 BEGIN ATOM
M  V30 1 C -2.366502 -3.796554 -0.726826 0
M  V30 2 O -1.432907 -2.786172 -1.064870 0
M  V30 3 C -0.079647 -3.097508 -1.059053 0
M  V30 4 C 0.462243 -4.326749 -0.748334 0
M  V30 5 C 1.831346 -4.496961 -0.782861 0
M  V30 6 C 2.683342 -3.453366 -1.125288 0
M  V30 7 F 4.042562 -3.659257 -1.149256 0
M  V30 8 C 2.139666 -2.219652 -1.437152 0
M  V30 9 C 0.751006 -2.049190 -1.401519 0
M  V30 10 C 0.372024 -0.682068 -1.760459 0
M  V30 11 C 0.105856 -0.279254 -3.072795 0
M  V30 12 C -0.248955 1.014877 -3.381928 0
M  V30 13 N -0.342724 1.914188 -2.403574 0
M  V30 14 C -0.091359 1.550101 -1.133159 0
M  V30 15 N -0.124641 2.289509 0.013530 0
M  V30 16 C 0.202167 1.507411 1.078047 0
M  V30 17 C 0.280636 1.935189 2.504752 0
M  V30 18 C 1.656010 1.730381 3.099128 0
M  V30 19 C 1.446448 0.607484 4.064827 0
M  V30 20 N 0.127926 0.888840 4.606845 0
M  V30 21 C 0.218970 2.152546 5.325612 0
M  V30 22 C -0.651085 1.107418 3.382042 0
M  V30 23 C 0.452634 0.234308 0.612239 0
M  V30 24 C 0.269946 0.265320 -0.755509 0
M  V30 25 H -2.341845 -4.014263 0.365687 0
M  V30 26 H -3.395428 -3.545738 -0.981125 0
M  V30 27 H -2.119691 -4.769914 -1.231925 0
M  V30 28 H -0.239522 -5.119818 -0.484869 0
M  V30 29 H 2.257384 -5.449062 -0.542571 0
M  V30 30 H 2.862903 -1.455049 -1.693971 0
M  V30 31 H 0.191804 -1.035954 -3.841015 0
M  V30 32 H -0.441623 1.267993 -4.405036 0
M  V30 33 H -0.369993 3.305462 0.029995 0
M  V30 34 H 0.026593 3.017325 2.578420 0
M  V30 35 H 2.080126 2.641813 3.564162 0
M  V30 36 H 2.364468 1.356865 2.306319 0
M  V30 37 H 2.206428 0.594421 4.879954 0
M  V30 38 H 1.467503 -0.336206 3.499179 0
M  V30 39 H -0.681354 2.351014 5.943779 0
M  V30 40 H 0.343240 2.981181 4.595050 0
M  V30 41 H 1.112869 2.049138 5.991856 0
M  V30 42 H -1.586404 1.657275 3.574611 0
M  V30 43 H -0.782249 0.130334 2.885374 0
M  V30 44 H 0.737714 -0.648477 1.159278 0
M  V30 END ATOM
M  V30 BEGIN BOND
M  V30 1 1 1 2
M  V30 2 1 2 3
M  V30 3 2 3 4
M  V30 4 1 4 5
M  V30 5 2 5 6
M  V30 6 1 6 7
M  V30 7 1 6 8
M  V30 8 2 8 9
M  V30 9 1 9 10
M  V30 10 2 10 11
M  V30 11 1 11 12
M  V30 12 2 12 13
M  V30 13 1 13 14
M  V30 14 1 14 15
M  V30 15 1 15 16
M  V30 16 1 16 17
M  V30 17 1 17 18
M  V30 18 1 18 19
M  V30 19 1 19 20
M  V30 20 1 20 21
M  V30 21 1 20 22
M  V30 22 2 16 23
M  V30 23 1 23 24
M  V30 24 1 9 3
M  V30 25 1 24 10
M  V30 26 2 24 14
M  V30 27 1 22 17
M  V30 28 1 1 25
M  V30 29 1 1 26
M  V30 30 1 1 27
M  V30 31 1 4 28
M  V30 32 1 5 29
M  V30 33 1 8 30
M  V30 34 1 11 31
M  V30 35 1 12 32
M  V30 36 1 15 33
M  V30 37 1 17 34
M  V30 38 1 18 35
M  V30 39 1 18 36
M  V30 40 1 19 37
M  V30 41 1 19 38
M  V30 42 1 21 39
M  V30 43 1 21 40
M  V30 44 1 21 41
M  V30 45 1 22 42
M  V30 46 1 22 43
M  V30 47 1 23 44
M  V30 END BOND
M  V30 END CTAB
M  END
>  <Dataset>  (141) 
ChEMBL_Kinases

>  <Ligand_Instance>  (141) 
nan

>  <PDB_ID>  (141) 
nan

>  <Standardized_SMILES>  (141) 
COc1ccc(F)cc1-c1ccnc2[nH]c(C3CCN(C)C3)cc12

>  <Name>  (141) 
nan

>  <Pocket>  (141) 
nan

>  <ATP_Site>  (141) 
nan

>  <Peripheral>  (141) 
nan

>  <Num_H_Atoms_ProtBoundConf>  (141) 
nan

>  <Num_Resolved_Atoms>  (141) 
nan

>  <Num_Not_Resolved_Atoms>  (141) 
nan

$$$$
CHEMBL3663804
     RDKit          3D

  0  0  0  0  0  0  0  0  0  0999 V3000
M  V30 BEGIN CTAB
M  V30 COUNTS 51 55 0 0 0
M  V30 BEGIN ATOM
M  V30 1 Cl 1.234817 -1.894014 4.840320 0
M  V30 2 C 1.879203 -1.637813 3.244517 0
M  V30 3 C 3.087380 -2.099968 2.765727 0
M  V30 4 C 3.504457 -1.826560 1.464441 0
M  V30 5 C 2.690686 -1.069438 0.620201 0
M  V30 6 N 3.107590 -0.765142 -0.711702 0
M  V30 7 C 2.509619 0.411425 -1.396022 0
M  V30 8 C 2.939660 1.644241 -0.642622 0
M  V30 9 C 4.178183 2.132151 -1.091339 0
M  V30 10 C 4.841098 3.249233 -0.563200 0
M  V30 11 C 4.222453 3.919883 0.482816 0
M  V30 12 C 3.014477 3.447228 0.919449 0
M  V30 13 C 2.373200 2.349195 0.392519 0
M  V30 14 N 1.539929 -0.657975 1.142234 0
M  V30 15 C 1.079284 -0.883028 2.377906 0
M  V30 16 C -0.256352 -0.355471 2.648462 0
M  V30 17 C -0.318182 0.744478 3.480149 0
M  V30 18 C -1.585813 1.300667 3.693362 0
M  V30 19 N -2.680608 0.773899 3.107596 0
M  V30 20 C -2.604031 -0.296598 2.303204 0
M  V30 21 N -3.498484 -1.034658 1.646707 0
M  V30 22 C -2.963107 -2.057704 0.991741 0
M  V30 23 C -3.656632 -3.102241 0.208985 0
M  V30 24 C -4.755508 -2.522584 -0.638986 0
M  V30 25 C -4.849198 -3.526890 -1.774528 0
M  V30 26 N -3.546001 -4.098115 -1.942453 0
M  V30 27 C -2.769822 -3.806260 -0.756470 0
M  V30 28 C -1.580616 -2.013319 1.216727 0
M  V30 29 C -1.386882 -0.903166 2.041448 0
M  V30 30 H 3.690509 -2.691541 3.474969 0
M  V30 31 H 4.464177 -2.212486 1.134378 0
M  V30 32 H 3.799448 -1.335523 -1.205285 0
M  V30 33 H 2.809210 0.465404 -2.446638 0
M  V30 34 H 1.412118 0.342466 -1.310977 0
M  V30 35 H 4.746087 1.695487 -1.900601 0
M  V30 36 H 5.778548 3.609150 -0.914477 0
M  V30 37 H 4.680180 4.772812 0.923896 0
M  V30 38 H 2.477568 3.929202 1.736970 0
M  V30 39 H 1.417749 1.980992 0.717264 0
M  V30 40 H 0.561441 1.180372 3.959405 0
M  V30 41 H -1.582100 2.177822 4.358966 0
M  V30 42 H -4.526702 -0.852897 1.626323 0
M  V30 43 H -4.126212 -3.847713 0.919167 0
M  V30 44 H -5.694553 -2.532226 -0.027846 0
M  V30 45 H -4.460807 -1.535857 -0.991408 0
M  V30 46 H -5.588853 -4.313334 -1.452168 0
M  V30 47 H -5.251884 -3.050450 -2.700354 0
M  V30 48 H -3.064417 -3.761598 -2.789140 0
M  V30 49 H -2.338915 -4.754707 -0.332794 0
M  V30 50 H -1.908203 -3.163567 -0.998595 0
M  V30 51 H -0.797486 -2.649974 0.872418 0
M  V30 END ATOM
M  V30 BEGIN BOND
M  V30 1 1 1 2
M  V30 2 2 2 3
M  V30 3 1 3 4
M  V30 4 2 4 5
M  V30 5 1 5 6
M  V30 6 1 6 7
M  V30 7 1 7 8
M  V30 8 2 8 9
M  V30 9 1 9 10
M  V30 10 2 10 11
M  V30 11 1 11 12
M  V30 12 2 12 13
M  V30 13 1 5 14
M  V30 14 2 14 15
M  V30 15 1 15 16
M  V30 16 2 16 17
M  V30 17 1 17 18
M  V30 18 2 18 19
M  V30 19 1 19 20
M  V30 20 1 20 21
M  V30 21 1 21 22
M  V30 22 1 22 23
M  V30 23 1 23 24
M  V30 24 1 24 25
M  V30 25 1 25 26
M  V30 26 1 26 27
M  V30 27 2 22 28
M  V30 28 1 28 29
M  V30 29 1 15 2
M  V30 30 1 29 16
M  V30 31 1 13 8
M  V30 32 2 29 20
M  V30 33 1 27 23
M  V30 34 1 3 30
M  V30 35 1 4 31
M  V30 36 1 6 32
M  V30 37 1 7 33
M  V30 38 1 7 34
M  V30 39 1 9 35
M  V30 40 1 10 36
M  V30 41 1 11 37
M  V30 42 1 12 38
M  V30 43 1 13 39
M  V30 44 1 17 40
M  V30 45 1 18 41
M  V30 46 1 21 42
M  V30 47 1 23 43
M  V30 48 1 24 44
M  V30 49 1 24 45
M  V30 50 1 25 46
M  V30 51 1 25 47
M  V30 52 1 26 48
M  V30 53 1 27 49
M  V30 54 1 27 50
M  V30 55 1 28 51
M  V30 END BOND
M  V30 END CTAB
M  END
>  <Dataset>  (142) 
ChEMBL_Kinases

>  <Ligand_Instance>  (142) 
nan

>  <PDB_ID>  (142) 
nan

>  <Standardized_SMILES>  (142) 
Clc1ccc(NCc2ccccc2)nc1-c1ccnc2[nH]c(C3CCNC3)cc12

>  <Name>  (142) 
nan

>  <Pocket>  (142) 
nan

>  <ATP_Site>  (142) 
nan

>  <Peripheral>  (142) 
nan

>  <Num_H_Atoms_ProtBoundConf>  (142) 
nan

>  <Num_Resolved_Atoms>  (142) 
nan

>  <Num_Not_Resolved_Atoms>  (142) 
nan

$$$$
CHEMBL3663805
     RDKit          3D

  0  0  0  0  0  0  0  0  0  0999 V3000
M  V30 BEGIN CTAB
M  V30 COUNTS 55 59 0 0 0
M  V30 BEGIN ATOM
M  V30 1 Cl -1.292864 -1.643991 5.693953 0
M  V30 2 C 0.020959 -1.487728 4.557802 0
M  V30 3 C 1.303202 -1.984584 4.669800 0
M  V30 4 C 2.245545 -1.769063 3.662834 0
M  V30 5 C 1.886775 -1.042303 2.528447 0
M  V30 6 N 2.870780 -0.790161 1.500603 0
M  V30 7 C 2.362817 -0.019322 0.377858 0
M  V30 8 C 3.415579 0.325676 -0.645350 0
M  V30 9 C 4.487466 1.149223 0.003273 0
M  V30 10 C 3.957231 2.557370 0.183532 0
M  V30 11 O 3.786771 3.141188 -1.034799 0
M  V30 12 C 3.376179 2.374266 -2.079514 0
M  V30 13 C 2.716231 1.073365 -1.751821 0
M  V30 14 N 0.635097 -0.591491 2.480216 0
M  V30 15 C -0.299831 -0.771270 3.417122 0
M  V30 16 C -1.576523 -0.138335 3.034085 0
M  V30 17 C -2.176069 0.887096 3.756333 0
M  V30 18 C -3.355905 1.405613 3.266128 0
M  V30 19 N -3.941111 0.967519 2.138191 0
M  V30 20 C -3.372138 -0.038585 1.412527 0
M  V30 21 N -3.705919 -0.695613 0.272003 0
M  V30 22 C -2.799091 -1.637377 -0.029764 0
M  V30 23 C -2.731046 -2.599592 -1.125986 0
M  V30 24 C -3.792509 -3.707941 -0.963051 0
M  V30 25 C -3.609275 -4.384205 -2.308937 0
M  V30 26 N -3.570479 -3.262289 -3.233453 0
M  V30 27 C -3.105478 -2.105036 -2.478179 0
M  V30 28 C -1.812080 -1.599013 0.966194 0
M  V30 29 C -2.181660 -0.594316 1.864621 0
M  V30 30 H 1.492871 -2.529155 5.570048 0
M  V30 31 H 3.234771 -2.182416 3.804784 0
M  V30 32 H 3.827433 -1.160068 1.636008 0
M  V30 33 H 1.839921 0.878917 0.761644 0
M  V30 34 H 1.583984 -0.597816 -0.180489 0
M  V30 35 H 3.891105 -0.611227 -1.005098 0
M  V30 36 H 4.856613 0.745530 0.955622 0
M  V30 37 H 5.395041 1.243763 -0.666941 0
M  V30 38 H 2.988067 2.541135 0.746815 0
M  V30 39 H 4.704658 3.191472 0.733662 0
M  V30 40 H 4.208050 2.237654 -2.834258 0
M  V30 41 H 2.588399 2.983469 -2.627083 0
M  V30 42 H 1.623164 1.173540 -1.581761 0
M  V30 43 H 2.787527 0.438926 -2.685538 0
M  V30 44 H -1.674073 1.210485 4.659103 0
M  V30 45 H -3.834266 2.217806 3.832740 0
M  V30 46 H -4.566962 -0.488437 -0.302080 0
M  V30 47 H -1.769208 -3.160556 -1.196050 0
M  V30 48 H -3.557197 -4.383451 -0.124659 0
M  V30 49 H -4.788346 -3.298816 -0.799495 0
M  V30 50 H -4.402090 -5.119043 -2.528156 0
M  V30 51 H -2.599561 -4.873340 -2.275358 0
M  V30 52 H -4.553450 -3.118881 -3.569900 0
M  V30 53 H -2.211734 -1.711517 -2.986365 0
M  V30 54 H -3.941383 -1.360186 -2.408999 0
M  V30 55 H -0.920903 -2.227825 1.044385 0
M  V30 END ATOM
M  V30 BEGIN BOND
M  V30 1 1 1 2
M  V30 2 2 2 3
M  V30 3 1 3 4
M  V30 4 2 4 5
M  V30 5 1 5 6
M  V30 6 1 6 7
M  V30 7 1 7 8
M  V30 8 1 8 9
M  V30 9 1 9 10
M  V30 10 1 10 11
M  V30 11 1 11 12
M  V30 12 1 12 13
M  V30 13 1 5 14
M  V30 14 2 14 15
M  V30 15 1 15 16
M  V30 16 2 16 17
M  V30 17 1 17 18
M  V30 18 2 18 19
M  V30 19 1 19 20
M  V30 20 1 20 21
M  V30 21 1 21 22
M  V30 22 1 22 23
M  V30 23 1 23 24
M  V30 24 1 24 25
M  V30 25 1 25 26
M  V30 26 1 26 27
M  V30 27 2 22 28
M  V30 28 1 28 29
M  V30 29 1 15 2
M  V30 30 1 29 16
M  V30 31 1 13 8
M  V30 32 2 29 20
M  V30 33 1 27 23
M  V30 34 1 3 30
M  V30 35 1 4 31
M  V30 36 1 6 32
M  V30 37 1 7 33
M  V30 38 1 7 34
M  V30 39 1 8 35
M  V30 40 1 9 36
M  V30 41 1 9 37
M  V30 42 1 10 38
M  V30 43 1 10 39
M  V30 44 1 12 40
M  V30 45 1 12 41
M  V30 46 1 13 42
M  V30 47 1 13 43
M  V30 48 1 17 44
M  V30 49 1 18 45
M  V30 50 1 21 46
M  V30 51 1 23 47
M  V30 52 1 24 48
M  V30 53 1 24 49
M  V30 54 1 25 50
M  V30 55 1 25 51
M  V30 56 1 26 52
M  V30 57 1 27 53
M  V30 58 1 27 54
M  V30 59 1 28 55
M  V30 END BOND
M  V30 END CTAB
M  END
>  <Dataset>  (143) 
ChEMBL_Kinases

>  <Ligand_Instance>  (143) 
nan

>  <PDB_ID>  (143) 
nan

>  <Standardized_SMILES>  (143) 
Clc1ccc(NCC2CCOCC2)nc1-c1ccnc2[nH]c(C3CCNC3)cc12

>  <Name>  (143) 
nan

>  <Pocket>  (143) 
nan

>  <ATP_Site>  (143) 
nan

>  <Peripheral>  (143) 
nan

>  <Num_H_Atoms_ProtBoundConf>  (143) 
nan

>  <Num_Resolved_Atoms>  (143) 
nan

>  <Num_Not_Resolved_Atoms>  (143) 
nan

$$$$
CHEMBL3663806
     RDKit          3D

  0  0  0  0  0  0  0  0  0  0999 V3000
M  V30 BEGIN CTAB
M  V30 COUNTS 42 45 0 0 0
M  V30 BEGIN ATOM
M  V30 1 C -1.805979 -4.005718 -0.000309 0
M  V30 2 O -0.931244 -3.019663 -0.521167 0
M  V30 3 C 0.424550 -3.306602 -0.624970 0
M  V30 4 C 0.994135 -4.506358 -0.250339 0
M  V30 5 C 2.348611 -4.737316 -0.375628 0
M  V30 6 F 2.918736 -5.914627 -0.009787 0
M  V30 7 C 3.203683 -3.758026 -0.890747 0
M  V30 8 C 2.566818 -2.585220 -1.244264 0
M  V30 9 C 1.221863 -2.286548 -1.146725 0
M  V30 10 C 0.677350 -1.021142 -1.550781 0
M  V30 11 C 0.240181 -0.841988 -2.852125 0
M  V30 12 C -0.287434 0.395093 -3.230974 0
M  V30 13 N -0.390559 1.431199 -2.377761 0
M  V30 14 C 0.037812 1.257521 -1.100418 0
M  V30 15 N 0.059975 2.099874 -0.040470 0
M  V30 16 C 0.584993 1.453447 1.018937 0
M  V30 17 C 0.724674 2.156419 2.322216 0
M  V30 18 C 1.187057 1.230137 3.389272 0
M  V30 19 N 0.846955 1.617049 4.725930 0
M  V30 20 C -0.603840 1.810180 4.736927 0
M  V30 21 C -0.843062 2.976463 3.835683 0
M  V30 22 O -0.440647 2.821751 2.547744 0
M  V30 23 C 0.911759 0.173269 0.653496 0
M  V30 24 C 0.564907 0.050956 -0.687741 0
M  V30 25 H -1.777824 -4.012416 1.126795 0
M  V30 26 H -2.866534 -3.773648 -0.233325 0
M  V30 27 H -1.615665 -5.018642 -0.351154 0
M  V30 28 H 0.348208 -5.280507 0.152111 0
M  V30 29 H 4.267785 -3.849305 -1.024130 0
M  V30 30 H 3.201669 -1.790467 -1.652940 0
M  V30 31 H 0.314486 -1.668060 -3.559719 0
M  V30 32 H -0.608999 0.460397 -4.265800 0
M  V30 33 H -0.295873 3.093314 -0.110253 0
M  V30 34 H 1.527192 2.918900 2.171058 0
M  V30 35 H 0.746542 0.227788 3.207464 0
M  V30 36 H 2.288168 1.094049 3.358708 0
M  V30 37 H 1.064550 0.819623 5.358169 0
M  V30 38 H -1.093144 0.897030 4.327586 0
M  V30 39 H -0.957299 2.080753 5.752810 0
M  V30 40 H -1.927323 3.226348 3.852426 0
M  V30 41 H -0.306762 3.844789 4.294917 0
M  V30 42 H 1.344418 -0.552642 1.300991 0
M  V30 END ATOM
M  V30 BEGIN BOND
M  V30 1 1 1 2
M  V30 2 1 2 3
M  V30 3 2 3 4
M  V30 4 1 4 5
M  V30 5 1 5 6
M  V30 6 2 5 7
M  V30 7 1 7 8
M  V30 8 2 8 9
M  V30 9 1 9 10
M  V30 10 2 10 11
M  V30 11 1 11 12
M  V30 12 2 12 13
M  V30 13 1 13 14
M  V30 14 1 14 15
M  V30 15 1 15 16
M  V30 16 1 16 17
M  V30 17 1 17 18
M  V30 18 1 18 19
M  V30 19 1 19 20
M  V30 20 1 20 21
M  V30 21 1 21 22
M  V30 22 2 16 23
M  V30 23 1 23 24
M  V30 24 1 9 3
M  V30 25 1 24 10
M  V30 26 2 24 14
M  V30 27 1 22 17
M  V30 28 1 1 25
M  V30 29 1 1 26
M  V30 30 1 1 27
M  V30 31 1 4 28
M  V30 32 1 7 29
M  V30 33 1 8 30
M  V30 34 1 11 31
M  V30 35 1 12 32
M  V30 36 1 15 33
M  V30 37 1 17 34
M  V30 38 1 18 35
M  V30 39 1 18 36
M  V30 40 1 19 37
M  V30 41 1 20 38
M  V30 42 1 20 39
M  V30 43 1 21 40
M  V30 44 1 21 41
M  V30 45 1 23 42
M  V30 END BOND
M  V30 END CTAB
M  END
>  <Dataset>  (144) 
ChEMBL_Kinases

>  <Ligand_Instance>  (144) 
nan

>  <PDB_ID>  (144) 
nan

>  <Standardized_SMILES>  (144) 
COc1cc(F)ccc1-c1ccnc2[nH]c(C3CNCCO3)cc12

>  <Name>  (144) 
nan

>  <Pocket>  (144) 
nan

>  <ATP_Site>  (144) 
nan

>  <Peripheral>  (144) 
nan

>  <Num_H_Atoms_ProtBoundConf>  (144) 
nan

>  <Num_Resolved_Atoms>  (144) 
nan

>  <Num_Not_Resolved_Atoms>  (144) 
nan

$$$$
CHEMBL3663807
     RDKit          3D

  0  0  0  0  0  0  0  0  0  0999 V3000
M  V30 BEGIN CTAB
M  V30 COUNTS 42 45 0 0 0
M  V30 BEGIN ATOM
M  V30 1 C -1.654087 -3.883323 0.554597 0
M  V30 2 O -0.867799 -2.907098 -0.120760 0
M  V30 3 C 0.475897 -3.206614 -0.303776 0
M  V30 4 C 1.136206 -4.352222 0.099025 0
M  V30 5 C 2.483489 -4.511393 -0.154137 0
M  V30 6 C 3.230032 -3.535366 -0.819628 0
M  V30 7 F 4.532521 -3.792624 -1.013373 0
M  V30 8 C 2.552731 -2.397158 -1.214592 0
M  V30 9 C 1.204033 -2.216343 -0.971764 0
M  V30 10 C 0.601643 -0.990435 -1.428464 0
M  V30 11 C 0.039312 -0.861663 -2.685485 0
M  V30 12 C -0.514523 0.354712 -3.032391 0
M  V30 13 N -0.544933 1.429920 -2.226663 0
M  V30 14 C 0.005119 1.303756 -0.997262 0
M  V30 15 N 0.092000 2.238372 -0.022325 0
M  V30 16 C 0.715523 1.678326 1.030250 0
M  V30 17 C 0.979700 2.418940 2.276115 0
M  V30 18 C 1.437434 1.554529 3.410862 0
M  V30 19 N 0.455969 0.520520 3.676806 0
M  V30 20 C -0.882864 0.980274 3.482834 0
M  V30 21 C -0.995973 2.485874 3.513153 0
M  V30 22 O -0.147901 3.114944 2.631008 0
M  V30 23 C 1.019837 0.375346 0.701790 0
M  V30 24 C 0.574047 0.111995 -0.593661 0
M  V30 25 H -1.456178 -3.884321 1.647169 0
M  V30 26 H -2.749392 -3.657830 0.465980 0
M  V30 27 H -1.461918 -4.916037 0.190280 0
M  V30 28 H 0.527125 -5.084676 0.610460 0
M  V30 29 H 2.939309 -5.441503 0.192655 0
M  V30 30 H 3.165807 -1.652238 -1.733159 0
M  V30 31 H 0.036924 -1.709601 -3.384792 0
M  V30 32 H -0.968478 0.483399 -4.026916 0
M  V30 33 H -0.269386 3.224603 -0.091203 0
M  V30 34 H 1.793548 3.186871 2.128066 0
M  V30 35 H 1.481264 2.212794 4.309784 0
M  V30 36 H 2.443680 1.132798 3.245887 0
M  V30 37 H 0.642373 -0.002382 4.542423 0
M  V30 38 H -1.391483 0.540294 2.596036 0
M  V30 39 H -1.485768 0.622974 4.369204 0
M  V30 40 H -2.056286 2.744357 3.308382 0
M  V30 41 H -0.772093 2.832138 4.542545 0
M  V30 42 H 1.518432 -0.337457 1.326752 0
M  V30 END ATOM
M  V30 BEGIN BOND
M  V30 1 1 1 2
M  V30 2 1 2 3
M  V30 3 2 3 4
M  V30 4 1 4 5
M  V30 5 2 5 6
M  V30 6 1 6 7
M  V30 7 1 6 8
M  V30 8 2 8 9
M  V30 9 1 9 10
M  V30 10 2 10 11
M  V30 11 1 11 12
M  V30 12 2 12 13
M  V30 13 1 13 14
M  V30 14 1 14 15
M  V30 15 1 15 16
M  V30 16 1 16 17
M  V30 17 1 17 18
M  V30 18 1 18 19
M  V30 19 1 19 20
M  V30 20 1 20 21
M  V30 21 1 21 22
M  V30 22 2 16 23
M  V30 23 1 23 24
M  V30 24 1 9 3
M  V30 25 1 24 10
M  V30 26 2 24 14
M  V30 27 1 22 17
M  V30 28 1 1 25
M  V30 29 1 1 26
M  V30 30 1 1 27
M  V30 31 1 4 28
M  V30 32 1 5 29
M  V30 33 1 8 30
M  V30 34 1 11 31
M  V30 35 1 12 32
M  V30 36 1 15 33
M  V30 37 1 17 34
M  V30 38 1 18 35
M  V30 39 1 18 36
M  V30 40 1 19 37
M  V30 41 1 20 38
M  V30 42 1 20 39
M  V30 43 1 21 40
M  V30 44 1 21 41
M  V30 45 1 23 42
M  V30 END BOND
M  V30 END CTAB
M  END
>  <Dataset>  (145) 
ChEMBL_Kinases

>  <Ligand_Instance>  (145) 
nan

>  <PDB_ID>  (145) 
nan

>  <Standardized_SMILES>  (145) 
COc1ccc(F)cc1-c1ccnc2[nH]c(C3CNCCO3)cc12

>  <Name>  (145) 
nan

>  <Pocket>  (145) 
nan

>  <ATP_Site>  (145) 
nan

>  <Peripheral>  (145) 
nan

>  <Num_H_Atoms_ProtBoundConf>  (145) 
nan

>  <Num_Resolved_Atoms>  (145) 
nan

>  <Num_Not_Resolved_Atoms>  (145) 
nan

$$$$
CHEMBL3663808
     RDKit          3D

  0  0  0  0  0  0  0  0  0  0999 V3000
M  V30 BEGIN CTAB
M  V30 COUNTS 45 48 0 0 0
M  V30 BEGIN ATOM
M  V30 1 C -0.972622 -3.837485 -1.332549 0
M  V30 2 O -0.407268 -2.541175 -1.442872 0
M  V30 3 C 0.970814 -2.387907 -1.517483 0
M  V30 4 C 1.848272 -3.449931 -1.490078 0
M  V30 5 C 3.227341 -3.285436 -1.565455 0
M  V30 6 F 4.004564 -4.382442 -1.531079 0
M  V30 7 C 3.690307 -1.976214 -1.671772 0
M  V30 8 C 2.815951 -0.898074 -1.700358 0
M  V30 9 C 1.457060 -1.103355 -1.623293 0
M  V30 10 C 0.644063 0.106242 -1.663284 0
M  V30 11 C 0.195700 0.614649 -2.862822 0
M  V30 12 C -0.567855 1.763658 -2.803932 0
M  V30 13 N -0.887152 2.395163 -1.658342 0
M  V30 14 C -0.474218 1.939236 -0.462029 0
M  V30 15 N -0.590443 2.289923 0.851424 0
M  V30 16 C 0.076292 1.397778 1.624778 0
M  V30 17 C 0.010223 1.694703 3.091779 0
M  V30 18 C 0.701175 0.618353 3.840953 0
M  V30 19 N -0.113626 -0.402010 4.401938 0
M  V30 20 C -0.473527 -1.480086 3.524555 0
M  V30 21 C -1.216348 0.179785 5.093370 0
M  V30 22 C -1.976983 1.089348 4.168717 0
M  V30 23 O -1.246181 2.026511 3.511793 0
M  V30 24 C 0.626293 0.461085 0.772913 0
M  V30 25 C 0.287449 0.792933 -0.521959 0
M  V30 26 H -2.072484 -3.757724 -1.475646 0
M  V30 27 H -0.565802 -4.483539 -2.136287 0
M  V30 28 H -0.729540 -4.319534 -0.354496 0
M  V30 29 H 1.457738 -4.471632 -1.405703 0
M  V30 30 H 4.774650 -1.859593 -1.730248 0
M  V30 31 H 3.292203 0.065162 -1.784955 0
M  V30 32 H 0.446843 0.113981 -3.793305 0
M  V30 33 H -0.930254 2.177434 -3.752717 0
M  V30 34 H -1.162398 3.167961 1.024361 0
M  V30 35 H 0.618908 2.634087 3.192608 0
M  V30 36 H 1.531075 0.217481 3.197124 0
M  V30 37 H 1.259404 1.095948 4.699297 0
M  V30 38 H -0.923684 -1.198022 2.574701 0
M  V30 39 H 0.374231 -2.164765 3.315798 0
M  V30 40 H -1.267925 -2.069213 4.070902 0
M  V30 41 H -0.844093 0.673573 6.007535 0
M  V30 42 H -1.916498 -0.632546 5.396979 0
M  V30 43 H -2.654106 0.474303 3.536084 0
M  V30 44 H -2.682300 1.659506 4.843679 0
M  V30 45 H 1.193582 -0.321124 1.259521 0
M  V30 END ATOM
M  V30 BEGIN BOND
M  V30 1 1 1 2
M  V30 2 1 2 3
M  V30 3 2 3 4
M  V30 4 1 4 5
M  V30 5 1 5 6
M  V30 6 2 5 7
M  V30 7 1 7 8
M  V30 8 2 8 9
M  V30 9 1 9 10
M  V30 10 2 10 11
M  V30 11 1 11 12
M  V30 12 2 12 13
M  V30 13 1 13 14
M  V30 14 1 14 15
M  V30 15 1 15 16
M  V30 16 1 16 17
M  V30 17 1 17 18
M  V30 18 1 18 19
M  V30 19 1 19 20
M  V30 20 1 19 21
M  V30 21 1 21 22
M  V30 22 1 22 23
M  V30 23 2 16 24
M  V30 24 1 24 25
M  V30 25 1 9 3
M  V30 26 1 25 10
M  V30 27 2 25 14
M  V30 28 1 23 17
M  V30 29 1 1 26
M  V30 30 1 1 27
M  V30 31 1 1 28
M  V30 32 1 4 29
M  V30 33 1 7 30
M  V30 34 1 8 31
M  V30 35 1 11 32
M  V30 36 1 12 33
M  V30 37 1 15 34
M  V30 38 1 17 35
M  V30 39 1 18 36
M  V30 40 1 18 37
M  V30 41 1 20 38
M  V30 42 1 20 39
M  V30 43 1 20 40
M  V30 44 1 21 41
M  V30 45 1 21 42
M  V30 46 1 22 43
M  V30 47 1 22 44
M  V30 48 1 24 45
M  V30 END BOND
M  V30 END CTAB
M  END
>  <Dataset>  (146) 
ChEMBL_Kinases

>  <Ligand_Instance>  (146) 
nan

>  <PDB_ID>  (146) 
nan

>  <Standardized_SMILES>  (146) 
COc1cc(F)ccc1-c1ccnc2[nH]c(C3CN(C)CCO3)cc12

>  <Name>  (146) 
nan

>  <Pocket>  (146) 
nan

>  <ATP_Site>  (146) 
nan

>  <Peripheral>  (146) 
nan

>  <Num_H_Atoms_ProtBoundConf>  (146) 
nan

>  <Num_Resolved_Atoms>  (146) 
nan

>  <Num_Not_Resolved_Atoms>  (146) 
nan

$$$$
CHEMBL3664512
     RDKit          3D

  0  0  0  0  0  0  0  0  0  0999 V3000
M  V30 BEGIN CTAB
M  V30 COUNTS 55 60 0 0 0
M  V30 BEGIN ATOM
M  V30 1 C -0.384029 -2.107601 4.415847 0
M  V30 2 C 0.219730 -2.198556 3.046003 0
M  V30 3 C 0.874755 -3.545288 2.839926 0
M  V30 4 C 1.184297 -1.084015 2.841667 0
M  V30 5 N 2.466896 -0.686614 2.921826 0
M  V30 6 N 2.612932 0.569501 2.537539 0
M  V30 7 C 1.384572 0.994317 2.199111 0
M  V30 8 N 1.083415 2.291693 1.728285 0
M  V30 9 C 2.133497 3.265324 1.582219 0
M  V30 10 N 2.715578 3.248122 0.354478 0
M  V30 11 C 3.708810 4.125422 0.126652 0
M  V30 12 N 4.152632 5.011915 1.043189 0
M  V30 13 C 3.573688 5.034926 2.276482 0
M  V30 14 C 3.724861 5.752604 3.444787 0
M  V30 15 C 2.793592 5.257447 4.332637 0
M  V30 16 O 2.085063 4.282464 3.776095 0
M  V30 17 C 2.549411 4.154148 2.560712 0
M  V30 18 C 0.455552 -0.009901 2.373808 0
M  V30 19 C -0.970883 -0.464153 2.288384 0
M  V30 20 N -0.742739 -1.889737 2.000512 0
M  V30 21 C -1.293187 -2.760586 0.987788 0
M  V30 22 O -1.103031 -3.986529 0.732568 0
M  V30 23 N -2.225041 -2.170190 0.091552 0
M  V30 24 C -2.866636 -2.914272 -0.981687 0 CFG=1
M  V30 25 C -4.156849 -2.482621 -1.546546 0
M  V30 26 C -2.954583 -2.121713 -2.298435 0 CFG=2
M  V30 27 C -2.477018 -2.829941 -3.494570 0
M  V30 28 C -1.750370 -2.139659 -4.432573 0
M  V30 29 C -1.234906 -2.677988 -5.610779 0
M  V30 30 C -1.482295 -4.021463 -5.844399 0
M  V30 31 C -2.212235 -4.722798 -4.906107 0
M  V30 32 C -2.709764 -4.164000 -3.749329 0
M  V30 33 H -1.470876 -2.368207 4.325641 0
M  V30 34 H 0.077257 -2.859459 5.058453 0
M  V30 35 H -0.240251 -1.115936 4.887775 0
M  V30 36 H 1.483047 -3.564721 1.920850 0
M  V30 37 H 1.429401 -3.795043 3.760865 0
M  V30 38 H 0.036403 -4.294634 2.749508 0
M  V30 39 H 3.197867 -1.357349 3.259020 0
M  V30 40 H 0.113572 2.580616 1.476843 0
M  V30 41 H 4.260068 4.218661 -0.810472 0
M  V30 42 H 4.451842 6.540374 3.578064 0
M  V30 43 H 2.728556 5.679885 5.335797 0
M  V30 44 H -1.520422 -0.301922 3.214079 0
M  V30 45 H -1.499179 0.045067 1.457551 0
M  V30 46 H -2.501969 -1.161838 0.155677 0
M  V30 47 H -2.585701 -3.992525 -1.069374 0
M  V30 48 H -4.788076 -3.298000 -2.003932 0
M  V30 49 H -4.766014 -1.734030 -1.037720 0
M  V30 50 H -2.662460 -1.051545 -2.279758 0
M  V30 51 H -1.521336 -1.074162 -4.305310 0
M  V30 52 H -0.671153 -2.085710 -6.310277 0
M  V30 53 H -1.082380 -4.434173 -6.755898 0
M  V30 54 H -2.397323 -5.782119 -5.107839 0
M  V30 55 H -3.281505 -4.744426 -3.029935 0
M  V30 END ATOM
M  V30 BEGIN BOND
M  V30 1 1 1 2
M  V30 2 1 2 3
M  V30 3 1 2 4
M  V30 4 1 4 5
M  V30 5 1 5 6
M  V30 6 2 6 7
M  V30 7 1 7 8
M  V30 8 1 8 9
M  V30 9 2 9 10
M  V30 10 1 10 11
M  V30 11 2 11 12
M  V30 12 1 12 13
M  V30 13 1 13 14
M  V30 14 2 14 15
M  V30 15 1 15 16
M  V30 16 1 16 17
M  V30 17 1 7 18
M  V30 18 1 18 19
M  V30 19 1 19 20
M  V30 20 1 20 21
M  V30 21 2 21 22
M  V30 22 1 21 23
M  V30 23 1 23 24
M  V30 24 1 24 25
M  V30 25 1 25 26
M  V30 26 1 26 27
M  V30 27 2 27 28
M  V30 28 1 28 29
M  V30 29 2 29 30
M  V30 30 1 30 31
M  V30 31 2 31 32
M  V30 32 1 20 2
M  V30 33 1 26 24
M  V30 34 1 32 27
M  V30 35 2 18 4
M  V30 36 1 17 9
M  V30 37 2 17 13
M  V30 38 1 1 33
M  V30 39 1 1 34
M  V30 40 1 1 35
M  V30 41 1 3 36
M  V30 42 1 3 37
M  V30 43 1 3 38
M  V30 44 1 5 39
M  V30 45 1 8 40
M  V30 46 1 11 41
M  V30 47 1 14 42
M  V30 48 1 15 43
M  V30 49 1 19 44
M  V30 50 1 19 45
M  V30 51 1 23 46
M  V30 52 1 24 47 CFG=3
M  V30 53 1 25 48
M  V30 54 1 25 49
M  V30 55 1 26 50 CFG=1
M  V30 56 1 28 51
M  V30 57 1 29 52
M  V30 58 1 30 53
M  V30 59 1 31 54
M  V30 60 1 32 55
M  V30 END BOND
M  V30 END CTAB
M  END
>  <Dataset>  (147) 
ChEMBL_Kinases

>  <Ligand_Instance>  (147) 
nan

>  <PDB_ID>  (147) 
nan

>  <Standardized_SMILES>  (147) 
CC1(C)c2[nH]nc(Nc3ncnc4ccoc34)c2CN1C(=O)N[C@H]1C[C@@H]1c1ccccc1

>  <Name>  (147) 
nan

>  <Pocket>  (147) 
nan

>  <ATP_Site>  (147) 
nan

>  <Peripheral>  (147) 
nan

>  <Num_H_Atoms_ProtBoundConf>  (147) 
nan

>  <Num_Resolved_Atoms>  (147) 
nan

>  <Num_Not_Resolved_Atoms>  (147) 
nan

$$$$
CHEMBL3663801
     RDKit          3D

  0  0  0  0  0  0  0  0  0  0999 V3000
M  V30 BEGIN CTAB
M  V30 COUNTS 41 44 0 0 0
M  V30 BEGIN ATOM
M  V30 1 C -0.231406 -2.666816 -2.797932 0
M  V30 2 O 0.520934 -1.812977 -1.964084 0
M  V30 3 C 1.437063 -2.284942 -1.053760 0
M  V30 4 C 1.769325 -3.615507 -0.804172 0
M  V30 5 C 2.711486 -3.948715 0.142595 0
M  V30 6 C 3.349329 -2.965489 0.867556 0
M  V30 7 F 4.270816 -3.351315 1.789378 0
M  V30 8 C 3.027172 -1.630252 0.628696 0
M  V30 9 C 2.071631 -1.298942 -0.331976 0
M  V30 10 C 1.891667 0.146484 -0.416812 0
M  V30 11 C 2.645859 0.914581 -1.276976 0
M  V30 12 C 2.391085 2.268164 -1.273676 0
M  V30 13 N 1.466358 2.847475 -0.489906 0
M  V30 14 C 0.698706 2.156454 0.369444 0
M  V30 15 N -0.280787 2.361337 1.272449 0
M  V30 16 C -0.685762 1.203276 1.867168 0
M  V30 17 C -1.770052 1.302425 2.885742 0 CFG=1
M  V30 18 C -2.901040 0.353306 2.607646 0
M  V30 19 C -2.416964 -0.928082 3.234818 0
M  V30 20 N -1.383010 -0.596989 4.149759 0
M  V30 21 C -1.271680 0.831090 4.226774 0
M  V30 22 C 0.099396 0.243314 1.284942 0
M  V30 23 C 0.957015 0.803160 0.362699 0
M  V30 24 H 0.240969 -3.628562 -3.020688 0
M  V30 25 H -1.229334 -2.897066 -2.365976 0
M  V30 26 H -0.405229 -2.160124 -3.769420 0
M  V30 27 H 1.246798 -4.335001 -1.392085 0
M  V30 28 H 2.934034 -5.004116 0.298353 0
M  V30 29 H 3.583632 -0.942351 1.249352 0
M  V30 30 H 3.390612 0.472858 -1.912624 0
M  V30 31 H 2.954952 2.933529 -1.932990 0
M  V30 32 H -0.561043 3.381095 1.359666 0
M  V30 33 H -2.136124 2.364595 2.948975 0
M  V30 34 H -3.792650 0.693504 3.173757 0
M  V30 35 H -3.116359 0.245005 1.525898 0
M  V30 36 H -2.080410 -1.618742 2.422260 0
M  V30 37 H -3.230408 -1.447801 3.790849 0
M  V30 38 H -0.487856 -1.033649 3.889881 0
M  V30 39 H -1.905920 1.237783 5.042683 0
M  V30 40 H -0.198885 1.096507 4.385172 0
M  V30 41 H -0.021087 -0.784557 1.581644 0
M  V30 END ATOM
M  V30 BEGIN BOND
M  V30 1 1 1 2
M  V30 2 1 2 3
M  V30 3 2 3 4
M  V30 4 1 4 5
M  V30 5 2 5 6
M  V30 6 1 6 7
M  V30 7 1 6 8
M  V30 8 2 8 9
M  V30 9 1 9 10
M  V30 10 2 10 11
M  V30 11 1 11 12
M  V30 12 2 12 13
M  V30 13 1 13 14
M  V30 14 1 14 15
M  V30 15 1 15 16
M  V30 16 1 16 17
M  V30 17 1 17 18
M  V30 18 1 18 19
M  V30 19 1 19 20
M  V30 20 1 20 21
M  V30 21 2 16 22
M  V30 22 1 22 23
M  V30 23 1 9 3
M  V30 24 1 23 10
M  V30 25 2 23 14
M  V30 26 1 21 17
M  V30 27 1 1 24
M  V30 28 1 1 25
M  V30 29 1 1 26
M  V30 30 1 4 27
M  V30 31 1 5 28
M  V30 32 1 8 29
M  V30 33 1 11 30
M  V30 34 1 12 31
M  V30 35 1 15 32
M  V30 36 1 17 33 CFG=1
M  V30 37 1 18 34
M  V30 38 1 18 35
M  V30 39 1 19 36
M  V30 40 1 19 37
M  V30 41 1 20 38
M  V30 42 1 21 39
M  V30 43 1 21 40
M  V30 44 1 22 41
M  V30 END BOND
M  V30 END CTAB
M  END
>  <Dataset>  (148) 
ChEMBL_Kinases

>  <Ligand_Instance>  (148) 
nan

>  <PDB_ID>  (148) 
nan

>  <Standardized_SMILES>  (148) 
COc1ccc(F)cc1-c1ccnc2[nH]c([C@H]3CCNC3)cc12

>  <Name>  (148) 
nan

>  <Pocket>  (148) 
nan

>  <ATP_Site>  (148) 
nan

>  <Peripheral>  (148) 
nan

>  <Num_H_Atoms_ProtBoundConf>  (148) 
nan

>  <Num_Resolved_Atoms>  (148) 
nan

>  <Num_Not_Resolved_Atoms>  (148) 
nan

$$$$
CHEMBL3666770
     RDKit          3D

  0  0  0  0  0  0  0  0  0  0999 V3000
M  V30 BEGIN CTAB
M  V30 COUNTS 83 88 0 0 0
M  V30 BEGIN ATOM
M  V30 1 C -4.315569 -6.386113 0.098059 0
M  V30 2 C -4.068822 -5.645367 -1.188634 0
M  V30 3 C -5.379744 -5.104501 -1.660950 0
M  V30 4 C -5.967500 -5.791956 -2.703464 0
M  V30 5 C -7.182113 -5.380167 -3.213754 0
M  V30 6 C -7.828762 -4.273586 -2.687490 0
M  V30 7 C -7.242182 -3.582920 -1.642509 0
M  V30 8 C -7.776971 -2.382460 -0.942430 0
M  V30 9 C -6.023857 -3.997832 -1.133905 0
M  V30 10 N -5.289503 -3.395487 -0.069659 0
M  V30 11 C -4.388948 -2.421816 -0.511381 0
M  V30 12 O -4.527792 -2.395062 -1.784160 0
M  V30 13 C -3.448747 -1.551201 0.102764 0
M  V30 14 N -2.633199 -0.865891 -0.714030 0
M  V30 15 N -1.807856 -0.093960 -0.006792 0
M  V30 16 C -0.831945 0.760847 -0.622069 0
M  V30 17 C -2.077866 -0.269464 1.285471 0
M  V30 18 C -3.123759 -1.195885 1.357626 0
M  V30 19 C -3.712812 -1.616974 2.612232 0
M  V30 20 C -4.226541 -0.311238 3.263510 0
M  V30 21 C -3.210641 0.282191 4.202133 0
M  V30 22 C -1.914732 0.599650 3.599411 0
M  V30 23 C -1.159600 1.223193 4.553492 0
M  V30 24 N 0.063026 1.576746 4.181623 0
M  V30 25 C 0.642049 1.395770 2.986210 0
M  V30 26 N 1.969100 1.872731 2.912603 0
M  V30 27 C 2.939903 1.845054 1.882252 0
M  V30 28 C 2.720660 1.297163 0.639648 0
M  V30 29 C 3.604202 1.232516 -0.403725 0
M  V30 30 C 4.854890 1.764213 -0.219935 0
M  V30 31 N 5.875982 1.780390 -1.236346 0
M  V30 32 C 5.560958 1.749371 -2.639811 0
M  V30 33 C 6.603404 1.135463 -3.519324 0
M  V30 34 N 7.939780 1.252322 -3.045035 0
M  V30 35 C 8.688215 2.370760 -3.519076 0
M  V30 36 C 8.116150 0.937328 -1.661624 0
M  V30 37 C 7.254373 1.815060 -0.763945 0
M  V30 38 C 5.140454 2.335173 1.019346 0
M  V30 39 C 4.203627 2.367361 2.027447 0
M  V30 40 O 4.565585 2.954612 3.235268 0
M  V30 41 C 5.838619 3.513210 3.473327 0
M  V30 42 N -0.099970 0.772802 2.012532 0
M  V30 43 C -1.373136 0.392213 2.366054 0
M  V30 44 H -4.237999 -5.693459 0.948556 0
M  V30 45 H -3.543584 -7.187120 0.180428 0
M  V30 46 H -5.308154 -6.893170 0.108217 0
M  V30 47 H -3.390746 -4.759960 -1.001119 0
M  V30 48 H -3.564997 -6.227778 -1.957602 0
M  V30 49 H -5.559707 -6.672808 -3.200128 0
M  V30 50 H -7.726255 -5.857457 -4.039704 0
M  V30 51 H -8.787193 -3.870835 -3.019952 0
M  V30 52 H -7.135979 -1.485102 -1.085129 0
M  V30 53 H -8.758011 -2.152140 -1.415270 0
M  V30 54 H -8.003255 -2.573719 0.124095 0
M  V30 55 H -5.293173 -3.543728 0.950215 0
M  V30 56 H -0.497209 1.601955 -0.028546 0
M  V30 57 H 0.043851 0.124062 -0.879199 0
M  V30 58 H -1.249124 1.090927 -1.612636 0
M  V30 59 H -2.917926 -1.946117 3.361693 0
M  V30 60 H -4.561520 -2.279764 2.614466 0
M  V30 61 H -5.176195 -0.466397 3.776780 0
M  V30 62 H -4.444685 0.455584 2.465417 0
M  V30 63 H -3.075267 -0.444545 5.055967 0
M  V30 64 H -3.641748 1.186067 4.687190 0
M  V30 65 H -1.533567 1.420631 5.558808 0
M  V30 66 H 2.361081 2.348569 3.753331 0
M  V30 67 H 1.736125 0.878992 0.535875 0
M  V30 68 H 3.316575 0.778991 -1.334991 0
M  V30 69 H 4.607758 1.202203 -2.794129 0
M  V30 70 H 5.474547 2.816517 -2.954322 0
M  V30 71 H 6.380767 0.059655 -3.727140 0
M  V30 72 H 6.598717 1.621936 -4.542781 0
M  V30 73 H 8.697985 2.391174 -4.615236 0
M  V30 74 H 8.332606 3.353679 -3.147777 0
M  V30 75 H 9.748278 2.203625 -3.203553 0
M  V30 76 H 7.851632 -0.141810 -1.523094 0
M  V30 77 H 9.189916 1.044809 -1.409453 0
M  V30 78 H 7.683696 2.816677 -0.771394 0
M  V30 79 H 7.278778 1.421003 0.272296 0
M  V30 80 H 6.115249 2.769788 1.214428 0
M  V30 81 H 5.743595 4.051664 4.453813 0
M  V30 82 H 6.099903 4.213232 2.648745 0
M  V30 83 H 6.653281 2.761243 3.541271 0
M  V30 END ATOM
M  V30 BEGIN BOND
M  V30 1 1 1 2
M  V30 2 1 2 3
M  V30 3 2 3 4
M  V30 4 1 4 5
M  V30 5 2 5 6
M  V30 6 1 6 7
M  V30 7 1 7 8
M  V30 8 2 7 9
M  V30 9 1 9 10
M  V30 10 1 10 11
M  V30 11 2 11 12
M  V30 12 1 11 13
M  V30 13 2 13 14
M  V30 14 1 14 15
M  V30 15 1 15 16
M  V30 16 1 15 17
M  V30 17 2 17 18
M  V30 18 1 18 19
M  V30 19 1 19 20
M  V30 20 1 20 21
M  V30 21 1 21 22
M  V30 22 2 22 23
M  V30 23 1 23 24
M  V30 24 2 24 25
M  V30 25 1 25 26
M  V30 26 1 26 27
M  V30 27 2 27 28
M  V30 28 1 28 29
M  V30 29 2 29 30
M  V30 30 1 30 31
M  V30 31 1 31 32
M  V30 32 1 32 33
M  V30 33 1 33 34
M  V30 34 1 34 35
M  V30 35 1 34 36
M  V30 36 1 36 37
M  V30 37 1 30 38
M  V30 38 2 38 39
M  V30 39 1 39 40
M  V30 40 1 40 41
M  V30 41 1 25 42
M  V30 42 2 42 43
M  V30 43 1 9 3
M  V30 44 1 18 13
M  V30 45 1 43 22
M  V30 46 1 43 17
M  V30 47 1 39 27
M  V30 48 1 37 31
M  V30 49 1 1 44
M  V30 50 1 1 45
M  V30 51 1 1 46
M  V30 52 1 2 47
M  V30 53 1 2 48
M  V30 54 1 4 49
M  V30 55 1 5 50
M  V30 56 1 6 51
M  V30 57 1 8 52
M  V30 58 1 8 53
M  V30 59 1 8 54
M  V30 60 1 10 55
M  V30 61 1 16 56
M  V30 62 1 16 57
M  V30 63 1 16 58
M  V30 64 1 19 59
M  V30 65 1 19 60
M  V30 66 1 20 61
M  V30 67 1 20 62
M  V30 68 1 21 63
M  V30 69 1 21 64
M  V30 70 1 23 65
M  V30 71 1 26 66
M  V30 72 1 28 67
M  V30 73 1 29 68
M  V30 74 1 32 69
M  V30 75 1 32 70
M  V30 76 1 33 71
M  V30 77 1 33 72
M  V30 78 1 35 73
M  V30 79 1 35 74
M  V30 80 1 35 75
M  V30 81 1 36 76
M  V30 82 1 36 77
M  V30 83 1 37 78
M  V30 84 1 37 79
M  V30 85 1 38 80
M  V30 86 1 41 81
M  V30 87 1 41 82
M  V30 88 1 41 83
M  V30 END BOND
M  V30 END CTAB
M  END
>  <Dataset>  (149) 
ChEMBL_Kinases

>  <Ligand_Instance>  (149) 
nan

>  <PDB_ID>  (149) 
nan

>  <Standardized_SMILES>  (149) 
CCc1cccc(C)c1NC(=O)c1nn(C)c2c1CCCc1cnc(Nc3ccc(N4CCN(C)CC4)cc3OC)nc1-2

>  <Name>  (149) 
nan

>  <Pocket>  (149) 
nan

>  <ATP_Site>  (149) 
nan

>  <Peripheral>  (149) 
nan

>  <Num_H_Atoms_ProtBoundConf>  (149) 
nan

>  <Num_Resolved_Atoms>  (149) 
nan

>  <Num_Not_Resolved_Atoms>  (149) 
nan

$$$$
CHEMBL3666769
     RDKit          3D

  0  0  0  0  0  0  0  0  0  0999 V3000
M  V30 BEGIN CTAB
M  V30 COUNTS 74 79 0 0 0
M  V30 BEGIN ATOM
M  V30 1 C 6.051780 2.391346 1.154151 0
M  V30 2 O 5.006185 1.862050 0.583440 0
M  V30 3 C 3.983063 1.406601 -0.001245 0
M  V30 4 C 3.361278 2.331099 -0.865884 0
M  V30 5 C 2.237589 2.010181 -1.587228 0
M  V30 6 N 1.548348 2.884356 -2.457954 0
M  V30 7 C 0.247341 2.646321 -3.041531 0
M  V30 8 C -0.478238 3.993834 -3.087361 0
M  V30 9 N 0.121918 4.737628 -4.178086 0
M  V30 10 C -0.514623 4.307460 -5.407927 0
M  V30 11 C 1.550179 4.483525 -4.241841 0
M  V30 12 C 2.118112 4.178632 -2.873710 0
M  V30 13 C 1.686419 0.760017 -1.483432 0
M  V30 14 C 2.251686 -0.170430 -0.659437 0
M  V30 15 C 3.363683 0.138523 0.062406 0
M  V30 16 N 4.109726 -0.584831 1.035967 0
M  V30 17 C 3.420314 -1.888121 1.049501 0
M  V30 18 N 3.768996 -3.103322 0.521092 0
M  V30 19 C 2.977631 -4.183204 0.568976 0
M  V30 20 C 1.757226 -4.132770 1.156749 0
M  V30 21 C 1.367088 -2.931287 1.701155 0
M  V30 22 N 2.189349 -1.846964 1.642078 0
M  V30 23 C 0.092774 -2.606806 2.329923 0
M  V30 24 C -1.106414 -3.305592 2.137383 0
M  V30 25 C -2.071214 -2.606570 2.879183 0
M  V30 26 C -3.401609 -3.139449 2.823745 0
M  V30 27 O -3.518997 -4.306416 3.417750 0
M  V30 28 N -4.621311 -2.728469 2.297294 0
M  V30 29 C -5.940125 -3.200010 2.213522 0
M  V30 30 C -6.339847 -4.410502 2.696953 0
M  V30 31 C -7.630574 -4.900923 2.650538 0
M  V30 32 C -8.568884 -4.071227 2.058743 0
M  V30 33 C -8.187633 -2.855371 1.568907 0
M  V30 34 C -6.887318 -2.396567 1.631506 0
M  V30 35 N -1.421560 -1.552195 3.468870 0
M  V30 36 N -0.137814 -1.577912 3.124708 0
M  V30 37 C 0.889541 -0.630838 3.537024 0
M  V30 38 C -1.276837 -4.548282 1.285343 0
M  V30 39 C -0.228875 -5.506444 1.747767 0
M  V30 40 C 1.088907 -5.433881 1.062112 0
M  V30 41 H 7.007789 1.772448 0.983927 0
M  V30 42 H 5.980505 2.534933 2.288383 0
M  V30 43 H 6.348132 3.441999 0.806003 0
M  V30 44 H 3.687054 3.361045 -1.055105 0
M  V30 45 H -0.378025 1.927432 -2.454295 0
M  V30 46 H 0.334490 2.341560 -4.106094 0
M  V30 47 H -1.553997 3.735249 -3.291903 0
M  V30 48 H -0.389817 4.535198 -2.133152 0
M  V30 49 H -1.204404 5.132096 -5.743607 0
M  V30 50 H 0.232202 4.038774 -6.197624 0
M  V30 51 H -1.153616 3.419822 -5.221619 0
M  V30 52 H 1.763714 3.684325 -4.943118 0
M  V30 53 H 2.006891 5.437422 -4.615782 0
M  V30 54 H 3.209936 4.149364 -2.977586 0
M  V30 55 H 1.865400 4.962725 -2.157298 0
M  V30 56 H 0.825737 0.403099 -1.998166 0
M  V30 57 H 1.873709 -1.161088 -0.541515 0
M  V30 58 H 4.650966 -1.059672 1.718129 0
M  V30 59 H 3.442607 -5.036310 0.094933 0
M  V30 60 H -4.376473 -1.786565 1.856007 0
M  V30 61 H -5.651753 -5.097905 3.166788 0
M  V30 62 H -7.978484 -5.843586 3.016699 0
M  V30 63 H -9.595548 -4.391951 1.990387 0
M  V30 64 H -8.955705 -2.240951 1.117245 0
M  V30 65 H -6.612240 -1.408627 1.229121 0
M  V30 66 H 1.806756 -1.174262 3.849746 0
M  V30 67 H 1.046378 0.172424 2.808471 0
M  V30 68 H 0.508736 -0.112962 4.468181 0
M  V30 69 H -1.160391 -4.244252 0.202621 0
M  V30 70 H -2.282366 -4.961577 1.399590 0
M  V30 71 H -0.634292 -6.517718 1.635714 0
M  V30 72 H -0.062993 -5.352652 2.862987 0
M  V30 73 H 1.749262 -6.178618 1.595977 0
M  V30 74 H 1.028792 -5.809618 0.016263 0
M  V30 END ATOM
M  V30 BEGIN BOND
M  V30 1 1 1 2
M  V30 2 1 2 3
M  V30 3 2 3 4
M  V30 4 1 4 5
M  V30 5 1 5 6
M  V30 6 1 6 7
M  V30 7 1 7 8
M  V30 8 1 8 9
M  V30 9 1 9 10
M  V30 10 1 9 11
M  V30 11 1 11 12
M  V30 12 2 5 13
M  V30 13 1 13 14
M  V30 14 2 14 15
M  V30 15 1 15 16
M  V30 16 1 16 17
M  V30 17 2 17 18
M  V30 18 1 18 19
M  V30 19 2 19 20
M  V30 20 1 20 21
M  V30 21 2 21 22
M  V30 22 1 21 23
M  V30 23 2 23 24
M  V30 24 1 24 25
M  V30 25 1 25 26
M  V30 26 2 26 27
M  V30 27 1 26 28
M  V30 28 1 28 29
M  V30 29 2 29 30
M  V30 30 1 30 31
M  V30 31 2 31 32
M  V30 32 1 32 33
M  V30 33 2 33 34
M  V30 34 2 25 35
M  V30 35 1 35 36
M  V30 36 1 36 37
M  V30 37 1 24 38
M  V30 38 1 38 39
M  V30 39 1 39 40
M  V30 40 1 15 3
M  V30 41 1 22 17
M  V30 42 1 36 23
M  V30 43 1 12 6
M  V30 44 1 40 20
M  V30 45 1 34 29
M  V30 46 1 1 41
M  V30 47 1 1 42
M  V30 48 1 1 43
M  V30 49 1 4 44
M  V30 50 1 7 45
M  V30 51 1 7 46
M  V30 52 1 8 47
M  V30 53 1 8 48
M  V30 54 1 10 49
M  V30 55 1 10 50
M  V30 56 1 10 51
M  V30 57 1 11 52
M  V30 58 1 11 53
M  V30 59 1 12 54
M  V30 60 1 12 55
M  V30 61 1 13 56
M  V30 62 1 14 57
M  V30 63 1 16 58
M  V30 64 1 19 59
M  V30 65 1 28 60
M  V30 66 1 30 61
M  V30 67 1 31 62
M  V30 68 1 32 63
M  V30 69 1 33 64
M  V30 70 1 34 65
M  V30 71 1 37 66
M  V30 72 1 37 67
M  V30 73 1 37 68
M  V30 74 1 38 69
M  V30 75 1 38 70
M  V30 76 1 39 71
M  V30 77 1 39 72
M  V30 78 1 40 73
M  V30 79 1 40 74
M  V30 END BOND
M  V30 END CTAB
M  END
>  <Dataset>  (150) 
ChEMBL_Kinases

>  <Ligand_Instance>  (150) 
nan

>  <PDB_ID>  (150) 
nan

>  <Standardized_SMILES>  (150) 
COc1cc(N2CCN(C)CC2)ccc1Nc1ncc2c(n1)-c1c(c(C(=O)Nc3ccccc3)nn1C)CCC2

>  <Name>  (150) 
nan

>  <Pocket>  (150) 
nan

>  <ATP_Site>  (150) 
nan

>  <Peripheral>  (150) 
nan

>  <Num_H_Atoms_ProtBoundConf>  (150) 
nan

>  <Num_Resolved_Atoms>  (150) 
nan

>  <Num_Not_Resolved_Atoms>  (150) 
nan

$$$$
CHEMBL3666768
     RDKit          3D

  0  0  0  0  0  0  0  0  0  0999 V3000
M  V30 BEGIN CTAB
M  V30 COUNTS 86 91 0 0 0
M  V30 BEGIN ATOM
M  V30 1 C -0.165277 -3.923887 7.534975 0
M  V30 2 C -0.634511 -5.203857 6.865683 0
M  V30 3 C 0.556215 -6.077067 6.701468 0
M  V30 4 C 0.796246 -7.168945 7.530096 0
M  V30 5 C 1.904384 -7.990325 7.392776 0
M  V30 6 C 2.795897 -7.675744 6.366156 0
M  V30 7 C 2.556973 -6.596990 5.548481 0
M  V30 8 C 3.511927 -6.276814 4.458394 0
M  V30 9 C 4.653598 -7.248800 4.378527 0
M  V30 10 C 1.456666 -5.785079 5.688061 0
M  V30 11 N 1.276876 -4.682438 4.807910 0
M  V30 12 C 0.619685 -4.746397 3.554708 0
M  V30 13 O 0.225487 -5.917975 3.322439 0
M  V30 14 C 0.403194 -3.656295 2.626639 0
M  V30 15 N -0.022139 -4.050080 1.397185 0
M  V30 16 N -0.189243 -2.959460 0.629193 0
M  V30 17 C -0.643507 -2.942998 -0.757959 0
M  V30 18 C 0.115944 -1.857349 1.323520 0
M  V30 19 C 0.488796 -2.305729 2.589392 0
M  V30 20 C 0.893668 -1.589096 3.793929 0
M  V30 21 C 0.451186 -0.135301 3.775040 0
M  V30 22 C 1.185155 0.727715 2.813358 0
M  V30 23 C 0.534294 0.631406 1.480980 0
M  V30 24 C 0.386028 1.820902 0.817586 0
M  V30 25 N -0.179649 1.829862 -0.392754 0
M  V30 26 C -0.632601 0.749747 -1.046213 0
M  V30 27 N -1.226044 0.757319 -2.334464 0
M  V30 28 C -1.530035 1.863435 -3.171194 0
M  V30 29 C -1.359734 3.178095 -2.802087 0
M  V30 30 C -1.661043 4.264943 -3.595651 0
M  V30 31 C -2.170809 4.054156 -4.854030 0
M  V30 32 N -2.525293 5.107250 -5.750029 0
M  V30 33 C -2.920743 5.029878 -7.165703 0
M  V30 34 C -1.726858 5.491968 -8.013580 0
M  V30 35 N -0.876630 6.310332 -7.158507 0
M  V30 36 C 0.154015 6.976525 -7.897609 0
M  V30 37 C -1.669092 7.253087 -6.393435 0
M  V30 38 C -2.573899 6.518020 -5.420653 0
M  V30 39 C -2.355538 2.748033 -5.261039 0
M  V30 40 C -2.041758 1.685367 -4.436723 0
M  V30 41 O -2.240328 0.363701 -4.877880 0
M  V30 42 C -2.753944 0.076674 -6.148360 0
M  V30 43 N -0.496014 -0.423965 -0.410999 0
M  V30 44 C 0.062675 -0.496638 0.804034 0
M  V30 45 H -0.408716 -3.908954 8.618055 0
M  V30 46 H 0.929636 -3.812689 7.412657 0
M  V30 47 H -0.643113 -3.044652 7.037853 0
M  V30 48 H -1.298324 -5.717994 7.609985 0
M  V30 49 H -1.178343 -5.013420 5.916562 0
M  V30 50 H 0.103259 -7.412215 8.328382 0
M  V30 51 H 2.105542 -8.836865 8.022589 0
M  V30 52 H 3.676527 -8.327369 6.254738 0
M  V30 53 H 2.936692 -6.262573 3.488942 0
M  V30 54 H 3.945809 -5.273528 4.656116 0
M  V30 55 H 5.197764 -7.016758 3.423205 0
M  V30 56 H 5.355083 -7.061383 5.197691 0
M  V30 57 H 4.320568 -8.298293 4.294101 0
M  V30 58 H 1.680444 -3.783591 5.140646 0
M  V30 59 H -0.880223 -4.011821 -1.033564 0
M  V30 60 H -1.659638 -2.450059 -0.812226 0
M  V30 61 H 0.079247 -2.501530 -1.439996 0
M  V30 62 H 1.932422 -1.620640 4.082947 0
M  V30 63 H 0.272196 -2.023493 4.642180 0
M  V30 64 H 0.709534 0.241175 4.810226 0
M  V30 65 H -0.631291 -0.011774 3.672575 0
M  V30 66 H 1.161822 1.781590 3.147360 0
M  V30 67 H 2.260583 0.448782 2.765425 0
M  V30 68 H 0.740436 2.718841 1.311522 0
M  V30 69 H -1.482469 -0.193036 -2.740831 0
M  V30 70 H -0.970349 3.432652 -1.837698 0
M  V30 71 H -1.501028 5.256338 -3.240669 0
M  V30 72 H -3.839329 5.584063 -7.387081 0
M  V30 73 H -3.117040 3.980936 -7.446585 0
M  V30 74 H -1.138922 4.591767 -8.268414 0
M  V30 75 H -2.138395 6.024093 -8.875079 0
M  V30 76 H 1.144135 6.910786 -7.355872 0
M  V30 77 H -0.056357 8.050996 -8.088330 0
M  V30 78 H 0.347239 6.476150 -8.868033 0
M  V30 79 H -2.290811 7.865562 -7.103141 0
M  V30 80 H -0.966221 7.946887 -5.879062 0
M  V30 81 H -2.154878 6.707974 -4.424407 0
M  V30 82 H -3.606467 6.925227 -5.517866 0
M  V30 83 H -2.745375 2.449686 -6.220368 0
M  V30 84 H -3.055916 -1.003606 -6.179235 0
M  V30 85 H -2.016228 0.293924 -6.967816 0
M  V30 86 H -3.666246 0.643625 -6.411772 0
M  V30 END ATOM
M  V30 BEGIN BOND
M  V30 1 1 1 2
M  V30 2 1 2 3
M  V30 3 2 3 4
M  V30 4 1 4 5
M  V30 5 2 5 6
M  V30 6 1 6 7
M  V30 7 1 7 8
M  V30 8 1 8 9
M  V30 9 2 7 10
M  V30 10 1 10 11
M  V30 11 1 11 12
M  V30 12 2 12 13
M  V30 13 1 12 14
M  V30 14 2 14 15
M  V30 15 1 15 16
M  V30 16 1 16 17
M  V30 17 1 16 18
M  V30 18 2 18 19
M  V30 19 1 19 20
M  V30 20 1 20 21
M  V30 21 1 21 22
M  V30 22 1 22 23
M  V30 23 2 23 24
M  V30 24 1 24 25
M  V30 25 2 25 26
M  V30 26 1 26 27
M  V30 27 1 27 28
M  V30 28 2 28 29
M  V30 29 1 29 30
M  V30 30 2 30 31
M  V30 31 1 31 32
M  V30 32 1 32 33
M  V30 33 1 33 34
M  V30 34 1 34 35
M  V30 35 1 35 36
M  V30 36 1 35 37
M  V30 37 1 37 38
M  V30 38 1 31 39
M  V30 39 2 39 40
M  V30 40 1 40 41
M  V30 41 1 41 42
M  V30 42 1 26 43
M  V30 43 2 43 44
M  V30 44 1 10 3
M  V30 45 1 19 14
M  V30 46 1 44 23
M  V30 47 1 44 18
M  V30 48 1 40 28
M  V30 49 1 38 32
M  V30 50 1 1 45
M  V30 51 1 1 46
M  V30 52 1 1 47
M  V30 53 1 2 48
M  V30 54 1 2 49
M  V30 55 1 4 50
M  V30 56 1 5 51
M  V30 57 1 6 52
M  V30 58 1 8 53
M  V30 59 1 8 54
M  V30 60 1 9 55
M  V30 61 1 9 56
M  V30 62 1 9 57
M  V30 63 1 11 58
M  V30 64 1 17 59
M  V30 65 1 17 60
M  V30 66 1 17 61
M  V30 67 1 20 62
M  V30 68 1 20 63
M  V30 69 1 21 64
M  V30 70 1 21 65
M  V30 71 1 22 66
M  V30 72 1 22 67
M  V30 73 1 24 68
M  V30 74 1 27 69
M  V30 75 1 29 70
M  V30 76 1 30 71
M  V30 77 1 33 72
M  V30 78 1 33 73
M  V30 79 1 34 74
M  V30 80 1 34 75
M  V30 81 1 36 76
M  V30 82 1 36 77
M  V30 83 1 36 78
M  V30 84 1 37 79
M  V30 85 1 37 80
M  V30 86 1 38 81
M  V30 87 1 38 82
M  V30 88 1 39 83
M  V30 89 1 42 84
M  V30 90 1 42 85
M  V30 91 1 42 86
M  V30 END BOND
M  V30 END CTAB
M  END
>  <Dataset>  (151) 
ChEMBL_Kinases

>  <Ligand_Instance>  (151) 
nan

>  <PDB_ID>  (151) 
nan

>  <Standardized_SMILES>  (151) 
CCc1cccc(CC)c1NC(=O)c1nn(C)c2c1CCCc1cnc(Nc3ccc(N4CCN(C)CC4)cc3OC)nc1-2

>  <Name>  (151) 
nan

>  <Pocket>  (151) 
nan

>  <ATP_Site>  (151) 
nan

>  <Peripheral>  (151) 
nan

>  <Num_H_Atoms_ProtBoundConf>  (151) 
nan

>  <Num_Resolved_Atoms>  (151) 
nan

>  <Num_Not_Resolved_Atoms>  (151) 
nan

$$$$
CHEMBL3666766
     RDKit          3D

  0  0  0  0  0  0  0  0  0  0999 V3000
M  V30 BEGIN CTAB
M  V30 COUNTS 50 53 0 0 0
M  V30 BEGIN ATOM
M  V30 1 C 5.708519 -4.478674 3.822678 0
M  V30 2 N 4.740940 -3.918790 2.915438 0
M  V30 3 C 4.163159 -2.649157 3.191889 0
M  V30 4 O 4.578364 -2.127531 4.247622 0
M  V30 5 C 3.185431 -2.090172 2.269227 0
M  V30 6 N 2.739388 -2.654514 1.137242 0
M  V30 7 N 1.855324 -1.870282 0.545477 0
M  V30 8 C 1.137310 -2.107386 -0.694332 0
M  V30 9 C 1.685405 -0.742266 1.280180 0
M  V30 10 C 2.525298 -0.883552 2.366407 0
M  V30 11 C 2.690594 0.105614 3.462284 0
M  V30 12 C 2.738876 1.477022 2.789152 0
M  V30 13 C 1.402379 2.137011 2.698690 0
M  V30 14 C 0.642279 1.620938 1.547921 0
M  V30 15 C -0.279186 2.534337 1.079235 0
M  V30 16 N -1.053207 2.178961 0.010727 0
M  V30 17 C -0.900905 0.948564 -0.560705 0
M  V30 18 N -1.785649 0.743086 -1.660078 0
M  V30 19 C -3.084273 0.168139 -1.402823 0
M  V30 20 C -3.447279 -0.173603 -0.098372 0
M  V30 21 C -4.685129 -0.725609 0.173078 0
M  V30 22 C -5.590779 -0.950941 -0.844099 0
M  V30 23 Br -7.307101 -1.711772 -0.498897 0
M  V30 24 C -5.246414 -0.616864 -2.148882 0
M  V30 25 C -4.003957 -0.062455 -2.423627 0
M  V30 26 O -3.600388 0.292588 -3.704105 0
M  V30 27 C -4.527684 0.062884 -4.752826 0
M  V30 28 N 0.004543 0.069015 -0.089395 0
M  V30 29 C 0.789450 0.374363 0.961123 0
M  V30 30 H 5.694016 -3.975449 4.818830 0
M  V30 31 H 6.738936 -4.384899 3.415431 0
M  V30 32 H 5.491874 -5.551475 4.055394 0
M  V30 33 H 4.487789 -4.472067 2.065978 0
M  V30 34 H 1.399266 -1.303788 -1.439673 0
M  V30 35 H 1.580651 -3.032712 -1.150500 0
M  V30 36 H 0.058867 -2.260579 -0.568284 0
M  V30 37 H 3.581796 -0.034668 4.076247 0
M  V30 38 H 1.731378 0.104756 4.058081 0
M  V30 39 H 3.407272 2.108069 3.399403 0
M  V30 40 H 3.244335 1.376017 1.793728 0
M  V30 41 H 0.881540 1.989609 3.665163 0
M  V30 42 H 1.561033 3.217659 2.530782 0
M  V30 43 H -0.364793 3.499529 1.564874 0
M  V30 44 H -1.577813 0.974550 -2.656887 0
M  V30 45 H -2.742245 -0.000128 0.705879 0
M  V30 46 H -4.998171 -1.001983 1.173203 0
M  V30 47 H -5.945877 -0.787220 -2.958697 0
M  V30 48 H -5.467480 0.630055 -4.515856 0
M  V30 49 H -4.812653 -1.002063 -4.748769 0
M  V30 50 H -4.123504 0.316397 -5.735289 0
M  V30 END ATOM
M  V30 BEGIN BOND
M  V30 1 1 1 2
M  V30 2 1 2 3
M  V30 3 2 3 4
M  V30 4 1 3 5
M  V30 5 2 5 6
M  V30 6 1 6 7
M  V30 7 1 7 8
M  V30 8 1 7 9
M  V30 9 2 9 10
M  V30 10 1 10 11
M  V30 11 1 11 12
M  V30 12 1 12 13
M  V30 13 1 13 14
M  V30 14 2 14 15
M  V30 15 1 15 16
M  V30 16 2 16 17
M  V30 17 1 17 18
M  V30 18 1 18 19
M  V30 19 2 19 20
M  V30 20 1 20 21
M  V30 21 2 21 22
M  V30 22 1 22 23
M  V30 23 1 22 24
M  V30 24 2 24 25
M  V30 25 1 25 26
M  V30 26 1 26 27
M  V30 27 1 17 28
M  V30 28 2 28 29
M  V30 29 1 10 5
M  V30 30 1 29 14
M  V30 31 1 29 9
M  V30 32 1 25 19
M  V30 33 1 1 30
M  V30 34 1 1 31
M  V30 35 1 1 32
M  V30 36 1 2 33
M  V30 37 1 8 34
M  V30 38 1 8 35
M  V30 39 1 8 36
M  V30 40 1 11 37
M  V30 41 1 11 38
M  V30 42 1 12 39
M  V30 43 1 12 40
M  V30 44 1 13 41
M  V30 45 1 13 42
M  V30 46 1 15 43
M  V30 47 1 18 44
M  V30 48 1 20 45
M  V30 49 1 21 46
M  V30 50 1 24 47
M  V30 51 1 27 48
M  V30 52 1 27 49
M  V30 53 1 27 50
M  V30 END BOND
M  V30 END CTAB
M  END
>  <Dataset>  (152) 
ChEMBL_Kinases

>  <Ligand_Instance>  (152) 
nan

>  <PDB_ID>  (152) 
nan

>  <Standardized_SMILES>  (152) 
CNC(=O)c1nn(C)c2c1CCCc1cnc(Nc3ccc(Br)cc3OC)nc1-2

>  <Name>  (152) 
nan

>  <Pocket>  (152) 
nan

>  <ATP_Site>  (152) 
nan

>  <Peripheral>  (152) 
nan

>  <Num_H_Atoms_ProtBoundConf>  (152) 
nan

>  <Num_Resolved_Atoms>  (152) 
nan

>  <Num_Not_Resolved_Atoms>  (152) 
nan

$$$$
CHEMBL3666765
     RDKit          3D

  0  0  0  0  0  0  0  0  0  0999 V3000
M  V30 BEGIN CTAB
M  V30 COUNTS 47 50 0 0 0
M  V30 BEGIN ATOM
M  V30 1 C 6.061586 -3.089555 0.024643 0
M  V30 2 O 4.919678 -2.254432 0.107575 0
M  V30 3 C 3.979360 -2.217332 -0.935296 0
M  V30 4 C 4.186630 -3.007719 -2.041387 0
M  V30 5 C 3.224472 -2.929933 -3.040485 0
M  V30 6 Br 3.486895 -4.017314 -4.588913 0
M  V30 7 C 2.133981 -2.115335 -2.932133 0
M  V30 8 C 1.932372 -1.317131 -1.806032 0
M  V30 9 C 2.884822 -1.394561 -0.817741 0
M  V30 10 N 2.752296 -0.612104 0.362951 0
M  V30 11 C 1.675185 0.282073 0.622767 0
M  V30 12 N 1.700246 1.586083 0.264595 0
M  V30 13 C 0.689650 2.428971 0.507211 0
M  V30 14 C -0.433329 1.954288 1.151923 0
M  V30 15 C -0.437447 0.598318 1.514238 0
M  V30 16 N 0.599783 -0.224030 1.253871 0
M  V30 17 C -1.487883 -0.169179 2.203198 0
M  V30 18 C -2.812221 0.267942 2.255084 0
M  V30 19 C -3.457042 -0.714365 2.975108 0
M  V30 20 C -4.834990 -0.928235 3.417783 0
M  V30 21 N -5.838158 0.027744 3.093675 0
M  V30 22 O -5.308545 -1.893060 4.088170 0
M  V30 23 N -2.547134 -1.647834 3.307526 0
M  V30 24 N -1.344393 -1.342160 2.851929 0
M  V30 25 C -0.085887 -2.022052 2.956431 0
M  V30 26 C -3.585781 1.404492 1.773079 0
M  V30 27 C -2.881947 2.410835 0.963403 0
M  V30 28 C -1.558305 2.893712 1.421658 0
M  V30 29 H 6.595859 -3.031026 0.984908 0
M  V30 30 H 5.689229 -4.117329 -0.177034 0
M  V30 31 H 6.760771 -2.750802 -0.763537 0
M  V30 32 H 5.042977 -3.656042 -2.141211 0
M  V30 33 H 1.392908 -2.076494 -3.737646 0
M  V30 34 H 1.070590 -0.669945 -1.714554 0
M  V30 35 H 3.442815 -0.640922 1.126359 0
M  V30 36 H 0.651353 3.457574 0.251500 0
M  V30 37 H -6.241128 0.516111 3.941291 0
M  V30 38 H -6.407947 0.511016 2.349918 0
M  V30 39 H 0.719968 -1.357548 3.348571 0
M  V30 40 H 0.199956 -2.561200 2.039036 0
M  V30 41 H -0.204078 -2.817454 3.747044 0
M  V30 42 H -4.397499 0.971559 1.122491 0
M  V30 43 H -4.143968 1.847003 2.625643 0
M  V30 44 H -2.785836 2.125363 -0.105113 0
M  V30 45 H -3.544556 3.326443 0.930181 0
M  V30 46 H -1.535102 3.196373 2.489528 0
M  V30 47 H -1.330119 3.824920 0.849389 0
M  V30 END ATOM
M  V30 BEGIN BOND
M  V30 1 1 1 2
M  V30 2 1 2 3
M  V30 3 2 3 4
M  V30 4 1 4 5
M  V30 5 1 5 6
M  V30 6 2 5 7
M  V30 7 1 7 8
M  V30 8 2 8 9
M  V30 9 1 9 10
M  V30 10 1 10 11
M  V30 11 2 11 12
M  V30 12 1 12 13
M  V30 13 2 13 14
M  V30 14 1 14 15
M  V30 15 2 15 16
M  V30 16 1 15 17
M  V30 17 2 17 18
M  V30 18 1 18 19
M  V30 19 1 19 20
M  V30 20 1 20 21
M  V30 21 2 20 22
M  V30 22 2 19 23
M  V30 23 1 23 24
M  V30 24 1 24 25
M  V30 25 1 18 26
M  V30 26 1 26 27
M  V30 27 1 27 28
M  V30 28 1 9 3
M  V30 29 1 16 11
M  V30 30 1 24 17
M  V30 31 1 28 14
M  V30 32 1 1 29
M  V30 33 1 1 30
M  V30 34 1 1 31
M  V30 35 1 4 32
M  V30 36 1 7 33
M  V30 37 1 8 34
M  V30 38 1 10 35
M  V30 39 1 13 36
M  V30 40 1 21 37
M  V30 41 1 21 38
M  V30 42 1 25 39
M  V30 43 1 25 40
M  V30 44 1 25 41
M  V30 45 1 26 42
M  V30 46 1 26 43
M  V30 47 1 27 44
M  V30 48 1 27 45
M  V30 49 1 28 46
M  V30 50 1 28 47
M  V30 END BOND
M  V30 END CTAB
M  END
>  <Dataset>  (153) 
ChEMBL_Kinases

>  <Ligand_Instance>  (153) 
nan

>  <PDB_ID>  (153) 
nan

>  <Standardized_SMILES>  (153) 
COc1cc(Br)ccc1Nc1ncc2c(n1)-c1c(c(C(N)=O)nn1C)CCC2

>  <Name>  (153) 
nan

>  <Pocket>  (153) 
nan

>  <ATP_Site>  (153) 
nan

>  <Peripheral>  (153) 
nan

>  <Num_H_Atoms_ProtBoundConf>  (153) 
nan

>  <Num_Resolved_Atoms>  (153) 
nan

>  <Num_Not_Resolved_Atoms>  (153) 
nan

$$$$
CHEMBL3666764
     RDKit          3D

  0  0  0  0  0  0  0  0  0  0999 V3000
M  V30 BEGIN CTAB
M  V30 COUNTS 89 94 0 0 0
M  V30 BEGIN ATOM
M  V30 1 C -1.552535 -5.634521 5.973517 0
M  V30 2 C -0.873751 -6.392194 4.855638 0
M  V30 3 C 0.623089 -6.310286 4.960552 0
M  V30 4 C 1.408690 -7.355662 5.454385 0
M  V30 5 C 2.765632 -7.123928 5.491069 0
M  V30 6 C 3.380363 -5.957643 5.084577 0
M  V30 7 C 2.596890 -4.930585 4.600212 0
M  V30 8 C 3.250402 -3.664862 4.170110 0
M  V30 9 C 3.011443 -2.647822 5.290031 0
M  V30 10 C 1.236205 -5.137322 4.551152 0
M  V30 11 N 0.449505 -4.043160 4.030988 0
M  V30 12 C 0.342998 -4.226990 2.626696 0
M  V30 13 O 0.950426 -5.276549 2.269070 0
M  V30 14 C -0.365320 -3.331229 1.731804 0
M  V30 15 N -0.931338 -2.214673 2.153319 0
M  V30 16 N -1.529046 -1.548648 1.150970 0
M  V30 17 C -2.211219 -0.276513 1.258037 0
M  V30 18 C -1.328115 0.925088 1.197882 0
M  V30 19 F -2.054257 2.115352 1.293307 0
M  V30 20 F -0.505854 0.982297 2.348252 0
M  V30 21 F -0.431620 0.964287 0.161934 0
M  V30 22 C -1.302213 -2.326165 0.065014 0
M  V30 23 C -0.579756 -3.441415 0.398646 0
M  V30 24 C -0.110665 -4.547967 -0.466536 0
M  V30 25 C -1.270631 -4.904377 -1.373656 0
M  V30 26 C -1.290987 -4.130264 -2.658536 0
M  V30 27 C -1.817580 -2.750197 -2.425208 0
M  V30 28 C -2.344952 -2.307142 -3.627105 0
M  V30 29 N -2.865262 -1.063514 -3.605229 0
M  V30 30 C -2.879988 -0.289127 -2.502808 0
M  V30 31 N -3.390187 1.032994 -2.366276 0
M  V30 32 C -2.507431 2.067538 -2.838453 0
M  V30 33 C -1.291229 1.795818 -3.469095 0
M  V30 34 C -0.517986 2.843870 -3.905932 0
M  V30 35 C -0.848204 4.175184 -3.770065 0
M  V30 36 N 0.078613 5.107833 -4.297598 0
M  V30 37 C 0.330348 6.473894 -3.812261 0
M  V30 38 C 1.762247 6.505354 -3.320980 0
M  V30 39 N 2.469633 5.267105 -3.630079 0
M  V30 40 C 3.871649 5.471636 -3.292335 0
M  V30 41 C 2.363943 5.016096 -5.049245 0
M  V30 42 C 0.919829 4.820535 -5.460412 0
M  V30 43 C -2.046394 4.430866 -3.147099 0
M  V30 44 C -2.854046 3.390383 -2.694789 0
M  V30 45 O -4.039520 3.742595 -2.084218 0
M  V30 46 C -4.481249 5.065239 -1.887577 0
M  V30 47 N -2.357224 -0.762351 -1.366048 0
M  V30 48 C -1.813665 -1.976512 -1.256174 0
M  V30 49 H -2.102663 -6.387552 6.557950 0
M  V30 50 H -0.751357 -5.175294 6.577816 0
M  V30 51 H -2.230030 -4.867066 5.573042 0
M  V30 52 H -1.163631 -6.009063 3.854046 0
M  V30 53 H -1.113549 -7.483160 4.855867 0
M  V30 54 H 0.916086 -8.259467 5.765757 0
M  V30 55 H 3.354731 -7.949310 5.872864 0
M  V30 56 H 4.441316 -5.904343 5.167256 0
M  V30 57 H 2.796681 -3.291450 3.233377 0
M  V30 58 H 4.335575 -3.810176 3.993238 0
M  V30 59 H 3.132607 -1.606160 4.956308 0
M  V30 60 H 3.722653 -2.918507 6.121302 0
M  V30 61 H 1.994708 -2.847416 5.676669 0
M  V30 62 H -0.022942 -3.208972 4.462360 0
M  V30 63 H -2.590902 -0.285409 2.335813 0
M  V30 64 H -3.164491 -0.203665 0.709959 0
M  V30 65 H 0.295203 -5.400828 0.062582 0
M  V30 66 H 0.710578 -4.194180 -1.166527 0
M  V30 67 H -2.255648 -4.762669 -0.883201 0
M  V30 68 H -1.180320 -5.975482 -1.636707 0
M  V30 69 H -0.301740 -4.051765 -3.112466 0
M  V30 70 H -2.005471 -4.649209 -3.344276 0
M  V30 71 H -2.368728 -2.863670 -4.540815 0
M  V30 72 H -4.305910 1.271797 -1.973459 0
M  V30 73 H -1.061761 0.745630 -3.562986 0
M  V30 74 H 0.396862 2.449809 -4.378084 0
M  V30 75 H -0.341294 6.595447 -2.947774 0
M  V30 76 H 0.221058 7.233261 -4.600167 0
M  V30 77 H 1.775409 6.610782 -2.223790 0
M  V30 78 H 2.327428 7.330981 -3.774187 0
M  V30 79 H 4.297654 6.289089 -3.923973 0
M  V30 80 H 4.486946 4.567315 -3.425150 0
M  V30 81 H 3.954016 5.782926 -2.239759 0
M  V30 82 H 2.998436 4.135863 -5.312772 0
M  V30 83 H 2.837687 5.879280 -5.572940 0
M  V30 84 H 0.813025 3.797583 -5.823740 0
M  V30 85 H 0.705950 5.560487 -6.264610 0
M  V30 86 H -2.289686 5.485162 -3.049186 0
M  V30 87 H -3.688814 5.752919 -1.540217 0
M  V30 88 H -4.874240 5.432586 -2.863944 0
M  V30 89 H -5.340533 5.032189 -1.194384 0
M  V30 END ATOM
M  V30 BEGIN BOND
M  V30 1 1 1 2
M  V30 2 1 2 3
M  V30 3 2 3 4
M  V30 4 1 4 5
M  V30 5 2 5 6
M  V30 6 1 6 7
M  V30 7 1 7 8
M  V30 8 1 8 9
M  V30 9 2 7 10
M  V30 10 1 10 11
M  V30 11 1 11 12
M  V30 12 2 12 13
M  V30 13 1 12 14
M  V30 14 2 14 15
M  V30 15 1 15 16
M  V30 16 1 16 17
M  V30 17 1 17 18
M  V30 18 1 18 19
M  V30 19 1 18 20
M  V30 20 1 18 21
M  V30 21 1 16 22
M  V30 22 2 22 23
M  V30 23 1 23 24
M  V30 24 1 24 25
M  V30 25 1 25 26
M  V30 26 1 26 27
M  V30 27 2 27 28
M  V30 28 1 28 29
M  V30 29 2 29 30
M  V30 30 1 30 31
M  V30 31 1 31 32
M  V30 32 2 32 33
M  V30 33 1 33 34
M  V30 34 2 34 35
M  V30 35 1 35 36
M  V30 36 1 36 37
M  V30 37 1 37 38
M  V30 38 1 38 39
M  V30 39 1 39 40
M  V30 40 1 39 41
M  V30 41 1 41 42
M  V30 42 1 35 43
M  V30 43 2 43 44
M  V30 44 1 44 45
M  V30 45 1 45 46
M  V30 46 1 30 47
M  V30 47 2 47 48
M  V30 48 1 10 3
M  V30 49 1 23 14
M  V30 50 1 48 27
M  V30 51 1 48 22
M  V30 52 1 44 32
M  V30 53 1 42 36
M  V30 54 1 1 49
M  V30 55 1 1 50
M  V30 56 1 1 51
M  V30 57 1 2 52
M  V30 58 1 2 53
M  V30 59 1 4 54
M  V30 60 1 5 55
M  V30 61 1 6 56
M  V30 62 1 8 57
M  V30 63 1 8 58
M  V30 64 1 9 59
M  V30 65 1 9 60
M  V30 66 1 9 61
M  V30 67 1 11 62
M  V30 68 1 17 63
M  V30 69 1 17 64
M  V30 70 1 24 65
M  V30 71 1 24 66
M  V30 72 1 25 67
M  V30 73 1 25 68
M  V30 74 1 26 69
M  V30 75 1 26 70
M  V30 76 1 28 71
M  V30 77 1 31 72
M  V30 78 1 33 73
M  V30 79 1 34 74
M  V30 80 1 37 75
M  V30 81 1 37 76
M  V30 82 1 38 77
M  V30 83 1 38 78
M  V30 84 1 40 79
M  V30 85 1 40 80
M  V30 86 1 40 81
M  V30 87 1 41 82
M  V30 88 1 41 83
M  V30 89 1 42 84
M  V30 90 1 42 85
M  V30 91 1 43 86
M  V30 92 1 46 87
M  V30 93 1 46 88
M  V30 94 1 46 89
M  V30 END BOND
M  V30 END CTAB
M  END
>  <Dataset>  (154) 
ChEMBL_Kinases

>  <Ligand_Instance>  (154) 
nan

>  <PDB_ID>  (154) 
nan

>  <Standardized_SMILES>  (154) 
CCc1cccc(CC)c1NC(=O)c1nn(CC(F)(F)F)c2c1CCCc1cnc(Nc3ccc(N4CCN(C)CC4)cc3OC)nc1-2

>  <Name>  (154) 
nan

>  <Pocket>  (154) 
nan

>  <ATP_Site>  (154) 
nan

>  <Peripheral>  (154) 
nan

>  <Num_H_Atoms_ProtBoundConf>  (154) 
nan

>  <Num_Resolved_Atoms>  (154) 
nan

>  <Num_Not_Resolved_Atoms>  (154) 
nan

$$$$
CHEMBL3666762
     RDKit          3D

  0  0  0  0  0  0  0  0  0  0999 V3000
M  V30 BEGIN CTAB
M  V30 COUNTS 47 51 0 0 0
M  V30 BEGIN ATOM
M  V30 1 C 3.279004 -2.176522 5.104770 0
M  V30 2 C 3.262437 -2.357514 3.606430 0
M  V30 3 O 2.784411 -3.454228 3.168272 0
M  V30 4 O 3.808214 -1.216895 2.972357 0
M  V30 5 C 3.841924 -1.294656 1.563973 0
M  V30 6 C 4.911952 -1.611665 0.754549 0
M  V30 7 C 4.753434 -1.640937 -0.612893 0
M  V30 8 C 3.530629 -1.356528 -1.200222 0
M  V30 9 C 2.459356 -1.039583 -0.392697 0
M  V30 10 C 1.163016 -0.744123 -0.996015 0
M  V30 11 N 0.089128 -0.407988 -0.291359 0
M  V30 12 C -1.137417 -0.138173 -0.746580 0
M  V30 13 N -2.263400 0.230688 0.022185 0
M  V30 14 C -2.300293 0.487140 1.414057 0
M  V30 15 C -1.148402 0.686834 2.142035 0
M  V30 16 C -1.151030 0.935539 3.517839 0
M  V30 17 C -2.330366 0.993095 4.222945 0
M  V30 18 N -2.584168 1.210742 5.511215 0
M  V30 19 N -3.895601 1.155675 5.637936 0
M  V30 20 C -4.501040 0.906856 4.458667 0
M  V30 21 C -3.483794 0.794220 3.500987 0
M  V30 22 C -3.464758 0.551391 2.150548 0
M  V30 23 C -1.229903 -0.238166 -2.114956 0
M  V30 24 C -2.395684 -0.004533 -2.806518 0
M  V30 25 C -2.557629 -0.085731 -4.162613 0
M  V30 26 C -1.452293 -0.436843 -4.948533 0
M  V30 27 C -0.269729 -0.677908 -4.295355 0
M  V30 28 C -0.173920 -0.578874 -2.928364 0
M  V30 29 N 1.021147 -0.830046 -2.355831 0
M  V30 30 C 2.607160 -1.006824 0.976553 0
M  V30 31 H 2.922494 -3.096476 5.625652 0
M  V30 32 H 2.576947 -1.336685 5.281467 0
M  V30 33 H 4.302580 -1.889879 5.384729 0
M  V30 34 H 5.824487 -1.817479 1.294287 0
M  V30 35 H 5.650522 -1.902443 -1.196598 0
M  V30 36 H 3.481147 -1.399351 -2.289452 0
M  V30 37 H -3.183618 0.342898 -0.397714 0
M  V30 38 H -0.169380 0.676446 1.736261 0
M  V30 39 H -0.227392 1.093175 4.083456 0
M  V30 40 H -1.875973 1.390106 6.269862 0
M  V30 41 H -5.549975 0.800225 4.211268 0
M  V30 42 H -4.396667 0.397977 1.608437 0
M  V30 43 H -3.305907 0.271593 -2.311371 0
M  V30 44 H -3.453766 0.093271 -4.724663 0
M  V30 45 H -1.508567 -0.519334 -6.014719 0
M  V30 46 H 0.599105 -0.949345 -4.860863 0
M  V30 47 H 1.731664 -0.753415 1.548175 0
M  V30 END ATOM
M  V30 BEGIN BOND
M  V30 1 1 1 2
M  V30 2 2 2 3
M  V30 3 1 2 4
M  V30 4 1 4 5
M  V30 5 2 5 6
M  V30 6 1 6 7
M  V30 7 2 7 8
M  V30 8 1 8 9
M  V30 9 1 9 10
M  V30 10 2 10 11
M  V30 11 1 11 12
M  V30 12 1 12 13
M  V30 13 1 13 14
M  V30 14 2 14 15
M  V30 15 1 15 16
M  V30 16 2 16 17
M  V30 17 1 17 18
M  V30 18 1 18 19
M  V30 19 2 19 20
M  V30 20 1 20 21
M  V30 21 2 21 22
M  V30 22 2 12 23
M  V30 23 1 23 24
M  V30 24 2 24 25
M  V30 25 1 25 26
M  V30 26 2 26 27
M  V30 27 1 27 28
M  V30 28 2 28 29
M  V30 29 2 9 30
M  V30 30 1 30 5
M  V30 31 1 29 10
M  V30 32 1 22 14
M  V30 33 1 28 23
M  V30 34 1 21 17
M  V30 35 1 1 31
M  V30 36 1 1 32
M  V30 37 1 1 33
M  V30 38 1 6 34
M  V30 39 1 7 35
M  V30 40 1 8 36
M  V30 41 1 13 37
M  V30 42 1 15 38
M  V30 43 1 16 39
M  V30 44 1 18 40
M  V30 45 1 20 41
M  V30 46 1 22 42
M  V30 47 1 24 43
M  V30 48 1 25 44
M  V30 49 1 26 45
M  V30 50 1 27 46
M  V30 51 1 30 47
M  V30 END BOND
M  V30 END CTAB
M  END
>  <Dataset>  (155) 
ChEMBL_Kinases

>  <Ligand_Instance>  (155) 
nan

>  <PDB_ID>  (155) 
nan

>  <Standardized_SMILES>  (155) 
CC(=O)Oc1cccc(-c2nc(Nc3ccc4[nH]ncc4c3)c3ccccc3n2)c1

>  <Name>  (155) 
nan

>  <Pocket>  (155) 
nan

>  <ATP_Site>  (155) 
nan

>  <Peripheral>  (155) 
nan

>  <Num_H_Atoms_ProtBoundConf>  (155) 
nan

>  <Num_Resolved_Atoms>  (155) 
nan

>  <Num_Not_Resolved_Atoms>  (155) 
nan

$$$$
CHEMBL3666759
     RDKit          3D

  0  0  0  0  0  0  0  0  0  0999 V3000
M  V30 BEGIN CTAB
M  V30 COUNTS 65 69 0 0 0
M  V30 BEGIN ATOM
M  V30 1 C 2.187136 0.307478 7.562974 0
M  V30 2 C 0.689041 0.509702 7.420896 0
M  V30 3 C 0.445861 1.920345 6.917771 0
M  V30 4 C 1.155479 1.993526 5.590618 0
M  V30 5 O 1.714712 0.904323 5.306564 0
M  V30 6 N 1.246684 3.093753 4.695396 0
M  V30 7 C 2.037523 2.621694 3.584102 0
M  V30 8 C 3.412624 2.729706 3.538283 0
M  V30 9 C 4.058166 2.240604 2.422266 0
M  V30 10 C 3.321301 1.668130 1.403503 0
M  V30 11 C 1.946820 1.572779 1.474851 0
M  V30 12 C 1.182644 0.965229 0.389310 0
M  V30 13 N -0.157038 0.891684 0.493421 0
M  V30 14 C -0.921681 0.336332 -0.485613 0
M  V30 15 N -2.336702 0.264174 -0.366161 0
M  V30 16 C -3.167414 -0.750704 0.182848 0
M  V30 17 C -2.572238 -1.882638 0.696310 0
M  V30 18 C -3.479251 -2.800182 1.202313 0
M  V30 19 C -4.843483 -2.610603 1.198003 0
M  V30 20 N -5.927951 -3.296615 1.602565 0
M  V30 21 N -7.031863 -2.640634 1.354117 0
M  V30 22 C -6.749502 -1.456089 0.758327 0
M  V30 23 C -5.372672 -1.438358 0.660695 0
M  V30 24 C -4.515145 -0.470516 0.133406 0
M  V30 25 C -0.238194 -0.143567 -1.585261 0
M  V30 26 C -0.963832 -0.713523 -2.599774 0
M  V30 27 C -0.359743 -1.217300 -3.731356 0
M  V30 28 C 1.007773 -1.175735 -3.904830 0
M  V30 29 O 1.842704 -1.587404 -4.891672 0
M  V30 30 C 1.598729 -2.213472 -6.094225 0
M  V30 31 C 0.950373 -3.552563 -6.056488 0
M  V30 32 O 0.810023 -3.975200 -7.398707 0
M  V30 33 C 0.205715 -5.230138 -7.451721 0
M  V30 34 C 1.753952 -0.593166 -2.868840 0
M  V30 35 C 1.132884 -0.083942 -1.723374 0
M  V30 36 N 1.800770 0.482313 -0.704159 0
M  V30 37 C 1.274723 2.053663 2.579346 0
M  V30 38 H 2.732707 1.275947 7.396429 0
M  V30 39 H 2.570485 -0.519135 6.946976 0
M  V30 40 H 2.407549 0.052626 8.623390 0
M  V30 41 H 0.334244 -0.223280 6.695624 0
M  V30 42 H 0.180462 0.295555 8.377069 0
M  V30 43 H 0.779936 2.684309 7.616762 0
M  V30 44 H -0.628480 2.055606 6.717546 0
M  V30 45 H 0.743091 3.937129 5.042580 0
M  V30 46 H 3.870979 3.205616 4.415122 0
M  V30 47 H 5.146614 2.349928 2.433943 0
M  V30 48 H 3.863084 1.294162 0.540706 0
M  V30 49 H -2.636119 1.150670 -0.784745 0
M  V30 50 H -1.516081 -2.035220 0.702228 0
M  V30 51 H -3.118575 -3.740788 1.637326 0
M  V30 52 H -5.907355 -4.233944 2.058340 0
M  V30 53 H -7.399160 -0.663601 0.413814 0
M  V30 54 H -4.916519 0.428093 -0.278662 0
M  V30 55 H -2.043864 -0.794000 -2.558307 0
M  V30 56 H -0.855981 -1.667108 -4.555372 0
M  V30 57 H 1.076490 -1.511589 -6.809219 0
M  V30 58 H 2.605208 -2.360898 -6.588785 0
M  V30 59 H 1.642076 -4.332209 -5.619532 0
M  V30 60 H 0.027355 -3.649819 -5.497696 0
M  V30 61 H -0.790954 -5.247968 -7.003968 0
M  V30 62 H 0.811592 -6.003431 -6.912192 0
M  V30 63 H 0.142941 -5.578907 -8.501425 0
M  V30 64 H 2.846852 -0.464974 -2.815863 0
M  V30 65 H 0.211433 1.966341 2.606999 0
M  V30 END ATOM
M  V30 BEGIN BOND
M  V30 1 1 1 2
M  V30 2 1 2 3
M  V30 3 1 3 4
M  V30 4 2 4 5
M  V30 5 1 4 6
M  V30 6 1 6 7
M  V30 7 2 7 8
M  V30 8 1 8 9
M  V30 9 2 9 10
M  V30 10 1 10 11
M  V30 11 1 11 12
M  V30 12 2 12 13
M  V30 13 1 13 14
M  V30 14 1 14 15
M  V30 15 1 15 16
M  V30 16 2 16 17
M  V30 17 1 17 18
M  V30 18 2 18 19
M  V30 19 1 19 20
M  V30 20 1 20 21
M  V30 21 2 21 22
M  V30 22 1 22 23
M  V30 23 2 23 24
M  V30 24 2 14 25
M  V30 25 1 25 26
M  V30 26 2 26 27
M  V30 27 1 27 28
M  V30 28 1 28 29
M  V30 29 1 29 30
M  V30 30 1 30 31
M  V30 31 1 31 32
M  V30 32 1 32 33
M  V30 33 2 28 34
M  V30 34 1 34 35
M  V30 35 2 35 36
M  V30 36 2 11 37
M  V30 37 1 37 7
M  V30 38 1 36 12
M  V30 39 1 24 16
M  V30 40 1 35 25
M  V30 41 1 23 19
M  V30 42 1 1 38
M  V30 43 1 1 39
M  V30 44 1 1 40
M  V30 45 1 2 41
M  V30 46 1 2 42
M  V30 47 1 3 43
M  V30 48 1 3 44
M  V30 49 1 6 45
M  V30 50 1 8 46
M  V30 51 1 9 47
M  V30 52 1 10 48
M  V30 53 1 15 49
M  V30 54 1 17 50
M  V30 55 1 18 51
M  V30 56 1 20 52
M  V30 57 1 22 53
M  V30 58 1 24 54
M  V30 59 1 26 55
M  V30 60 1 27 56
M  V30 61 1 30 57
M  V30 62 1 30 58
M  V30 63 1 31 59
M  V30 64 1 31 60
M  V30 65 1 33 61
M  V30 66 1 33 62
M  V30 67 1 33 63
M  V30 68 1 34 64
M  V30 69 1 37 65
M  V30 END BOND
M  V30 END CTAB
M  END
>  <Dataset>  (156) 
ChEMBL_Kinases

>  <Ligand_Instance>  (156) 
nan

>  <PDB_ID>  (156) 
nan

>  <Standardized_SMILES>  (156) 
CCCC(=O)Nc1cccc(-c2nc(Nc3ccc4[nH]ncc4c3)c3ccc(OCCOC)cc3n2)c1

>  <Name>  (156) 
nan

>  <Pocket>  (156) 
nan

>  <ATP_Site>  (156) 
nan

>  <Peripheral>  (156) 
nan

>  <Num_H_Atoms_ProtBoundConf>  (156) 
nan

>  <Num_Resolved_Atoms>  (156) 
nan

>  <Num_Not_Resolved_Atoms>  (156) 
nan

$$$$
CHEMBL3666753
     RDKit          3D

  0  0  0  0  0  0  0  0  0  0999 V3000
M  V30 BEGIN CTAB
M  V30 COUNTS 47 51 0 0 0
M  V30 BEGIN ATOM
M  V30 1 C -0.625651 -4.797427 -2.841379 0
M  V30 2 C 0.525335 -3.887513 -2.587859 0
M  V30 3 O 0.867397 -3.131674 -3.544900 0
M  V30 4 O 1.199206 -3.845268 -1.397868 0
M  V30 5 C 2.266157 -2.974854 -1.225080 0
M  V30 6 C 3.519314 -3.437523 -1.566293 0
M  V30 7 C 4.641468 -2.672057 -1.439804 0
M  V30 8 C 4.427698 -1.384321 -0.939056 0
M  V30 9 C 3.173468 -0.883983 -0.583956 0
M  V30 10 C 2.077554 -1.704951 -0.734321 0
M  V30 11 C 0.767558 -1.187838 -0.364792 0
M  V30 12 N 0.690329 0.068073 0.120404 0
M  V30 13 C -0.443103 0.675088 0.496247 0
M  V30 14 N -0.285634 2.014474 0.988011 0
M  V30 15 C -0.160833 2.340734 2.366780 0
M  V30 16 C 0.110248 3.618095 2.801858 0
M  V30 17 C 0.224857 3.935816 4.137719 0
M  V30 18 C 0.066689 2.957769 5.090455 0
M  V30 19 N 0.104161 2.887013 6.453251 0
M  V30 20 N -0.123608 1.664466 6.869115 0
M  V30 21 C -0.327112 0.841368 5.826420 0
M  V30 22 C -0.209493 1.647088 4.691118 0
M  V30 23 C -0.314566 1.381240 3.340639 0
M  V30 24 C -1.637390 -0.016564 0.388410 0
M  V30 25 C -2.768510 0.646142 0.786628 0
M  V30 26 C -3.943358 -0.087331 0.662075 0
M  V30 27 C -3.977761 -1.392368 0.172846 0
M  V30 28 C -2.766871 -1.983213 -0.208259 0
M  V30 29 C -1.573798 -1.301666 -0.105928 0
M  V30 30 N -0.396828 -1.845194 -0.463308 0
M  V30 31 H -1.595416 -4.286603 -2.703238 0
M  V30 32 H -0.499709 -5.230997 -3.874357 0
M  V30 33 H -0.487937 -5.657396 -2.139149 0
M  V30 34 H 3.657842 -4.451811 -1.956014 0
M  V30 35 H 5.643204 -2.965809 -1.685536 0
M  V30 36 H 5.315105 -0.747981 -0.828482 0
M  V30 37 H 3.097135 0.126597 -0.202872 0
M  V30 38 H -0.264689 2.772336 0.271850 0
M  V30 39 H 0.246804 4.436516 2.084898 0
M  V30 40 H 0.437502 4.931601 4.497705 0
M  V30 41 H 0.296350 3.744909 7.034437 0
M  V30 42 H -0.541676 -0.236352 5.837018 0
M  V30 43 H -0.530166 0.372604 2.972210 0
M  V30 44 H -2.747194 1.654169 1.166832 0
M  V30 45 H -4.880296 0.397721 0.967470 0
M  V30 46 H -4.912758 -1.938834 0.087704 0
M  V30 47 H -2.750944 -3.008562 -0.598050 0
M  V30 END ATOM
M  V30 BEGIN BOND
M  V30 1 1 1 2
M  V30 2 2 2 3
M  V30 3 1 2 4
M  V30 4 1 4 5
M  V30 5 2 5 6
M  V30 6 1 6 7
M  V30 7 2 7 8
M  V30 8 1 8 9
M  V30 9 2 9 10
M  V30 10 1 10 11
M  V30 11 2 11 12
M  V30 12 1 12 13
M  V30 13 1 13 14
M  V30 14 1 14 15
M  V30 15 2 15 16
M  V30 16 1 16 17
M  V30 17 2 17 18
M  V30 18 1 18 19
M  V30 19 1 19 20
M  V30 20 2 20 21
M  V30 21 1 21 22
M  V30 22 2 22 23
M  V30 23 2 13 24
M  V30 24 1 24 25
M  V30 25 2 25 26
M  V30 26 1 26 27
M  V30 27 2 27 28
M  V30 28 1 28 29
M  V30 29 2 29 30
M  V30 30 1 10 5
M  V30 31 1 30 11
M  V30 32 1 23 15
M  V30 33 1 29 24
M  V30 34 1 22 18
M  V30 35 1 1 31
M  V30 36 1 1 32
M  V30 37 1 1 33
M  V30 38 1 6 34
M  V30 39 1 7 35
M  V30 40 1 8 36
M  V30 41 1 9 37
M  V30 42 1 14 38
M  V30 43 1 16 39
M  V30 44 1 17 40
M  V30 45 1 19 41
M  V30 46 1 21 42
M  V30 47 1 23 43
M  V30 48 1 25 44
M  V30 49 1 26 45
M  V30 50 1 27 46
M  V30 51 1 28 47
M  V30 END BOND
M  V30 END CTAB
M  END
>  <Dataset>  (157) 
ChEMBL_Kinases

>  <Ligand_Instance>  (157) 
nan

>  <PDB_ID>  (157) 
nan

>  <Standardized_SMILES>  (157) 
CC(=O)Oc1ccccc1-c1nc(Nc2ccc3[nH]ncc3c2)c2ccccc2n1

>  <Name>  (157) 
nan

>  <Pocket>  (157) 
nan

>  <ATP_Site>  (157) 
nan

>  <Peripheral>  (157) 
nan

>  <Num_H_Atoms_ProtBoundConf>  (157) 
nan

>  <Num_Resolved_Atoms>  (157) 
nan

>  <Num_Not_Resolved_Atoms>  (157) 
nan

$$$$
CHEMBL3666738
     RDKit          3D

  0  0  0  0  0  0  0  0  0  0999 V3000
M  V30 BEGIN CTAB
M  V30 COUNTS 53 57 0 0 0
M  V30 BEGIN ATOM
M  V30 1 C 0.293786 -0.832780 3.647164 0
M  V30 2 N 1.289760 -1.754516 3.137883 0
M  V30 3 C 1.347618 -3.150457 3.490833 0
M  V30 4 C 2.295636 -1.322435 2.235088 0
M  V30 5 O 3.201909 -2.017600 1.731050 0
M  V30 6 N 2.320604 0.022637 1.831918 0
M  V30 7 C 3.109216 0.842087 0.986701 0
M  V30 8 C 4.204299 1.485299 1.554644 0
M  V30 9 C 5.018517 2.302280 0.785565 0
M  V30 10 C 4.688200 2.442110 -0.559906 0
M  V30 11 C 3.606094 1.807277 -1.123752 0
M  V30 12 C 2.802148 0.996391 -0.349621 0
M  V30 13 C 1.649623 0.315196 -0.934600 0
M  V30 14 N 0.882792 -0.470036 -0.157085 0
M  V30 15 C -0.189353 -1.122972 -0.633330 0
M  V30 16 N -1.031173 -1.961816 0.137052 0
M  V30 17 C -2.192111 -1.562732 0.853759 0
M  V30 18 C -2.545891 -0.232124 0.802666 0
M  V30 19 C -3.680774 0.097861 1.517086 0
M  V30 20 C -4.416336 -0.835559 2.235969 0
M  V30 21 N -5.505519 -0.835350 2.992385 0
M  V30 22 N -5.789695 -2.042251 3.458957 0
M  V30 23 C -4.849537 -2.919127 3.001595 0
M  V30 24 C -3.986242 -2.166499 2.234148 0
M  V30 25 C -2.853674 -2.561698 1.535893 0
M  V30 26 C -0.464617 -0.945319 -1.968871 0
M  V30 27 C -1.551738 -1.586669 -2.524553 0
M  V30 28 C -1.886126 -1.452475 -3.860139 0
M  V30 29 C -1.114320 -0.650468 -4.683665 0
M  V30 30 C -0.025652 -0.007168 -4.130729 0
M  V30 31 C 0.301837 -0.145789 -2.797500 0
M  V30 32 N 1.376759 0.486240 -2.240561 0
M  V30 33 H -0.399471 -0.500932 2.870306 0
M  V30 34 H -0.276002 -1.257355 4.487029 0
M  V30 35 H 0.888541 0.011804 4.098501 0
M  V30 36 H 1.254245 -3.751310 2.545113 0
M  V30 37 H 2.257186 -3.436230 4.041882 0
M  V30 38 H 0.472336 -3.363693 4.141363 0
M  V30 39 H 1.631651 0.738220 2.161766 0
M  V30 40 H 4.482811 1.388761 2.613840 0
M  V30 41 H 5.871349 2.802076 1.231735 0
M  V30 42 H 5.326475 3.080773 -1.156638 0
M  V30 43 H 3.419770 1.965707 -2.161956 0
M  V30 44 H -0.661301 -2.934357 0.096295 0
M  V30 45 H -1.956877 0.476530 0.235771 0
M  V30 46 H -4.019623 1.130310 1.522177 0
M  V30 47 H -6.063515 0.030426 3.186880 0
M  V30 48 H -4.779507 -3.979095 3.189482 0
M  V30 49 H -2.500266 -3.583117 1.518278 0
M  V30 50 H -2.217578 -2.234002 -1.971035 0
M  V30 51 H -2.739352 -1.945488 -4.332457 0
M  V30 52 H -1.336523 -0.511853 -5.744854 0
M  V30 53 H 0.625677 0.637307 -4.711920 0
M  V30 END ATOM
M  V30 BEGIN BOND
M  V30 1 1 1 2
M  V30 2 1 2 3
M  V30 3 1 2 4
M  V30 4 2 4 5
M  V30 5 1 4 6
M  V30 6 1 6 7
M  V30 7 2 7 8
M  V30 8 1 8 9
M  V30 9 2 9 10
M  V30 10 1 10 11
M  V30 11 2 11 12
M  V30 12 1 12 13
M  V30 13 2 13 14
M  V30 14 1 14 15
M  V30 15 1 15 16
M  V30 16 1 16 17
M  V30 17 2 17 18
M  V30 18 1 18 19
M  V30 19 2 19 20
M  V30 20 1 20 21
M  V30 21 1 21 22
M  V30 22 2 22 23
M  V30 23 1 23 24
M  V30 24 2 24 25
M  V30 25 2 15 26
M  V30 26 1 26 27
M  V30 27 2 27 28
M  V30 28 1 28 29
M  V30 29 2 29 30
M  V30 30 1 30 31
M  V30 31 2 31 32
M  V30 32 1 12 7
M  V30 33 1 32 13
M  V30 34 1 25 17
M  V30 35 1 31 26
M  V30 36 1 24 20
M  V30 37 1 1 33
M  V30 38 1 1 34
M  V30 39 1 1 35
M  V30 40 1 3 36
M  V30 41 1 3 37
M  V30 42 1 3 38
M  V30 43 1 6 39
M  V30 44 1 8 40
M  V30 45 1 9 41
M  V30 46 1 10 42
M  V30 47 1 11 43
M  V30 48 1 16 44
M  V30 49 1 18 45
M  V30 50 1 19 46
M  V30 51 1 21 47
M  V30 52 1 23 48
M  V30 53 1 25 49
M  V30 54 1 27 50
M  V30 55 1 28 51
M  V30 56 1 29 52
M  V30 57 1 30 53
M  V30 END BOND
M  V30 END CTAB
M  END
>  <Dataset>  (158) 
ChEMBL_Kinases

>  <Ligand_Instance>  (158) 
nan

>  <PDB_ID>  (158) 
nan

>  <Standardized_SMILES>  (158) 
CN(C)C(=O)Nc1ccccc1-c1nc(Nc2ccc3[nH]ncc3c2)c2ccccc2n1

>  <Name>  (158) 
nan

>  <Pocket>  (158) 
nan

>  <ATP_Site>  (158) 
nan

>  <Peripheral>  (158) 
nan

>  <Num_H_Atoms_ProtBoundConf>  (158) 
nan

>  <Num_Resolved_Atoms>  (158) 
nan

>  <Num_Not_Resolved_Atoms>  (158) 
nan

$$$$
CHEMBL3666735
     RDKit          3D

  0  0  0  0  0  0  0  0  0  0999 V3000
M  V30 BEGIN CTAB
M  V30 COUNTS 60 65 0 0 0
M  V30 BEGIN ATOM
M  V30 1 O 2.847988 0.854239 2.200990 0
M  V30 2 C 1.649594 0.578318 2.569662 0
M  V30 3 C 1.787335 -0.658507 3.344610 0
M  V30 4 N 3.134998 -1.112600 3.483900 0
M  V30 5 C 3.933483 -0.222713 4.309685 0
M  V30 6 C 5.197328 0.072173 3.555612 0
M  V30 7 C 5.168991 -0.740279 2.302971 0
M  V30 8 C 3.847949 -1.420645 2.308959 0
M  V30 9 N 0.477702 1.323337 2.280928 0
M  V30 10 C 0.556578 2.586921 1.462683 0
M  V30 11 C 1.010955 3.616593 2.176717 0
M  V30 12 C 0.964835 4.748641 1.337294 0
M  V30 13 C 0.492114 4.587797 0.023167 0
M  V30 14 C 0.108296 3.238488 -0.287625 0
M  V30 15 C 0.094108 1.932394 0.484595 0
M  V30 16 C -0.430573 1.202127 -0.635890 0
M  V30 17 N -0.551727 -0.012814 0.013807 0
M  V30 18 C -1.032514 -1.036319 -0.755880 0
M  V30 19 N -1.320473 -2.421102 -0.420877 0
M  V30 20 C -2.544546 -3.174486 -0.328766 0
M  V30 21 C -3.800514 -2.629508 -0.353704 0
M  V30 22 C -4.896903 -3.490731 -0.328705 0
M  V30 23 C -4.589590 -4.831959 -0.280713 0
M  V30 24 N -5.449655 -5.868811 -0.260275 0
M  V30 25 N -4.825067 -7.054145 -0.220622 0
M  V30 26 C -3.482290 -6.811986 -0.215540 0
M  V30 27 C -3.350639 -5.433346 -0.253526 0
M  V30 28 C -2.272518 -4.534259 -0.279828 0
M  V30 29 C -1.365127 -0.863677 -2.059927 0
M  V30 30 C -1.848512 -1.770812 -2.972048 0
M  V30 31 C -2.160968 -1.541158 -4.287160 0
M  V30 32 C -1.987484 -0.254720 -4.816257 0
M  V30 33 C -1.507063 0.684508 -3.939345 0
M  V30 34 C -1.215535 0.384931 -2.640582 0
M  V30 35 N -0.751752 1.378736 -1.902075 0
M  V30 36 H 1.154594 -1.462408 2.934287 0
M  V30 37 H 1.408516 -0.469097 4.377914 0
M  V30 38 H 4.125229 -0.743317 5.260909 0
M  V30 39 H 3.359293 0.705129 4.593770 0
M  V30 40 H 5.298796 1.160175 3.402358 0
M  V30 41 H 6.087965 -0.252984 4.171017 0
M  V30 42 H 6.032510 -1.457672 2.271720 0
M  V30 43 H 5.327948 -0.109613 1.387445 0
M  V30 44 H 4.061065 -2.534542 2.359337 0
M  V30 45 H 3.274489 -1.287449 1.371773 0
M  V30 46 H -0.309546 0.783525 2.760094 0
M  V30 47 H 1.325117 3.512395 3.190304 0
M  V30 48 H 1.312758 5.643203 1.825070 0
M  V30 49 H 0.527898 5.555162 -0.473648 0
M  V30 50 H -0.183366 3.555492 -1.371254 0
M  V30 51 H -0.373391 -2.790441 -0.232190 0
M  V30 52 H -3.929669 -1.564611 -0.388534 0
M  V30 53 H -5.915412 -3.146953 -0.348048 0
M  V30 54 H -6.517668 -5.876558 -0.271534 0
M  V30 55 H -2.618070 -7.490659 -0.186875 0
M  V30 56 H -1.285213 -4.976843 -0.256300 0
M  V30 57 H -1.993653 -2.783393 -2.619192 0
M  V30 58 H -2.531693 -2.320923 -4.920794 0
M  V30 59 H -2.206916 0.007997 -5.838774 0
M  V30 60 H -1.363713 1.694793 -4.350218 0
M  V30 END ATOM
M  V30 BEGIN BOND
M  V30 1 2 1 2
M  V30 2 1 2 3
M  V30 3 1 3 4
M  V30 4 1 4 5
M  V30 5 1 5 6
M  V30 6 1 6 7
M  V30 7 1 7 8
M  V30 8 1 2 9
M  V30 9 1 9 10
M  V30 10 2 10 11
M  V30 11 1 11 12
M  V30 12 2 12 13
M  V30 13 1 13 14
M  V30 14 2 14 15
M  V30 15 1 15 16
M  V30 16 2 16 17
M  V30 17 1 17 18
M  V30 18 1 18 19
M  V30 19 1 19 20
M  V30 20 2 20 21
M  V30 21 1 21 22
M  V30 22 2 22 23
M  V30 23 1 23 24
M  V30 24 1 24 25
M  V30 25 2 25 26
M  V30 26 1 26 27
M  V30 27 2 27 28
M  V30 28 2 18 29
M  V30 29 1 29 30
M  V30 30 2 30 31
M  V30 31 1 31 32
M  V30 32 2 32 33
M  V30 33 1 33 34
M  V30 34 2 34 35
M  V30 35 1 8 4
M  V30 36 1 15 10
M  V30 37 1 35 16
M  V30 38 1 28 20
M  V30 39 1 34 29
M  V30 40 1 27 23
M  V30 41 1 3 36
M  V30 42 1 3 37
M  V30 43 1 5 38
M  V30 44 1 5 39
M  V30 45 1 6 40
M  V30 46 1 6 41
M  V30 47 1 7 42
M  V30 48 1 7 43
M  V30 49 1 8 44
M  V30 50 1 8 45
M  V30 51 1 9 46
M  V30 52 1 11 47
M  V30 53 1 12 48
M  V30 54 1 13 49
M  V30 55 1 14 50
M  V30 56 1 19 51
M  V30 57 1 21 52
M  V30 58 1 22 53
M  V30 59 1 24 54
M  V30 60 1 26 55
M  V30 61 1 28 56
M  V30 62 1 30 57
M  V30 63 1 31 58
M  V30 64 1 32 59
M  V30 65 1 33 60
M  V30 END BOND
M  V30 END CTAB
M  END
>  <Dataset>  (159) 
ChEMBL_Kinases

>  <Ligand_Instance>  (159) 
nan

>  <PDB_ID>  (159) 
nan

>  <Standardized_SMILES>  (159) 
O=C(CN1CCCC1)Nc1ccccc1-c1nc(Nc2ccc3[nH]ncc3c2)c2ccccc2n1

>  <Name>  (159) 
nan

>  <Pocket>  (159) 
nan

>  <ATP_Site>  (159) 
nan

>  <Peripheral>  (159) 
nan

>  <Num_H_Atoms_ProtBoundConf>  (159) 
nan

>  <Num_Resolved_Atoms>  (159) 
nan

>  <Num_Not_Resolved_Atoms>  (159) 
nan

$$$$
CHEMBL3666733
     RDKit          3D

  0  0  0  0  0  0  0  0  0  0999 V3000
M  V30 BEGIN CTAB
M  V30 COUNTS 53 57 0 0 0
M  V30 BEGIN ATOM
M  V30 1 C 1.260570 -2.639183 4.366321 0
M  V30 2 N 1.686882 -1.587764 3.427237 0
M  V30 3 C 2.990278 -1.062376 3.799643 0
M  V30 4 C 3.461428 -0.098613 2.772137 0
M  V30 5 O 4.587170 0.300674 3.142570 0
M  V30 6 N 2.844429 0.334442 1.591352 0
M  V30 7 C 3.319837 1.218241 0.639294 0
M  V30 8 C 4.509392 1.893046 0.769782 0
M  V30 9 C 5.093284 2.734545 -0.150003 0
M  V30 10 C 4.424632 2.938299 -1.345434 0
M  V30 11 C 3.230067 2.288385 -1.525201 0
M  V30 12 C 2.706155 1.463027 -0.562673 0
M  V30 13 C 1.380172 0.884443 -0.876467 0
M  V30 14 N 0.676249 0.151445 -0.115587 0
M  V30 15 C -0.427368 -0.466163 -0.141472 0
M  V30 16 N -1.110462 -1.240051 0.767627 0
M  V30 17 C -2.342706 -1.850174 1.064598 0
M  V30 18 C -3.250576 -0.806858 1.443288 0
M  V30 19 C -4.526184 -1.350438 1.738834 0
M  V30 20 C -4.924197 -2.669898 1.694065 0
M  V30 21 N -6.074651 -3.278292 1.940884 0
M  V30 22 N -5.845834 -4.541684 1.723227 0
M  V30 23 C -4.554007 -4.736632 1.338844 0
M  V30 24 C -3.897389 -3.473991 1.308960 0
M  V30 25 C -2.614439 -3.186422 0.982587 0
M  V30 26 C -1.008406 -0.280898 -1.340350 0
M  V30 27 C -2.149518 -0.694084 -1.976120 0
M  V30 28 C -2.847710 -0.650335 -3.063831 0
M  V30 29 C -2.082326 0.170106 -3.925324 0
M  V30 30 C -0.848130 0.791317 -3.659218 0
M  V30 31 C -0.375938 0.511992 -2.333117 0
M  V30 32 N 0.833503 1.109408 -2.113340 0
M  V30 33 H 0.182746 -2.618955 4.542009 0
M  V30 34 H 1.445828 -3.633738 3.854668 0
M  V30 35 H 1.858384 -2.559824 5.280927 0
M  V30 36 H 1.681624 -1.970297 2.449633 0
M  V30 37 H 3.710941 -1.912796 3.840706 0
M  V30 38 H 2.879790 -0.607661 4.804414 0
M  V30 39 H 1.935650 -0.160640 1.613830 0
M  V30 40 H 5.147135 1.834063 1.660438 0
M  V30 41 H 6.032994 3.245697 -0.012139 0
M  V30 42 H 4.835239 3.588638 -2.100400 0
M  V30 43 H 2.744593 2.485629 -2.483223 0
M  V30 44 H -0.500147 -1.488479 1.563566 0
M  V30 45 H -3.059906 0.238704 1.515868 0
M  V30 46 H -5.289827 -0.620433 2.040873 0
M  V30 47 H -6.959703 -2.784673 2.246643 0
M  V30 48 H -4.110773 -5.715281 1.094511 0
M  V30 49 H -1.854764 -3.872748 0.687807 0
M  V30 50 H -2.689332 -1.351599 -1.248358 0
M  V30 51 H -3.773296 -1.076579 -3.351816 0
M  V30 52 H -2.429444 0.401953 -4.960436 0
M  V30 53 H -0.325871 1.389525 -4.355029 0
M  V30 END ATOM
M  V30 BEGIN BOND
M  V30 1 1 1 2
M  V30 2 1 2 3
M  V30 3 1 3 4
M  V30 4 2 4 5
M  V30 5 1 4 6
M  V30 6 1 6 7
M  V30 7 2 7 8
M  V30 8 1 8 9
M  V30 9 2 9 10
M  V30 10 1 10 11
M  V30 11 2 11 12
M  V30 12 1 12 13
M  V30 13 2 13 14
M  V30 14 1 14 15
M  V30 15 1 15 16
M  V30 16 1 16 17
M  V30 17 2 17 18
M  V30 18 1 18 19
M  V30 19 2 19 20
M  V30 20 1 20 21
M  V30 21 1 21 22
M  V30 22 2 22 23
M  V30 23 1 23 24
M  V30 24 2 24 25
M  V30 25 2 15 26
M  V30 26 1 26 27
M  V30 27 2 27 28
M  V30 28 1 28 29
M  V30 29 2 29 30
M  V30 30 1 30 31
M  V30 31 2 31 32
M  V30 32 1 12 7
M  V30 33 1 32 13
M  V30 34 1 25 17
M  V30 35 1 31 26
M  V30 36 1 24 20
M  V30 37 1 1 33
M  V30 38 1 1 34
M  V30 39 1 1 35
M  V30 40 1 2 36
M  V30 41 1 3 37
M  V30 42 1 3 38
M  V30 43 1 6 39
M  V30 44 1 8 40
M  V30 45 1 9 41
M  V30 46 1 10 42
M  V30 47 1 11 43
M  V30 48 1 16 44
M  V30 49 1 18 45
M  V30 50 1 19 46
M  V30 51 1 21 47
M  V30 52 1 23 48
M  V30 53 1 25 49
M  V30 54 1 27 50
M  V30 55 1 28 51
M  V30 56 1 29 52
M  V30 57 1 30 53
M  V30 END BOND
M  V30 END CTAB
M  END
>  <Dataset>  (160) 
ChEMBL_Kinases

>  <Ligand_Instance>  (160) 
nan

>  <PDB_ID>  (160) 
nan

>  <Standardized_SMILES>  (160) 
CNCC(=O)Nc1ccccc1-c1nc(Nc2ccc3[nH]ncc3c2)c2ccccc2n1

>  <Name>  (160) 
nan

>  <Pocket>  (160) 
nan

>  <ATP_Site>  (160) 
nan

>  <Peripheral>  (160) 
nan

>  <Num_H_Atoms_ProtBoundConf>  (160) 
nan

>  <Num_Resolved_Atoms>  (160) 
nan

>  <Num_Not_Resolved_Atoms>  (160) 
nan

$$$$
CHEMBL3666720
     RDKit          3D

  0  0  0  0  0  0  0  0  0  0999 V3000
M  V30 BEGIN CTAB
M  V30 COUNTS 84 90 0 0 0
M  V30 BEGIN ATOM
M  V30 1 C 0.743009 0.895244 5.016688 0
M  V30 2 O 1.546812 -0.019253 4.360704 0
M  V30 3 C 1.575957 -0.357889 3.040245 0
M  V30 4 C 0.646854 0.329578 2.252851 0
M  V30 5 C 0.595879 0.060393 0.902164 0
M  V30 6 N -0.264650 0.678256 0.057259 0
M  V30 7 C -0.310104 0.416980 -1.262955 0
M  V30 8 C -1.275491 1.133118 -2.114341 0
M  V30 9 C -1.276514 0.825937 -3.482356 0
M  V30 10 C -2.202285 1.537278 -4.218249 0
M  V30 11 C -3.074688 2.478204 -3.712017 0
M  V30 12 C -3.008549 2.721119 -2.356851 0
M  V30 13 N -3.825559 3.657196 -1.661406 0
M  V30 14 C -5.102240 3.306800 -1.115657 0
M  V30 15 O -5.301476 2.071392 -1.387231 0
M  V30 16 C -5.872617 4.362816 -0.405299 0
M  V30 17 N -7.127330 3.805312 0.054649 0
M  V30 18 C -6.929403 2.824264 1.088555 0
M  V30 19 C -8.293711 2.220090 1.418678 0
M  V30 20 O -9.233064 3.209308 1.583035 0
M  V30 21 C -8.653135 4.444700 1.832430 0
M  V30 22 C -7.844250 4.924822 0.659419 0
M  V30 23 C -2.113018 2.056012 -1.541962 0
M  V30 24 N 0.525608 -0.490238 -1.775472 0
M  V30 25 C 1.435556 -1.180374 -1.041577 0
M  V30 26 N 2.300837 -2.135510 -1.638713 0
M  V30 27 C 1.980513 -3.503390 -1.847766 0
M  V30 28 C 0.752597 -4.043793 -1.558979 0
M  V30 29 C 0.427958 -5.368820 -1.755831 0
M  V30 30 C 1.412461 -6.199226 -2.279454 0
M  V30 31 N 1.501122 -7.494568 -2.609040 0
M  V30 32 N 2.706564 -7.798988 -3.084665 0
M  V30 33 C 3.480405 -6.698239 -3.090679 0
M  V30 34 C 2.655180 -5.699895 -2.582953 0
M  V30 35 C 2.939855 -4.344695 -2.365555 0
M  V30 36 C 1.426482 -0.861439 0.301608 0
M  V30 37 C 2.307822 -1.491372 1.139545 0
M  V30 38 C 2.452519 -1.308198 2.496160 0
M  V30 39 O 3.229563 -1.812708 3.433733 0
M  V30 40 C 4.243921 -2.680210 3.646267 0
M  V30 41 C 5.560530 -2.408851 2.977581 0
M  V30 42 N 5.595004 -2.395123 1.581743 0
M  V30 43 C 5.465297 -3.615361 0.877471 0
M  V30 44 C 6.065995 -3.372123 -0.502558 0
M  V30 45 C 7.175237 -2.384434 -0.159830 0
M  V30 46 C 6.550335 -1.565625 0.950139 0
M  V30 47 H 1.397351 1.379223 5.807405 0
M  V30 48 H 0.298862 1.697079 4.424416 0
M  V30 49 H -0.038970 0.352099 5.610963 0
M  V30 50 H -0.061299 1.060886 2.542344 0
M  V30 51 H -0.612497 0.096010 -3.925836 0
M  V30 52 H -2.228441 1.318635 -5.296956 0
M  V30 53 H -3.783986 3.018573 -4.295690 0
M  V30 54 H -3.397879 4.624378 -1.588758 0
M  V30 55 H -6.083526 5.231617 -1.023648 0
M  V30 56 H -5.355608 4.714182 0.507693 0
M  V30 57 H -6.217279 2.026990 0.788325 0
M  V30 58 H -6.539720 3.293438 1.995316 0
M  V30 59 H -8.207323 1.658120 2.371208 0
M  V30 60 H -8.661394 1.568476 0.589596 0
M  V30 61 H -8.067317 4.387603 2.773235 0
M  V30 62 H -9.499436 5.138496 2.027430 0
M  V30 63 H -8.445751 5.497982 -0.072194 0
M  V30 64 H -7.096917 5.652057 1.094917 0
M  V30 65 H -2.035262 2.224959 -0.461026 0
M  V30 66 H 3.214513 -1.748288 -1.922779 0
M  V30 67 H 0.001681 -3.382415 -1.152310 0
M  V30 68 H -0.546028 -5.785087 -1.526101 0
M  V30 69 H 0.738218 -8.191270 -2.513574 0
M  V30 70 H 4.498368 -6.615904 -3.411977 0
M  V30 71 H 3.925426 -3.995170 -2.619665 0
M  V30 72 H 2.967778 -2.212618 0.728375 0
M  V30 73 H 3.955731 -3.743930 3.376463 0
M  V30 74 H 4.482637 -2.728795 4.750935 0
M  V30 75 H 6.244299 -3.239619 3.350908 0
M  V30 76 H 6.031690 -1.497290 3.441232 0
M  V30 77 H 6.122926 -4.366655 1.405500 0
M  V30 78 H 4.453397 -4.029132 0.853682 0
M  V30 79 H 5.319165 -2.809211 -1.083511 0
M  V30 80 H 6.455330 -4.281308 -0.966511 0
M  V30 81 H 8.055949 -2.934418 0.217901 0
M  V30 82 H 7.391579 -1.746825 -1.018451 0
M  V30 83 H 7.316591 -1.206804 1.695874 0
M  V30 84 H 6.081624 -0.667722 0.456067 0
M  V30 END ATOM
M  V30 BEGIN BOND
M  V30 1 1 1 2
M  V30 2 1 2 3
M  V30 3 2 3 4
M  V30 4 1 4 5
M  V30 5 2 5 6
M  V30 6 1 6 7
M  V30 7 1 7 8
M  V30 8 2 8 9
M  V30 9 1 9 10
M  V30 10 2 10 11
M  V30 11 1 11 12
M  V30 12 1 12 13
M  V30 13 1 13 14
M  V30 14 2 14 15
M  V30 15 1 14 16
M  V30 16 1 16 17
M  V30 17 1 17 18
M  V30 18 1 18 19
M  V30 19 1 19 20
M  V30 20 1 20 21
M  V30 21 1 21 22
M  V30 22 2 12 23
M  V30 23 2 7 24
M  V30 24 1 24 25
M  V30 25 1 25 26
M  V30 26 1 26 27
M  V30 27 2 27 28
M  V30 28 1 28 29
M  V30 29 2 29 30
M  V30 30 1 30 31
M  V30 31 1 31 32
M  V30 32 2 32 33
M  V30 33 1 33 34
M  V30 34 2 34 35
M  V30 35 2 25 36
M  V30 36 1 36 37
M  V30 37 2 37 38
M  V30 38 1 38 39
M  V30 39 1 39 40
M  V30 40 1 40 41
M  V30 41 1 41 42
M  V30 42 1 42 43
M  V30 43 1 43 44
M  V30 44 1 44 45
M  V30 45 1 45 46
M  V30 46 1 38 3
M  V30 47 1 46 42
M  V30 48 1 36 5
M  V30 49 1 23 8
M  V30 50 1 35 27
M  V30 51 1 22 17
M  V30 52 1 34 30
M  V30 53 1 1 47
M  V30 54 1 1 48
M  V30 55 1 1 49
M  V30 56 1 4 50
M  V30 57 1 9 51
M  V30 58 1 10 52
M  V30 59 1 11 53
M  V30 60 1 13 54
M  V30 61 1 16 55
M  V30 62 1 16 56
M  V30 63 1 18 57
M  V30 64 1 18 58
M  V30 65 1 19 59
M  V30 66 1 19 60
M  V30 67 1 21 61
M  V30 68 1 21 62
M  V30 69 1 22 63
M  V30 70 1 22 64
M  V30 71 1 23 65
M  V30 72 1 26 66
M  V30 73 1 28 67
M  V30 74 1 29 68
M  V30 75 1 31 69
M  V30 76 1 33 70
M  V30 77 1 35 71
M  V30 78 1 37 72
M  V30 79 1 40 73
M  V30 80 1 40 74
M  V30 81 1 41 75
M  V30 82 1 41 76
M  V30 83 1 43 77
M  V30 84 1 43 78
M  V30 85 1 44 79
M  V30 86 1 44 80
M  V30 87 1 45 81
M  V30 88 1 45 82
M  V30 89 1 46 83
M  V30 90 1 46 84
M  V30 END BOND
M  V30 END CTAB
M  END
>  <Dataset>  (161) 
ChEMBL_Kinases

>  <Ligand_Instance>  (161) 
nan

>  <PDB_ID>  (161) 
nan

>  <Standardized_SMILES>  (161) 
COc1cc2nc(-c3cccc(NC(=O)CN4CCOCC4)c3)nc(Nc3ccc4[nH]ncc4c3)c2cc1OCCN1CCCC1

>  <Name>  (161) 
nan

>  <Pocket>  (161) 
nan

>  <ATP_Site>  (161) 
nan

>  <Peripheral>  (161) 
nan

>  <Num_H_Atoms_ProtBoundConf>  (161) 
nan

>  <Num_Resolved_Atoms>  (161) 
nan

>  <Num_Not_Resolved_Atoms>  (161) 
nan

$$$$
CHEMBL3666719
     RDKit          3D

  0  0  0  0  0  0  0  0  0  0999 V3000
M  V30 BEGIN CTAB
M  V30 COUNTS 81 86 0 0 0
M  V30 BEGIN ATOM
M  V30 1 C 6.945797 -0.380169 5.213059 0
M  V30 2 C 8.001491 0.366934 4.440935 0
M  V30 3 C 7.658950 1.838297 4.303584 0
M  V30 4 C 6.383685 2.038406 3.598493 0
M  V30 5 O 5.825703 0.973093 3.242505 0
M  V30 6 N 5.791735 3.280211 3.318609 0
M  V30 7 C 4.576556 3.545699 2.649753 0
M  V30 8 C 4.194461 4.858685 2.494656 0
M  V30 9 C 3.027795 5.218572 1.857114 0
M  V30 10 C 2.170015 4.279864 1.334297 0
M  V30 11 C 2.529307 2.956712 1.476110 0
M  V30 12 C 1.662608 1.908269 0.942832 0
M  V30 13 N 0.517943 2.238202 0.318893 0
M  V30 14 C -0.298939 1.263566 -0.183487 0
M  V30 15 N -1.514656 1.588030 -0.847583 0
M  V30 16 C -2.699134 1.694460 -0.067292 0
M  V30 17 C -2.652980 1.483415 1.296826 0
M  V30 18 C -3.794111 1.579525 2.095801 0
M  V30 19 C -5.014316 1.894655 1.518649 0
M  V30 20 N -6.261383 2.055902 2.013487 0
M  V30 21 N -7.071906 2.358159 1.003838 0
M  V30 22 C -6.352006 2.393755 -0.149230 0
M  V30 23 C -5.037516 2.101636 0.152671 0
M  V30 24 C -3.911770 2.008693 -0.648209 0
M  V30 25 C 0.071123 -0.057697 -0.039146 0
M  V30 26 C -0.687168 -1.108787 -0.512631 0
M  V30 27 C -0.270451 -2.416229 -0.341826 0
M  V30 28 O -0.974834 -3.504453 -0.787029 0
M  V30 29 C -2.195108 -3.494036 -1.468096 0
M  V30 30 C -2.679197 -4.890038 -1.805762 0
M  V30 31 C -4.009953 -4.733394 -2.541317 0
M  V30 32 N -3.747897 -3.949455 -3.735047 0
M  V30 33 C -4.986216 -3.774829 -4.468000 0
M  V30 34 C -5.050805 -4.665223 -5.697402 0
M  V30 35 O -4.047224 -4.399004 -6.609132 0
M  V30 36 C -2.848817 -4.082416 -6.000247 0
M  V30 37 C -2.769957 -4.634587 -4.584183 0
M  V30 38 C 0.917858 -2.706871 0.308327 0
M  V30 39 O 1.351807 -4.032679 0.487870 0
M  V30 40 C 2.581912 -4.211551 1.166384 0
M  V30 41 C 1.713656 -1.676956 0.801784 0
M  V30 42 C 1.246081 -0.393688 0.601404 0
M  V30 43 N 2.003064 0.616426 1.072027 0
M  V30 44 C 3.700898 2.632254 2.117992 0
M  V30 45 H 6.401977 -1.049993 4.519793 0
M  V30 46 H 7.389264 -1.034208 6.015225 0
M  V30 47 H 6.219028 0.338923 5.664647 0
M  V30 48 H 8.958443 0.269185 4.997622 0
M  V30 49 H 8.085483 -0.079521 3.437280 0
M  V30 50 H 8.487603 2.321560 3.738275 0
M  V30 51 H 7.611972 2.252020 5.315931 0
M  V30 52 H 6.374828 4.060984 3.677074 0
M  V30 53 H 4.845349 5.652323 2.895091 0
M  V30 54 H 2.815878 6.276078 1.785857 0
M  V30 55 H 1.265328 4.606912 0.841984 0
M  V30 56 H -1.574025 1.750752 -1.880029 0
M  V30 57 H -1.724937 1.234847 1.796393 0
M  V30 58 H -3.777200 1.418617 3.158868 0
M  V30 59 H -6.565069 1.965760 3.007251 0
M  V30 60 H -6.820270 2.619416 -1.076443 0
M  V30 61 H -3.992704 2.182634 -1.718809 0
M  V30 62 H -1.599526 -0.899111 -1.012297 0
M  V30 63 H -2.957851 -3.079273 -0.758372 0
M  V30 64 H -2.180926 -2.893470 -2.393998 0
M  V30 65 H -2.823323 -5.478451 -0.898305 0
M  V30 66 H -1.950429 -5.438847 -2.431438 0
M  V30 67 H -4.465167 -5.718095 -2.758445 0
M  V30 68 H -4.716643 -4.143120 -1.926264 0
M  V30 69 H -5.107210 -2.711601 -4.753632 0
M  V30 70 H -5.834488 -4.044189 -3.823500 0
M  V30 71 H -6.065194 -4.482766 -6.137008 0
M  V30 72 H -5.028789 -5.717405 -5.312908 0
M  V30 73 H -2.038163 -4.588569 -6.564235 0
M  V30 74 H -2.716730 -2.986769 -5.999912 0
M  V30 75 H -1.767325 -4.420934 -4.200382 0
M  V30 76 H -3.023429 -5.702899 -4.597249 0
M  V30 77 H 2.584262 -3.777946 2.189937 0
M  V30 78 H 3.412538 -3.666471 0.633494 0
M  V30 79 H 2.860423 -5.279966 1.139681 0
M  V30 80 H 2.661377 -1.840322 1.323542 0
M  V30 81 H 3.920028 1.595619 2.194175 0
M  V30 END ATOM
M  V30 BEGIN BOND
M  V30 1 1 1 2
M  V30 2 1 2 3
M  V30 3 1 3 4
M  V30 4 2 4 5
M  V30 5 1 4 6
M  V30 6 1 6 7
M  V30 7 2 7 8
M  V30 8 1 8 9
M  V30 9 2 9 10
M  V30 10 1 10 11
M  V30 11 1 11 12
M  V30 12 2 12 13
M  V30 13 1 13 14
M  V30 14 1 14 15
M  V30 15 1 15 16
M  V30 16 2 16 17
M  V30 17 1 17 18
M  V30 18 2 18 19
M  V30 19 1 19 20
M  V30 20 1 20 21
M  V30 21 2 21 22
M  V30 22 1 22 23
M  V30 23 2 23 24
M  V30 24 2 14 25
M  V30 25 1 25 26
M  V30 26 2 26 27
M  V30 27 1 27 28
M  V30 28 1 28 29
M  V30 29 1 29 30
M  V30 30 1 30 31
M  V30 31 1 31 32
M  V30 32 1 32 33
M  V30 33 1 33 34
M  V30 34 1 34 35
M  V30 35 1 35 36
M  V30 36 1 36 37
M  V30 37 1 27 38
M  V30 38 1 38 39
M  V30 39 1 39 40
M  V30 40 2 38 41
M  V30 41 1 41 42
M  V30 42 2 42 43
M  V30 43 2 11 44
M  V30 44 1 44 7
M  V30 45 1 43 12
M  V30 46 1 24 16
M  V30 47 1 42 25
M  V30 48 1 23 19
M  V30 49 1 37 32
M  V30 50 1 1 45
M  V30 51 1 1 46
M  V30 52 1 1 47
M  V30 53 1 2 48
M  V30 54 1 2 49
M  V30 55 1 3 50
M  V30 56 1 3 51
M  V30 57 1 6 52
M  V30 58 1 8 53
M  V30 59 1 9 54
M  V30 60 1 10 55
M  V30 61 1 15 56
M  V30 62 1 17 57
M  V30 63 1 18 58
M  V30 64 1 20 59
M  V30 65 1 22 60
M  V30 66 1 24 61
M  V30 67 1 26 62
M  V30 68 1 29 63
M  V30 69 1 29 64
M  V30 70 1 30 65
M  V30 71 1 30 66
M  V30 72 1 31 67
M  V30 73 1 31 68
M  V30 74 1 33 69
M  V30 75 1 33 70
M  V30 76 1 34 71
M  V30 77 1 34 72
M  V30 78 1 36 73
M  V30 79 1 36 74
M  V30 80 1 37 75
M  V30 81 1 37 76
M  V30 82 1 40 77
M  V30 83 1 40 78
M  V30 84 1 40 79
M  V30 85 1 41 80
M  V30 86 1 44 81
M  V30 END BOND
M  V30 END CTAB
M  END
>  <Dataset>  (162) 
ChEMBL_Kinases

>  <Ligand_Instance>  (162) 
nan

>  <PDB_ID>  (162) 
nan

>  <Standardized_SMILES>  (162) 
CCCC(=O)Nc1cccc(-c2nc(Nc3ccc4[nH]ncc4c3)c3cc(OCCCN4CCOCC4)c(OC)cc3n2)c1

>  <Name>  (162) 
nan

>  <Pocket>  (162) 
nan

>  <ATP_Site>  (162) 
nan

>  <Peripheral>  (162) 
nan

>  <Num_H_Atoms_ProtBoundConf>  (162) 
nan

>  <Num_Resolved_Atoms>  (162) 
nan

>  <Num_Not_Resolved_Atoms>  (162) 
nan

$$$$
CHEMBL3666718
     RDKit          3D

  0  0  0  0  0  0  0  0  0  0999 V3000
M  V30 BEGIN CTAB
M  V30 COUNTS 69 73 0 0 0
M  V30 BEGIN ATOM
M  V30 1 C 3.901225 5.334110 5.474344 0
M  V30 2 C 2.401871 5.185737 5.495315 0
M  V30 3 C 1.762315 5.582249 4.197861 0
M  V30 4 C 2.263584 4.732134 3.063683 0
M  V30 5 O 3.116058 3.795857 3.235739 0
M  V30 6 N 1.871383 4.858124 1.728239 0
M  V30 7 C 2.593800 3.848167 0.990072 0
M  V30 8 C 3.839857 4.062245 0.421376 0
M  V30 9 C 4.470576 3.025990 -0.274519 0
M  V30 10 C 3.789650 1.826886 -0.349540 0
M  V30 11 C 2.551106 1.586228 0.205723 0
M  V30 12 C 1.904729 0.281172 0.072854 0
M  V30 13 N 0.688630 0.063305 0.605009 0
M  V30 14 C 0.070336 -1.147523 0.496534 0
M  V30 15 N -1.216614 -1.359117 1.062998 0
M  V30 16 C -2.371764 -1.153065 0.263915 0
M  V30 17 C -3.686336 -1.272345 0.732238 0
M  V30 18 C -4.747946 -1.054916 -0.130762 0
M  V30 19 C -4.581449 -0.722943 -1.443272 0
M  V30 20 N -5.377200 -0.459154 -2.491145 0
M  V30 21 N -4.656457 -0.189967 -3.555236 0
M  V30 22 C -3.331989 -0.256450 -3.287150 0
M  V30 23 C -3.296938 -0.594199 -1.948569 0
M  V30 24 C -2.250594 -0.813031 -1.080048 0
M  V30 25 C 0.771538 -2.120108 -0.188877 0
M  V30 26 C 0.154119 -3.344999 -0.302762 0
M  V30 27 C 0.718381 -4.418463 -0.954982 0
M  V30 28 O 0.361514 -5.692817 -1.218475 0
M  V30 29 C -0.762136 -6.433660 -0.929049 0
M  V30 30 C -1.995151 -5.864159 -1.556949 0
M  V30 31 N -3.183597 -6.661804 -1.242642 0
M  V30 32 C -4.296579 -5.988267 -1.926257 0
M  V30 33 C -3.422221 -6.528274 0.181326 0
M  V30 34 C 1.988881 -4.205135 -1.515653 0
M  V30 35 C 2.641315 -2.967258 -1.414535 0
M  V30 36 C 2.018365 -1.934550 -0.747578 0
M  V30 37 N 2.553960 -0.693520 -0.587267 0
M  V30 38 C 1.957624 2.628974 0.884687 0
M  V30 39 H 4.122767 6.290255 4.951313 0
M  V30 40 H 4.444898 4.510372 5.010525 0
M  V30 41 H 4.261509 5.385653 6.527694 0
M  V30 42 H 2.128018 4.153929 5.810827 0
M  V30 43 H 2.025192 5.890396 6.273772 0
M  V30 44 H 0.675815 5.531948 4.292961 0
M  V30 45 H 2.041225 6.651291 4.017425 0
M  V30 46 H 1.162247 5.615604 1.490148 0
M  V30 47 H 4.258486 5.029935 0.549674 0
M  V30 48 H 5.435942 3.194680 -0.714460 0
M  V30 49 H 4.304402 1.052195 -0.892127 0
M  V30 50 H -1.424787 -1.667017 2.058536 0
M  V30 51 H -3.817401 -1.536895 1.777895 0
M  V30 52 H -5.746935 -1.153202 0.255640 0
M  V30 53 H -6.424815 -0.466354 -2.467306 0
M  V30 54 H -2.459243 -0.104249 -3.887661 0
M  V30 55 H -1.242543 -0.720879 -1.443177 0
M  V30 56 H -0.796541 -3.580566 0.099480 0
M  V30 57 H -0.624176 -7.462409 -1.381288 0
M  V30 58 H -0.903659 -6.648920 0.154497 0
M  V30 59 H -1.837512 -5.839272 -2.668365 0
M  V30 60 H -2.237995 -4.844014 -1.236827 0
M  V30 61 H -4.575179 -6.508312 -2.871857 0
M  V30 62 H -4.037233 -4.946020 -2.186708 0
M  V30 63 H -5.182103 -6.031058 -1.267126 0
M  V30 64 H -4.497760 -6.648464 0.421134 0
M  V30 65 H -3.105115 -5.499248 0.468149 0
M  V30 66 H -2.776516 -7.228183 0.755495 0
M  V30 67 H 2.637285 -4.897931 -2.077723 0
M  V30 68 H 3.613962 -2.727854 -1.817772 0
M  V30 69 H 0.972761 2.463352 1.334913 0
M  V30 END ATOM
M  V30 BEGIN BOND
M  V30 1 1 1 2
M  V30 2 1 2 3
M  V30 3 1 3 4
M  V30 4 2 4 5
M  V30 5 1 4 6
M  V30 6 1 6 7
M  V30 7 2 7 8
M  V30 8 1 8 9
M  V30 9 2 9 10
M  V30 10 1 10 11
M  V30 11 1 11 12
M  V30 12 2 12 13
M  V30 13 1 13 14
M  V30 14 1 14 15
M  V30 15 1 15 16
M  V30 16 2 16 17
M  V30 17 1 17 18
M  V30 18 2 18 19
M  V30 19 1 19 20
M  V30 20 1 20 21
M  V30 21 2 21 22
M  V30 22 1 22 23
M  V30 23 2 23 24
M  V30 24 2 14 25
M  V30 25 1 25 26
M  V30 26 2 26 27
M  V30 27 1 27 28
M  V30 28 1 28 29
M  V30 29 1 29 30
M  V30 30 1 30 31
M  V30 31 1 31 32
M  V30 32 1 31 33
M  V30 33 1 27 34
M  V30 34 2 34 35
M  V30 35 1 35 36
M  V30 36 2 36 37
M  V30 37 2 11 38
M  V30 38 1 38 7
M  V30 39 1 37 12
M  V30 40 1 24 16
M  V30 41 1 36 25
M  V30 42 1 23 19
M  V30 43 1 1 39
M  V30 44 1 1 40
M  V30 45 1 1 41
M  V30 46 1 2 42
M  V30 47 1 2 43
M  V30 48 1 3 44
M  V30 49 1 3 45
M  V30 50 1 6 46
M  V30 51 1 8 47
M  V30 52 1 9 48
M  V30 53 1 10 49
M  V30 54 1 15 50
M  V30 55 1 17 51
M  V30 56 1 18 52
M  V30 57 1 20 53
M  V30 58 1 22 54
M  V30 59 1 24 55
M  V30 60 1 26 56
M  V30 61 1 29 57
M  V30 62 1 29 58
M  V30 63 1 30 59
M  V30 64 1 30 60
M  V30 65 1 32 61
M  V30 66 1 32 62
M  V30 67 1 32 63
M  V30 68 1 33 64
M  V30 69 1 33 65
M  V30 70 1 33 66
M  V30 71 1 34 67
M  V30 72 1 35 68
M  V30 73 1 38 69
M  V30 END BOND
M  V30 END CTAB
M  END
>  <Dataset>  (163) 
ChEMBL_Kinases

>  <Ligand_Instance>  (163) 
nan

>  <PDB_ID>  (163) 
nan

>  <Standardized_SMILES>  (163) 
CCCC(=O)Nc1cccc(-c2nc(Nc3ccc4[nH]ncc4c3)c3cc(OCCN(C)C)ccc3n2)c1

>  <Name>  (163) 
nan

>  <Pocket>  (163) 
nan

>  <ATP_Site>  (163) 
nan

>  <Peripheral>  (163) 
nan

>  <Num_H_Atoms_ProtBoundConf>  (163) 
nan

>  <Num_Resolved_Atoms>  (163) 
nan

>  <Num_Not_Resolved_Atoms>  (163) 
nan

$$$$
CHEMBL3664628
     RDKit          3D

  0  0  0  0  0  0  0  0  0  0999 V3000
M  V30 BEGIN CTAB
M  V30 COUNTS 52 55 0 0 0
M  V30 BEGIN ATOM
M  V30 1 C 1.199417 -1.060632 4.103859 0
M  V30 2 C 1.769031 -1.388559 2.756997 0
M  V30 3 C 2.384086 -0.228152 2.053984 0
M  V30 4 C 3.526354 0.400759 2.805283 0
M  V30 5 C 4.676957 -0.495926 3.086271 0
M  V30 6 C 2.854905 -0.693785 0.690973 0
M  V30 7 O 1.709258 -1.157454 0.025722 0
M  V30 8 C 1.368974 0.888696 1.795246 0
M  V30 9 O 0.299256 0.457382 1.001934 0
M  V30 10 C -0.698540 1.366864 0.686590 0
M  V30 11 C -0.672990 2.658800 1.120381 0
M  V30 12 C -1.591128 3.656469 0.882256 0
M  V30 13 C -2.675007 3.267925 0.094157 0
M  V30 14 C -2.778616 1.963032 -0.391527 0
M  V30 15 C -3.881630 1.624705 -1.175059 0
M  V30 16 C -3.887437 0.311763 -1.603579 0
M  V30 17 C -2.930677 -0.644512 -1.328454 0
M  V30 18 C -3.089930 -1.993630 -1.862452 0
M  V30 19 N -4.107127 -2.435629 -2.627083 0
M  V30 20 N -3.918209 -3.698312 -2.920359 0
M  V30 21 C -2.775330 -4.141336 -2.365402 0
M  V30 22 C -2.129431 -5.364007 -2.366485 0
M  V30 23 C -0.945651 -5.409567 -1.657881 0
M  V30 24 C -0.399287 -4.342055 -0.978486 0
M  V30 25 C -1.129454 -3.165347 -1.043771 0
M  V30 26 N -2.288000 -3.045538 -1.712921 0
M  V30 27 N -1.899158 -0.237173 -0.566274 0
M  V30 28 C -1.796109 1.019559 -0.096526 0
M  V30 29 H 1.239870 -1.947513 4.799656 0
M  V30 30 H 0.120008 -0.820439 4.009672 0
M  V30 31 H 1.670349 -0.193809 4.591786 0
M  V30 32 H 2.495306 -2.221550 2.749963 0
M  V30 33 H 0.935161 -1.748502 2.091323 0
M  V30 34 H 3.186049 0.876389 3.743940 0
M  V30 35 H 3.876259 1.249520 2.147727 0
M  V30 36 H 4.677948 -0.785226 4.173838 0
M  V30 37 H 5.628346 0.102522 2.983613 0
M  V30 38 H 4.807175 -1.357768 2.435007 0
M  V30 39 H 3.605567 -1.475945 0.789623 0
M  V30 40 H 3.193842 0.200403 0.128263 0
M  V30 41 H 2.007338 -1.544784 -0.819901 0
M  V30 42 H 1.060251 1.344914 2.747862 0
M  V30 43 H 1.875593 1.693623 1.223402 0
M  V30 44 H 0.180019 2.957918 1.738457 0
M  V30 45 H -1.472739 4.648866 1.275820 0
M  V30 46 H -3.439080 3.998790 -0.136180 0
M  V30 47 H -4.649622 2.317601 -1.420084 0
M  V30 48 H -4.729470 0.005692 -2.217191 0
M  V30 49 H -2.533057 -6.221389 -2.890643 0
M  V30 50 H -0.371915 -6.338422 -1.607955 0
M  V30 51 H 0.534411 -4.443058 -0.440640 0
M  V30 52 H -0.727796 -2.308718 -0.521062 0
M  V30 END ATOM
M  V30 BEGIN BOND
M  V30 1 1 1 2
M  V30 2 1 2 3
M  V30 3 1 3 4
M  V30 4 1 4 5
M  V30 5 1 3 6
M  V30 6 1 6 7
M  V30 7 1 3 8
M  V30 8 1 8 9
M  V30 9 1 9 10
M  V30 10 2 10 11
M  V30 11 1 11 12
M  V30 12 2 12 13
M  V30 13 1 13 14
M  V30 14 2 14 15
M  V30 15 1 15 16
M  V30 16 2 16 17
M  V30 17 1 17 18
M  V30 18 2 18 19
M  V30 19 1 19 20
M  V30 20 2 20 21
M  V30 21 1 21 22
M  V30 22 2 22 23
M  V30 23 1 23 24
M  V30 24 2 24 25
M  V30 25 1 25 26
M  V30 26 1 17 27
M  V30 27 2 27 28
M  V30 28 1 28 10
M  V30 29 1 28 14
M  V30 30 1 26 18
M  V30 31 1 26 21
M  V30 32 1 1 29
M  V30 33 1 1 30
M  V30 34 1 1 31
M  V30 35 1 2 32
M  V30 36 1 2 33
M  V30 37 1 4 34
M  V30 38 1 4 35
M  V30 39 1 5 36
M  V30 40 1 5 37
M  V30 41 1 5 38
M  V30 42 1 6 39
M  V30 43 1 6 40
M  V30 44 1 7 41
M  V30 45 1 8 42
M  V30 46 1 8 43
M  V30 47 1 11 44
M  V30 48 1 12 45
M  V30 49 1 13 46
M  V30 50 1 15 47
M  V30 51 1 16 48
M  V30 52 1 22 49
M  V30 53 1 23 50
M  V30 54 1 24 51
M  V30 55 1 25 52
M  V30 END BOND
M  V30 END CTAB
M  END
>  <Dataset>  (164) 
ChEMBL_Kinases

>  <Ligand_Instance>  (164) 
nan

>  <PDB_ID>  (164) 
nan

>  <Standardized_SMILES>  (164) 
CCC(CC)(CO)COc1cccc2ccc(-c3nnc4ccccn34)nc12

>  <Name>  (164) 
nan

>  <Pocket>  (164) 
nan

>  <ATP_Site>  (164) 
nan

>  <Peripheral>  (164) 
nan

>  <Num_H_Atoms_ProtBoundConf>  (164) 
nan

>  <Num_Resolved_Atoms>  (164) 
nan

>  <Num_Not_Resolved_Atoms>  (164) 
nan

$$$$
CHEMBL3664629
     RDKit          3D

  0  0  0  0  0  0  0  0  0  0999 V3000
M  V30 BEGIN CTAB
M  V30 COUNTS 50 53 0 0 0
M  V30 BEGIN ATOM
M  V30 1 C 2.776171 -2.332551 3.114530 0
M  V30 2 C 1.594613 -1.378436 2.815385 0
M  V30 3 C 0.353478 -2.270339 2.870868 0
M  V30 4 C 1.514474 -0.371929 3.897931 0
M  V30 5 C 1.313068 -0.956556 5.275711 0
M  V30 6 N 0.110668 -1.720063 5.431642 0
M  V30 7 C 1.855932 -0.882553 1.435243 0
M  V30 8 O 1.036375 -0.018909 0.827846 0
M  V30 9 C 0.529082 1.195740 0.865385 0
M  V30 10 C 0.678784 2.279244 1.703690 0
M  V30 11 C 0.075385 3.513893 1.621291 0
M  V30 12 C -0.781550 3.647011 0.549660 0
M  V30 13 C -1.012558 2.639461 -0.353982 0
M  V30 14 C -1.897356 2.937713 -1.366379 0
M  V30 15 C -2.160139 1.957191 -2.297083 0
M  V30 16 C -1.513377 0.752006 -2.138766 0
M  V30 17 C -1.764830 -0.322283 -3.109311 0
M  V30 18 N -2.586172 -0.252900 -4.171977 0
M  V30 19 N -2.594655 -1.382891 -4.848611 0
M  V30 20 C -1.748447 -2.233709 -4.212632 0
M  V30 21 C -1.427086 -3.527622 -4.542552 0
M  V30 22 C -0.533358 -4.194531 -3.734421 0
M  V30 23 C -0.029969 -3.516406 -2.658843 0
M  V30 24 C -0.391297 -2.201723 -2.370358 0
M  V30 25 N -1.253986 -1.551388 -3.146629 0
M  V30 26 N -0.659038 0.507444 -1.135554 0
M  V30 27 C -0.360649 1.407993 -0.204155 0
M  V30 28 H 3.743435 -1.862057 2.930153 0
M  V30 29 H 2.648429 -2.843759 4.072838 0
M  V30 30 H 2.642494 -3.140681 2.337171 0
M  V30 31 H 0.245299 -2.732104 1.854761 0
M  V30 32 H -0.551137 -1.737709 3.169258 0
M  V30 33 H 0.527209 -3.102502 3.566051 0
M  V30 34 H 0.579194 0.254299 3.734042 0
M  V30 35 H 2.356951 0.338364 3.938640 0
M  V30 36 H 1.263178 -0.130706 6.014918 0
M  V30 37 H 2.151627 -1.600341 5.610460 0
M  V30 38 H 0.187700 -2.498566 6.098266 0
M  V30 39 H -0.752423 -1.152760 5.552049 0
M  V30 40 H 2.089978 -1.815215 0.823038 0
M  V30 41 H 2.893159 -0.400293 1.485739 0
M  V30 42 H 1.371859 2.114803 2.512747 0
M  V30 43 H 0.293384 4.264695 2.356301 0
M  V30 44 H -1.271497 4.608867 0.458862 0
M  V30 45 H -2.375718 3.904254 -1.439109 0
M  V30 46 H -2.852022 2.170259 -3.100640 0
M  V30 47 H -1.855129 -4.007446 -5.400062 0
M  V30 48 H -0.263615 -5.219053 -3.974869 0
M  V30 49 H 0.673286 -4.051162 -2.028556 0
M  V30 50 H 0.032320 -1.725532 -1.520720 0
M  V30 END ATOM
M  V30 BEGIN BOND
M  V30 1 1 1 2
M  V30 2 1 2 3
M  V30 3 1 2 4
M  V30 4 1 4 5
M  V30 5 1 5 6
M  V30 6 1 2 7
M  V30 7 1 7 8
M  V30 8 1 8 9
M  V30 9 2 9 10
M  V30 10 1 10 11
M  V30 11 2 11 12
M  V30 12 1 12 13
M  V30 13 2 13 14
M  V30 14 1 14 15
M  V30 15 2 15 16
M  V30 16 1 16 17
M  V30 17 2 17 18
M  V30 18 1 18 19
M  V30 19 2 19 20
M  V30 20 1 20 21
M  V30 21 2 21 22
M  V30 22 1 22 23
M  V30 23 2 23 24
M  V30 24 1 24 25
M  V30 25 1 16 26
M  V30 26 2 26 27
M  V30 27 1 27 9
M  V30 28 1 27 13
M  V30 29 1 25 17
M  V30 30 1 25 20
M  V30 31 1 1 28
M  V30 32 1 1 29
M  V30 33 1 1 30
M  V30 34 1 3 31
M  V30 35 1 3 32
M  V30 36 1 3 33
M  V30 37 1 4 34
M  V30 38 1 4 35
M  V30 39 1 5 36
M  V30 40 1 5 37
M  V30 41 1 6 38
M  V30 42 1 6 39
M  V30 43 1 7 40
M  V30 44 1 7 41
M  V30 45 1 10 42
M  V30 46 1 11 43
M  V30 47 1 12 44
M  V30 48 1 14 45
M  V30 49 1 15 46
M  V30 50 1 21 47
M  V30 51 1 22 48
M  V30 52 1 23 49
M  V30 53 1 24 50
M  V30 END BOND
M  V30 END CTAB
M  END
>  <Dataset>  (165) 
ChEMBL_Kinases

>  <Ligand_Instance>  (165) 
nan

>  <PDB_ID>  (165) 
nan

>  <Standardized_SMILES>  (165) 
CC(C)(CCN)COc1cccc2ccc(-c3nnc4ccccn34)nc12

>  <Name>  (165) 
nan

>  <Pocket>  (165) 
nan

>  <ATP_Site>  (165) 
nan

>  <Peripheral>  (165) 
nan

>  <Num_H_Atoms_ProtBoundConf>  (165) 
nan

>  <Num_Resolved_Atoms>  (165) 
nan

>  <Num_Not_Resolved_Atoms>  (165) 
nan

$$$$
CHEMBL3664630
     RDKit          3D

  0  0  0  0  0  0  0  0  0  0999 V3000
M  V30 BEGIN CTAB
M  V30 COUNTS 48 52 0 0 0
M  V30 BEGIN ATOM
M  V30 1 F 0.969755 -4.008974 -0.420714 0
M  V30 2 C 0.249731 -3.552606 0.625520 0
M  V30 3 C 0.922361 -2.461045 1.419303 0
M  V30 4 O 1.214515 -1.323867 0.714093 0
M  V30 5 C 1.987093 -0.956105 -0.314052 0
M  V30 6 C 2.877008 -1.570582 -1.140289 0
M  V30 7 C 3.584616 -1.008659 -2.156649 0
M  V30 8 C 3.371624 0.336430 -2.367399 0
M  V30 9 C 2.495683 1.059069 -1.593181 0
M  V30 10 C 2.385731 2.390735 -1.919398 0
M  V30 11 C 1.518630 3.154342 -1.170139 0
M  V30 12 C 0.842161 2.531312 -0.169858 0
M  V30 13 C -0.101232 3.312720 0.660472 0
M  V30 14 N -0.361970 4.620898 0.518207 0
M  V30 15 N -1.262893 5.002532 1.434135 0
M  V30 16 C -1.587411 3.921462 2.178536 0
M  V30 17 C -2.459055 3.775518 3.239852 0
M  V30 18 C -2.610276 2.536343 3.836888 0
M  V30 19 C -1.869322 1.480788 3.335887 0
M  V30 20 C -1.016098 1.701674 2.270434 0
M  V30 21 N -0.859467 2.899805 1.681086 0
M  V30 22 N 0.985187 1.229055 0.107879 0
M  V30 23 C 1.798860 0.417863 -0.562912 0
M  V30 24 C -1.099678 -3.040465 0.090197 0
M  V30 25 C -2.079888 -3.091318 1.217280 0
M  V30 26 C -2.506631 -4.551387 1.372960 0
M  V30 27 N -1.328616 -5.359155 1.124307 0
M  V30 28 C -0.125572 -4.703728 1.552245 0
M  V30 29 H 0.300586 -2.245440 2.340243 0
M  V30 30 H 1.844212 -2.944750 1.875940 0
M  V30 31 H 3.037586 -2.599628 -0.946099 0
M  V30 32 H 4.261318 -1.595819 -2.744985 0
M  V30 33 H 3.932085 0.799116 -3.178539 0
M  V30 34 H 2.948043 2.835603 -2.725954 0
M  V30 35 H 1.368384 4.208260 -1.354620 0
M  V30 36 H -3.049161 4.590577 3.647396 0
M  V30 37 H -3.273137 2.345535 4.670994 0
M  V30 38 H -1.987200 0.500610 3.806116 0
M  V30 39 H -0.465697 0.838576 1.925153 0
M  V30 40 H -1.001332 -2.044960 -0.383545 0
M  V30 41 H -1.385903 -3.770444 -0.691631 0
M  V30 42 H -2.979842 -2.451790 1.029882 0
M  V30 43 H -1.667197 -2.755422 2.188044 0
M  V30 44 H -3.245075 -4.770161 0.570395 0
M  V30 45 H -2.971799 -4.717783 2.352350 0
M  V30 46 H -1.399556 -6.322252 1.467880 0
M  V30 47 H -0.152751 -4.346862 2.588934 0
M  V30 48 H 0.695615 -5.462831 1.492081 0
M  V30 END ATOM
M  V30 BEGIN BOND
M  V30 1 1 1 2
M  V30 2 1 2 3
M  V30 3 1 3 4
M  V30 4 1 4 5
M  V30 5 2 5 6
M  V30 6 1 6 7
M  V30 7 2 7 8
M  V30 8 1 8 9
M  V30 9 2 9 10
M  V30 10 1 10 11
M  V30 11 2 11 12
M  V30 12 1 12 13
M  V30 13 2 13 14
M  V30 14 1 14 15
M  V30 15 2 15 16
M  V30 16 1 16 17
M  V30 17 2 17 18
M  V30 18 1 18 19
M  V30 19 2 19 20
M  V30 20 1 20 21
M  V30 21 1 12 22
M  V30 22 2 22 23
M  V30 23 1 2 24
M  V30 24 1 24 25
M  V30 25 1 25 26
M  V30 26 1 26 27
M  V30 27 1 27 28
M  V30 28 1 28 2
M  V30 29 1 23 5
M  V30 30 1 23 9
M  V30 31 1 21 13
M  V30 32 1 21 16
M  V30 33 1 3 29
M  V30 34 1 3 30
M  V30 35 1 6 31
M  V30 36 1 7 32
M  V30 37 1 8 33
M  V30 38 1 10 34
M  V30 39 1 11 35
M  V30 40 1 17 36
M  V30 41 1 18 37
M  V30 42 1 19 38
M  V30 43 1 20 39
M  V30 44 1 24 40
M  V30 45 1 24 41
M  V30 46 1 25 42
M  V30 47 1 25 43
M  V30 48 1 26 44
M  V30 49 1 26 45
M  V30 50 1 27 46
M  V30 51 1 28 47
M  V30 52 1 28 48
M  V30 END BOND
M  V30 END CTAB
M  END
>  <Dataset>  (166) 
ChEMBL_Kinases

>  <Ligand_Instance>  (166) 
nan

>  <PDB_ID>  (166) 
nan

>  <Standardized_SMILES>  (166) 
FC1(COc2cccc3ccc(-c4nnc5ccccn45)nc23)CCCNC1

>  <Name>  (166) 
nan

>  <Pocket>  (166) 
nan

>  <ATP_Site>  (166) 
nan

>  <Peripheral>  (166) 
nan

>  <Num_H_Atoms_ProtBoundConf>  (166) 
nan

>  <Num_Resolved_Atoms>  (166) 
nan

>  <Num_Not_Resolved_Atoms>  (166) 
nan

$$$$
CHEMBL3664631
     RDKit          3D

  0  0  0  0  0  0  0  0  0  0999 V3000
M  V30 BEGIN CTAB
M  V30 COUNTS 52 55 0 0 0
M  V30 BEGIN ATOM
M  V30 1 C 1.950483 -1.331390 -1.713005 0
M  V30 2 C 2.485726 -0.266009 -0.735600 0
M  V30 3 C 3.746213 0.256724 -1.387715 0
M  V30 4 C 2.715418 -0.949622 0.560864 0
M  V30 5 N 3.199193 -0.176342 1.653926 0
M  V30 6 C 4.355043 0.580637 1.947562 0
M  V30 7 O 5.264453 0.666296 1.110046 0
M  V30 8 C 4.645840 1.329811 3.194030 0
M  V30 9 F 4.237193 2.646149 3.107652 0
M  V30 10 C 1.428601 0.807972 -0.678744 0
M  V30 11 O 0.180587 0.319592 -0.228063 0
M  V30 12 C -0.933870 1.152851 -0.102553 0
M  V30 13 C -0.770890 2.485007 -0.434393 0
M  V30 14 C -1.835008 3.344550 -0.327578 0
M  V30 15 C -3.067219 2.925389 0.100761 0
M  V30 16 C -3.178059 1.589414 0.419056 0
M  V30 17 C -4.405524 1.102165 0.859253 0
M  V30 18 C -4.557166 -0.228749 1.186363 0
M  V30 19 C -3.485057 -1.120623 1.084661 0
M  V30 20 C -3.690242 -2.520314 1.437761 0
M  V30 21 N -4.827441 -3.095114 1.869184 0
M  V30 22 N -4.611194 -4.389877 2.083977 0
M  V30 23 C -3.304462 -4.621165 1.776149 0
M  V30 24 C -2.678325 -5.843537 1.862837 0
M  V30 25 C -1.350987 -5.883435 1.509257 0
M  V30 26 C -0.734871 -4.700716 1.091756 0
M  V30 27 C -1.452449 -3.524099 1.039617 0
M  V30 28 N -2.741677 -3.472095 1.380389 0
M  V30 29 N -2.311564 -0.623550 0.657363 0
M  V30 30 C -2.146908 0.673841 0.333682 0
M  V30 31 H 2.787014 -1.713813 -2.313614 0
M  V30 32 H 1.182230 -0.886378 -2.375951 0
M  V30 33 H 1.547312 -2.211002 -1.161225 0
M  V30 34 H 4.602577 -0.419719 -1.253351 0
M  V30 35 H 3.615509 0.280126 -2.521516 0
M  V30 36 H 3.934472 1.322121 -1.149614 0
M  V30 37 H 3.420512 -1.828490 0.351370 0
M  V30 38 H 1.794241 -1.471992 0.889833 0
M  V30 39 H 2.570138 -0.103530 2.520414 0
M  V30 40 H 4.021861 0.868984 3.991364 0
M  V30 41 H 5.714118 1.243495 3.474311 0
M  V30 42 H 1.698454 1.646719 -0.008535 0
M  V30 43 H 1.256823 1.162996 -1.717780 0
M  V30 44 H 0.170898 2.887419 -0.779944 0
M  V30 45 H -1.686926 4.391658 -0.594662 0
M  V30 46 H -3.934954 3.566561 0.201783 0
M  V30 47 H -5.268676 1.755479 0.956219 0
M  V30 48 H -5.503261 -0.634107 1.534011 0
M  V30 49 H -3.171890 -6.750377 2.187646 0
M  V30 50 H -0.821772 -6.825582 1.563524 0
M  V30 51 H 0.305403 -4.717698 0.812200 0
M  V30 52 H -0.995582 -2.593175 0.718708 0
M  V30 END ATOM
M  V30 BEGIN BOND
M  V30 1 1 1 2
M  V30 2 1 2 3
M  V30 3 1 2 4
M  V30 4 1 4 5
M  V30 5 1 5 6
M  V30 6 2 6 7
M  V30 7 1 6 8
M  V30 8 1 8 9
M  V30 9 1 2 10
M  V30 10 1 10 11
M  V30 11 1 11 12
M  V30 12 2 12 13
M  V30 13 1 13 14
M  V30 14 2 14 15
M  V30 15 1 15 16
M  V30 16 2 16 17
M  V30 17 1 17 18
M  V30 18 2 18 19
M  V30 19 1 19 20
M  V30 20 2 20 21
M  V30 21 1 21 22
M  V30 22 2 22 23
M  V30 23 1 23 24
M  V30 24 2 24 25
M  V30 25 1 25 26
M  V30 26 2 26 27
M  V30 27 1 27 28
M  V30 28 1 19 29
M  V30 29 2 29 30
M  V30 30 1 30 12
M  V30 31 1 30 16
M  V30 32 1 28 20
M  V30 33 1 28 23
M  V30 34 1 1 31
M  V30 35 1 1 32
M  V30 36 1 1 33
M  V30 37 1 3 34
M  V30 38 1 3 35
M  V30 39 1 3 36
M  V30 40 1 4 37
M  V30 41 1 4 38
M  V30 42 1 5 39
M  V30 43 1 8 40
M  V30 44 1 8 41
M  V30 45 1 10 42
M  V30 46 1 10 43
M  V30 47 1 13 44
M  V30 48 1 14 45
M  V30 49 1 15 46
M  V30 50 1 17 47
M  V30 51 1 18 48
M  V30 52 1 24 49
M  V30 53 1 25 50
M  V30 54 1 26 51
M  V30 55 1 27 52
M  V30 END BOND
M  V30 END CTAB
M  END
>  <Dataset>  (167) 
ChEMBL_Kinases

>  <Ligand_Instance>  (167) 
nan

>  <PDB_ID>  (167) 
nan

>  <Standardized_SMILES>  (167) 
CC(C)(CNC(=O)CF)COc1cccc2ccc(-c3nnc4ccccn34)nc12

>  <Name>  (167) 
nan

>  <Pocket>  (167) 
nan

>  <ATP_Site>  (167) 
nan

>  <Peripheral>  (167) 
nan

>  <Num_H_Atoms_ProtBoundConf>  (167) 
nan

>  <Num_Resolved_Atoms>  (167) 
nan

>  <Num_Not_Resolved_Atoms>  (167) 
nan

$$$$
CHEMBL3664632
     RDKit          3D

  0  0  0  0  0  0  0  0  0  0999 V3000
M  V30 BEGIN CTAB
M  V30 COUNTS 53 56 0 0 0
M  V30 BEGIN ATOM
M  V30 1 C 1.283457 -0.242088 -1.203076 0
M  V30 2 C 1.734086 0.558303 -0.002997 0
M  V30 3 C 1.826118 -0.327609 1.187070 0
M  V30 4 C 3.007198 1.288573 -0.243043 0
M  V30 5 N 4.166757 0.568683 -0.577675 0
M  V30 6 C 4.809518 -0.242503 0.393382 0
M  V30 7 C 6.095807 -0.841230 -0.201848 0
M  V30 8 F 5.795159 -1.613799 -1.295368 0
M  V30 9 F 6.853882 0.209831 -0.620093 0
M  V30 10 C 0.606519 1.574828 0.337570 0
M  V30 11 O -0.573976 0.898886 0.635348 0
M  V30 12 C -1.760514 1.462556 1.005011 0
M  V30 13 C -1.940886 2.813047 1.137700 0
M  V30 14 C -3.167130 3.334061 1.519830 0
M  V30 15 C -4.225450 2.483819 1.771422 0
M  V30 16 C -4.051448 1.109516 1.638450 0
M  V30 17 C -5.121379 0.240305 1.891105 0
M  V30 18 C -4.867640 -1.107698 1.735310 0
M  V30 19 C -3.653967 -1.614065 1.356296 0
M  V30 20 C -3.464788 -3.051555 1.199210 0
M  V30 21 N -4.430645 -3.992164 1.430453 0
M  V30 22 N -3.934778 -5.191315 1.185714 0
M  V30 23 C -2.651702 -5.037821 0.796201 0
M  V30 24 C -1.657752 -5.918179 0.416157 0
M  V30 25 C -0.371284 -5.520102 0.040644 0
M  V30 26 C -0.130885 -4.157389 0.067963 0
M  V30 27 C -1.138537 -3.297778 0.450786 0
M  V30 28 N -2.367538 -3.709840 0.807056 0
M  V30 29 N -2.642162 -0.750982 1.120494 0
M  V30 30 C -2.816813 0.582285 1.253271 0
M  V30 31 H 1.934265 -0.069839 -2.106492 0
M  V30 32 H 1.312810 -1.348403 -1.011782 0
M  V30 33 H 0.248832 0.011695 -1.474508 0
M  V30 34 H 2.585779 0.053017 1.879641 0
M  V30 35 H 2.003253 -1.401047 0.972783 0
M  V30 36 H 0.810446 -0.324353 1.706798 0
M  V30 37 H 3.280007 1.921169 0.670970 0
M  V30 38 H 2.828856 2.110075 -1.020951 0
M  V30 39 H 4.878263 1.174537 -1.038369 0
M  V30 40 H 4.269133 -1.109899 0.773794 0
M  V30 41 H 5.146240 0.344752 1.291146 0
M  V30 42 H 6.663820 -1.415680 0.551996 0
M  V30 43 H 0.963825 2.265897 1.097522 0
M  V30 44 H 0.431823 2.117067 -0.614885 0
M  V30 45 H -1.095009 3.421158 0.933452 0
M  V30 46 H -3.235798 4.406215 1.604131 0
M  V30 47 H -5.173830 2.917991 2.070119 0
M  V30 48 H -6.098687 0.642382 2.195360 0
M  V30 49 H -5.664490 -1.824555 1.919507 0
M  V30 50 H -1.968571 -6.966937 0.434636 0
M  V30 51 H 0.295491 -6.336853 -0.232651 0
M  V30 52 H 0.862335 -3.877152 -0.224463 0
M  V30 53 H -0.901954 -2.233798 0.457508 0
M  V30 END ATOM
M  V30 BEGIN BOND
M  V30 1 1 1 2
M  V30 2 1 2 3
M  V30 3 1 2 4
M  V30 4 1 4 5
M  V30 5 1 5 6
M  V30 6 1 6 7
M  V30 7 1 7 8
M  V30 8 1 7 9
M  V30 9 1 2 10
M  V30 10 1 10 11
M  V30 11 1 11 12
M  V30 12 2 12 13
M  V30 13 1 13 14
M  V30 14 2 14 15
M  V30 15 1 15 16
M  V30 16 2 16 17
M  V30 17 1 17 18
M  V30 18 2 18 19
M  V30 19 1 19 20
M  V30 20 2 20 21
M  V30 21 1 21 22
M  V30 22 2 22 23
M  V30 23 1 23 24
M  V30 24 2 24 25
M  V30 25 1 25 26
M  V30 26 2 26 27
M  V30 27 1 27 28
M  V30 28 1 19 29
M  V30 29 2 29 30
M  V30 30 1 30 12
M  V30 31 1 30 16
M  V30 32 1 28 20
M  V30 33 1 28 23
M  V30 34 1 1 31
M  V30 35 1 1 32
M  V30 36 1 1 33
M  V30 37 1 3 34
M  V30 38 1 3 35
M  V30 39 1 3 36
M  V30 40 1 4 37
M  V30 41 1 4 38
M  V30 42 1 5 39
M  V30 43 1 6 40
M  V30 44 1 6 41
M  V30 45 1 7 42
M  V30 46 1 10 43
M  V30 47 1 10 44
M  V30 48 1 13 45
M  V30 49 1 14 46
M  V30 50 1 15 47
M  V30 51 1 17 48
M  V30 52 1 18 49
M  V30 53 1 24 50
M  V30 54 1 25 51
M  V30 55 1 26 52
M  V30 56 1 27 53
M  V30 END BOND
M  V30 END CTAB
M  END
>  <Dataset>  (168) 
ChEMBL_Kinases

>  <Ligand_Instance>  (168) 
nan

>  <PDB_ID>  (168) 
nan

>  <Standardized_SMILES>  (168) 
CC(C)(CNCC(F)F)COc1cccc2ccc(-c3nnc4ccccn34)nc12

>  <Name>  (168) 
nan

>  <Pocket>  (168) 
nan

>  <ATP_Site>  (168) 
nan

>  <Peripheral>  (168) 
nan

>  <Num_H_Atoms_ProtBoundConf>  (168) 
nan

>  <Num_Resolved_Atoms>  (168) 
nan

>  <Num_Not_Resolved_Atoms>  (168) 
nan

$$$$
CHEMBL3664633
     RDKit          3D

  0  0  0  0  0  0  0  0  0  0999 V3000
M  V30 BEGIN CTAB
M  V30 COUNTS 53 56 0 0 0
M  V30 BEGIN ATOM
M  V30 1 C 0.870380 0.075360 -1.107977 0
M  V30 2 C 1.468136 0.766325 0.091740 0
M  V30 3 C 1.806729 -0.160594 1.228550 0
M  V30 4 C 2.657815 1.584980 -0.296244 0
M  V30 5 N 3.746860 0.934876 -0.919196 0
M  V30 6 C 4.533501 0.016417 -0.168397 0
M  V30 7 C 5.723702 -0.410665 -1.046446 0
M  V30 8 F 5.311587 -1.016684 -2.209822 0
M  V30 9 F 6.420417 0.707086 -1.390439 0
M  V30 10 F 6.559274 -1.246970 -0.339456 0
M  V30 11 C 0.335962 1.735800 0.566646 0
M  V30 12 O -0.739923 0.925399 0.868592 0
M  V30 13 C -1.986068 1.309234 1.344080 0
M  V30 14 C -2.328096 2.644141 1.592551 0
M  V30 15 C -3.604201 2.831984 2.061718 0
M  V30 16 C -4.532891 1.855417 2.296660 0
M  V30 17 C -4.128988 0.570482 2.030551 0
M  V30 18 C -5.056410 -0.444508 2.261814 0
M  V30 19 C -4.649343 -1.757253 1.992376 0
M  V30 20 C -3.380968 -2.040150 1.516138 0
M  V30 21 C -2.987359 -3.423750 1.235472 0
M  V30 22 N -3.775877 -4.508391 1.429051 0
M  V30 23 N -3.065375 -5.585987 1.052947 0
M  V30 24 C -1.863508 -5.126238 0.640392 0
M  V30 25 C -0.771554 -5.814587 0.154338 0
M  V30 26 C 0.410232 -5.223980 -0.240511 0
M  V30 27 C 0.457797 -3.839155 -0.122885 0
M  V30 28 C -0.645783 -3.136835 0.368952 0
M  V30 29 N -1.768396 -3.768330 0.737279 0
M  V30 30 N -2.538589 -1.012728 1.316428 0
M  V30 31 C -2.870175 0.270664 1.556687 0
M  V30 32 H 1.062816 0.649531 -2.024924 0
M  V30 33 H 1.227783 -0.981388 -1.195519 0
M  V30 34 H -0.250409 0.008517 -1.016965 0
M  V30 35 H 1.016648 -0.103069 2.037988 0
M  V30 36 H 1.812624 -1.222701 0.916127 0
M  V30 37 H 2.734121 0.115592 1.776630 0
M  V30 38 H 2.320806 2.463801 -0.920758 0
M  V30 39 H 3.095858 2.112985 0.616065 0
M  V30 40 H 4.332138 1.584251 -1.454397 0
M  V30 41 H 4.946348 0.436837 0.754468 0
M  V30 42 H 3.975855 -0.921183 0.100119 0
M  V30 43 H 0.182409 2.540966 -0.153238 0
M  V30 44 H 0.740604 2.165143 1.516173 0
M  V30 45 H -1.597807 3.417967 1.408768 0
M  V30 46 H -3.917216 3.866758 2.270801 0
M  V30 47 H -5.518655 2.121394 2.670142 0
M  V30 48 H -6.045812 -0.272726 2.628088 0
M  V30 49 H -5.296521 -2.610901 2.139235 0
M  V30 50 H -0.844587 -6.892813 0.076487 0
M  V30 51 H 1.227409 -5.823620 -0.612692 0
M  V30 52 H 1.371641 -3.308253 -0.422033 0
M  V30 53 H -0.598876 -2.072433 0.455450 0
M  V30 END ATOM
M  V30 BEGIN BOND
M  V30 1 1 1 2
M  V30 2 1 2 3
M  V30 3 1 2 4
M  V30 4 1 4 5
M  V30 5 1 5 6
M  V30 6 1 6 7
M  V30 7 1 7 8
M  V30 8 1 7 9
M  V30 9 1 7 10
M  V30 10 1 2 11
M  V30 11 1 11 12
M  V30 12 1 12 13
M  V30 13 2 13 14
M  V30 14 1 14 15
M  V30 15 2 15 16
M  V30 16 1 16 17
M  V30 17 2 17 18
M  V30 18 1 18 19
M  V30 19 2 19 20
M  V30 20 1 20 21
M  V30 21 2 21 22
M  V30 22 1 22 23
M  V30 23 2 23 24
M  V30 24 1 24 25
M  V30 25 2 25 26
M  V30 26 1 26 27
M  V30 27 2 27 28
M  V30 28 1 28 29
M  V30 29 1 20 30
M  V30 30 2 30 31
M  V30 31 1 31 13
M  V30 32 1 31 17
M  V30 33 1 29 21
M  V30 34 1 29 24
M  V30 35 1 1 32
M  V30 36 1 1 33
M  V30 37 1 1 34
M  V30 38 1 3 35
M  V30 39 1 3 36
M  V30 40 1 3 37
M  V30 41 1 4 38
M  V30 42 1 4 39
M  V30 43 1 5 40
M  V30 44 1 6 41
M  V30 45 1 6 42
M  V30 46 1 11 43
M  V30 47 1 11 44
M  V30 48 1 14 45
M  V30 49 1 15 46
M  V30 50 1 16 47
M  V30 51 1 18 48
M  V30 52 1 19 49
M  V30 53 1 25 50
M  V30 54 1 26 51
M  V30 55 1 27 52
M  V30 56 1 28 53
M  V30 END BOND
M  V30 END CTAB
M  END
>  <Dataset>  (169) 
ChEMBL_Kinases

>  <Ligand_Instance>  (169) 
nan

>  <PDB_ID>  (169) 
nan

>  <Standardized_SMILES>  (169) 
CC(C)(CNCC(F)(F)F)COc1cccc2ccc(-c3nnc4ccccn34)nc12

>  <Name>  (169) 
nan

>  <Pocket>  (169) 
nan

>  <ATP_Site>  (169) 
nan

>  <Peripheral>  (169) 
nan

>  <Num_H_Atoms_ProtBoundConf>  (169) 
nan

>  <Num_Resolved_Atoms>  (169) 
nan

>  <Num_Not_Resolved_Atoms>  (169) 
nan

$$$$
CHEMBL36654
     RDKit          3D

  0  0  0  0  0  0  0  0  0  0999 V3000
M  V30 BEGIN CTAB
M  V30 COUNTS 38 42 0 0 0
M  V30 BEGIN ATOM
M  V30 1 C -1.802046 -2.084495 0.657322 0
M  V30 2 N -1.045738 -2.503036 -0.507773 0
M  V30 3 C -0.353007 -3.747934 -0.254573 0
M  V30 4 C 0.985079 -3.579265 0.400504 0
M  V30 5 C 1.164073 -2.274647 1.079504 0
M  V30 6 C 1.832521 -2.134360 2.295686 0
M  V30 7 C 1.965170 -0.897870 2.878791 0
M  V30 8 C 1.429497 0.218373 2.251772 0
M  V30 9 C 0.775512 0.059862 1.056261 0
M  V30 10 C 0.634225 -1.168948 0.459453 0
M  V30 11 C -0.032814 -1.502247 -0.823259 0
M  V30 12 C -0.656118 -0.339065 -1.519672 0
M  V30 13 C -0.445994 0.940070 -0.805444 0
M  V30 14 C -1.010774 2.006991 -1.484186 0
M  V30 15 C -0.917929 3.296585 -0.961384 0
M  V30 16 C -0.269091 3.551475 0.233970 0
M  V30 17 C 0.285607 2.473773 0.892078 0
M  V30 18 C 0.196381 1.205635 0.381453 0
M  V30 19 O 1.745052 1.258592 3.100748 0
M  V30 20 C 2.092322 0.796256 4.388700 0
M  V30 21 O 2.583665 -0.499826 4.080122 0
M  V30 22 H -1.417832 -1.160628 1.112190 0
M  V30 23 H -1.775672 -2.914904 1.419569 0
M  V30 24 H -2.875678 -1.913899 0.411689 0
M  V30 25 H -1.008010 -4.399471 0.391007 0
M  V30 26 H -0.247656 -4.240475 -1.244976 0
M  V30 27 H 1.761136 -3.635509 -0.407065 0
M  V30 28 H 1.210768 -4.431206 1.106427 0
M  V30 29 H 2.249389 -3.010333 2.781700 0
M  V30 30 H 0.704290 -1.994845 -1.501554 0
M  V30 31 H -1.770026 -0.480059 -1.609969 0
M  V30 32 H -0.193526 -0.221829 -2.520581 0
M  V30 33 H -1.549124 1.956752 -2.430742 0
M  V30 34 H -1.360869 4.156306 -1.487232 0
M  V30 35 H -0.229743 4.580212 0.590977 0
M  V30 36 H 0.775242 2.719144 1.808756 0
M  V30 37 H 1.175855 0.667098 4.997327 0
M  V30 38 H 2.870584 1.426594 4.864587 0
M  V30 END ATOM
M  V30 BEGIN BOND
M  V30 1 1 1 2
M  V30 2 1 2 3
M  V30 3 1 3 4
M  V30 4 1 4 5
M  V30 5 2 5 6
M  V30 6 1 6 7
M  V30 7 2 7 8
M  V30 8 1 8 9
M  V30 9 2 9 10
M  V30 10 1 10 11
M  V30 11 1 11 12
M  V30 12 1 12 13
M  V30 13 2 13 14
M  V30 14 1 14 15
M  V30 15 2 15 16
M  V30 16 1 16 17
M  V30 17 2 17 18
M  V30 18 1 8 19
M  V30 19 1 19 20
M  V30 20 1 20 21
M  V30 21 1 11 2
M  V30 22 1 18 13
M  V30 23 1 10 5
M  V30 24 1 21 7
M  V30 25 1 18 9
M  V30 26 1 1 22
M  V30 27 1 1 23
M  V30 28 1 1 24
M  V30 29 1 3 25
M  V30 30 1 3 26
M  V30 31 1 4 27
M  V30 32 1 4 28
M  V30 33 1 6 29
M  V30 34 1 11 30
M  V30 35 1 12 31
M  V30 36 1 12 32
M  V30 37 1 14 33
M  V30 38 1 15 34
M  V30 39 1 16 35
M  V30 40 1 17 36
M  V30 41 1 20 37
M  V30 42 1 20 38
M  V30 END BOND
M  V30 END CTAB
M  END
>  <Dataset>  (170) 
ChEMBL_Kinases

>  <Ligand_Instance>  (170) 
nan

>  <PDB_ID>  (170) 
nan

>  <Standardized_SMILES>  (170) 
CN1CCc2cc3c(c4c2C1Cc1ccccc1-4)OCO3

>  <Name>  (170) 
ROEMERINE

>  <Pocket>  (170) 
nan

>  <ATP_Site>  (170) 
nan

>  <Peripheral>  (170) 
nan

>  <Num_H_Atoms_ProtBoundConf>  (170) 
nan

>  <Num_Resolved_Atoms>  (170) 
nan

>  <Num_Not_Resolved_Atoms>  (170) 
nan

$$$$
CHEMBL3665857
     RDKit          3D

  0  0  0  0  0  0  0  0  0  0999 V3000
M  V30 BEGIN CTAB
M  V30 COUNTS 47 50 0 0 0
M  V30 BEGIN ATOM
M  V30 1 C -2.001156 -2.117271 3.507334 0
M  V30 2 O -2.663611 -2.837150 2.510139 0
M  V30 3 C -2.452427 -2.743377 1.151450 0
M  V30 4 C -1.555559 -1.934208 0.480688 0
M  V30 5 C -1.474364 -1.966050 -0.899715 0
M  V30 6 C -0.479632 -1.068370 -1.512243 0
M  V30 7 C 0.182759 -1.344609 -2.696440 0
M  V30 8 C 1.113328 -0.458381 -3.209025 0
M  V30 9 C 1.415813 0.738452 -2.554613 0
M  V30 10 N 2.330227 1.592180 -3.060805 0
M  V30 11 C 2.567321 2.734626 -2.350014 0
M  V30 12 N 1.935143 3.019459 -1.200376 0
M  V30 13 C 1.015567 2.205574 -0.651071 0
M  V30 14 N 0.288235 2.385249 0.559079 0
M  V30 15 C 0.847150 1.701540 1.697861 0
M  V30 16 C 1.996654 0.943470 1.545464 0
M  V30 17 C 2.595337 0.244247 2.601842 0
M  V30 18 O 3.751191 -0.501066 2.383877 0
M  V30 19 C 1.983275 0.339365 3.834932 0
M  V30 20 C 2.615340 -0.402387 4.946415 0
M  V30 21 C 0.828358 1.088044 4.037500 0
M  V30 22 C 0.273657 1.764859 2.950232 0
M  V30 23 F -0.852295 2.494827 3.151901 0
M  V30 24 C 0.769302 1.050110 -1.360940 0
M  V30 25 C -0.144985 0.122916 -0.908718 0
M  V30 26 C -2.282052 -2.801208 -1.638422 0
M  V30 27 C -3.177073 -3.608576 -0.965668 0
M  V30 28 C -3.285201 -3.602011 0.426282 0
M  V30 29 O -4.220482 -4.456627 0.987345 0
M  V30 30 H -0.959789 -1.929615 3.174418 0
M  V30 31 H -2.436852 -1.106550 3.679211 0
M  V30 32 H -1.967068 -2.652062 4.466428 0
M  V30 33 H -0.982380 -1.329570 1.159543 0
M  V30 34 H -0.048398 -2.264519 -3.201378 0
M  V30 35 H 1.641812 -0.642341 -4.121882 0
M  V30 36 H 3.281136 3.496202 -2.657961 0
M  V30 37 H -0.583041 2.943760 0.709153 0
M  V30 38 H 2.513784 0.842774 0.581852 0
M  V30 39 H 4.558973 -0.005226 1.977848 0
M  V30 40 H 3.038168 -1.383634 4.656374 0
M  V30 41 H 3.403361 0.186688 5.437125 0
M  V30 42 H 1.840751 -0.609072 5.720638 0
M  V30 43 H 0.373586 1.138805 5.028706 0
M  V30 44 H -0.671643 0.334292 0.024083 0
M  V30 45 H -2.175083 -2.783060 -2.701732 0
M  V30 46 H -3.803489 -4.258677 -1.557499 0
M  V30 47 H -4.353562 -4.506088 1.982377 0
M  V30 END ATOM
M  V30 BEGIN BOND
M  V30 1 1 1 2
M  V30 2 1 2 3
M  V30 3 2 3 4
M  V30 4 1 4 5
M  V30 5 1 5 6
M  V30 6 2 6 7
M  V30 7 1 7 8
M  V30 8 2 8 9
M  V30 9 1 9 10
M  V30 10 2 10 11
M  V30 11 1 11 12
M  V30 12 2 12 13
M  V30 13 1 13 14
M  V30 14 1 14 15
M  V30 15 2 15 16
M  V30 16 1 16 17
M  V30 17 1 17 18
M  V30 18 2 17 19
M  V30 19 1 19 20
M  V30 20 1 19 21
M  V30 21 2 21 22
M  V30 22 1 22 23
M  V30 23 1 13 24
M  V30 24 2 24 25
M  V30 25 2 5 26
M  V30 26 1 26 27
M  V30 27 2 27 28
M  V30 28 1 28 29
M  V30 29 1 28 3
M  V30 30 1 25 6
M  V30 31 1 24 9
M  V30 32 1 22 15
M  V30 33 1 1 30
M  V30 34 1 1 31
M  V30 35 1 1 32
M  V30 36 1 4 33
M  V30 37 1 7 34
M  V30 38 1 8 35
M  V30 39 1 11 36
M  V30 40 1 14 37
M  V30 41 1 16 38
M  V30 42 1 18 39
M  V30 43 1 20 40
M  V30 44 1 20 41
M  V30 45 1 20 42
M  V30 46 1 21 43
M  V30 47 1 25 44
M  V30 48 1 26 45
M  V30 49 1 27 46
M  V30 50 1 29 47
M  V30 END BOND
M  V30 END CTAB
M  END
>  <Dataset>  (171) 
ChEMBL_Kinases

>  <Ligand_Instance>  (171) 
nan

>  <PDB_ID>  (171) 
nan

>  <Standardized_SMILES>  (171) 
COc1cc(-c2ccc3ncnc(Nc4cc(O)c(C)cc4F)c3c2)ccc1O

>  <Name>  (171) 
nan

>  <Pocket>  (171) 
nan

>  <ATP_Site>  (171) 
nan

>  <Peripheral>  (171) 
nan

>  <Num_H_Atoms_ProtBoundConf>  (171) 
nan

>  <Num_Resolved_Atoms>  (171) 
nan

>  <Num_Not_Resolved_Atoms>  (171) 
nan

$$$$
CHEMBL3666716
     RDKit          3D

  0  0  0  0  0  0  0  0  0  0999 V3000
M  V30 BEGIN CTAB
M  V30 COUNTS 58 63 0 0 0
M  V30 BEGIN ATOM
M  V30 1 O 3.491178 -3.282818 2.181268 0
M  V30 2 C 2.889021 -3.425712 3.300035 0
M  V30 3 C 2.586195 -2.662086 4.547551 0
M  V30 4 O 3.113876 -1.354233 4.532429 0
M  V30 5 C 2.717021 -0.441746 3.568439 0
M  V30 6 C 3.316244 0.799457 3.665464 0
M  V30 7 C 2.995854 1.800841 2.750868 0
M  V30 8 C 2.084062 1.568023 1.745647 0
M  V30 9 C 1.483405 0.331307 1.644849 0
M  V30 10 C 0.517384 0.069968 0.589687 0
M  V30 11 N 0.203591 1.030641 -0.289014 0
M  V30 12 C -0.680011 0.851511 -1.285727 0
M  V30 13 N -1.047285 1.824193 -2.234290 0
M  V30 14 C -2.168843 2.646266 -1.864159 0
M  V30 15 C -2.808166 2.467795 -0.655500 0
M  V30 16 C -3.892052 3.231806 -0.251161 0
M  V30 17 C -4.361350 4.227853 -1.101551 0
M  V30 18 N -5.361108 5.109380 -0.999164 0
M  V30 19 N -5.409754 5.865013 -2.091406 0
M  V30 20 C -4.416438 5.477091 -2.944248 0
M  V30 21 C -3.737199 4.437728 -2.336039 0
M  V30 22 C -2.660214 3.648699 -2.692082 0
M  V30 23 C -1.265790 -0.403618 -1.364471 0
M  V30 24 C -2.187446 -0.698340 -2.350426 0
M  V30 25 C -2.832312 -1.901151 -2.530560 0
M  V30 26 C -2.500158 -2.893031 -1.613490 0
M  V30 27 C -1.575015 -2.646120 -0.598520 0
M  V30 28 C -0.963270 -1.400664 -0.481096 0
M  V30 29 N -0.061047 -1.153593 0.503928 0
M  V30 30 C 1.808953 -0.651014 2.555594 0
M  V30 31 N 2.367376 -4.751080 3.283297 0
M  V30 32 C 2.623874 -5.541095 2.111057 0
M  V30 33 C 1.866146 -5.651007 0.954942 0
M  V30 34 C 2.319900 -6.481023 -0.043629 0
M  V30 35 C 3.486182 -7.160751 0.133983 0
M  V30 36 N 4.238066 -7.070759 1.244759 0
M  V30 37 C 3.807224 -6.257426 2.240339 0
M  V30 38 H 1.477616 -2.646010 4.671944 0
M  V30 39 H 3.030585 -3.202936 5.428907 0
M  V30 40 H 4.047478 1.070154 4.427696 0
M  V30 41 H 3.421816 2.800275 2.758899 0
M  V30 42 H 1.827164 2.349620 1.022676 0
M  V30 43 H -0.617866 2.034877 -3.175130 0
M  V30 44 H -2.474542 1.714839 0.016968 0
M  V30 45 H -4.386928 3.085410 0.697228 0
M  V30 46 H -6.031839 5.245157 -0.228499 0
M  V30 47 H -4.176523 5.881620 -3.918697 0
M  V30 48 H -2.184401 3.819527 -3.651984 0
M  V30 49 H -2.445192 0.077582 -3.065220 0
M  V30 50 H -3.535060 -2.064030 -3.314190 0
M  V30 51 H -2.966842 -3.851540 -1.698616 0
M  V30 52 H -1.316040 -3.411027 0.113381 0
M  V30 53 H 1.358005 -1.608849 2.500781 0
M  V30 54 H 1.801828 -5.271011 4.015386 0
M  V30 55 H 0.978156 -5.048662 0.979495 0
M  V30 56 H 1.675790 -6.516483 -0.917812 0
M  V30 57 H 3.796169 -7.808315 -0.700191 0
M  V30 58 H 4.477140 -6.248351 3.096638 0
M  V30 END ATOM
M  V30 BEGIN BOND
M  V30 1 2 1 2
M  V30 2 1 2 3
M  V30 3 1 3 4
M  V30 4 1 4 5
M  V30 5 2 5 6
M  V30 6 1 6 7
M  V30 7 2 7 8
M  V30 8 1 8 9
M  V30 9 1 9 10
M  V30 10 2 10 11
M  V30 11 1 11 12
M  V30 12 1 12 13
M  V30 13 1 13 14
M  V30 14 2 14 15
M  V30 15 1 15 16
M  V30 16 2 16 17
M  V30 17 1 17 18
M  V30 18 1 18 19
M  V30 19 2 19 20
M  V30 20 1 20 21
M  V30 21 2 21 22
M  V30 22 2 12 23
M  V30 23 1 23 24
M  V30 24 2 24 25
M  V30 25 1 25 26
M  V30 26 2 26 27
M  V30 27 1 27 28
M  V30 28 2 28 29
M  V30 29 2 9 30
M  V30 30 1 2 31
M  V30 31 1 31 32
M  V30 32 2 32 33
M  V30 33 1 33 34
M  V30 34 2 34 35
M  V30 35 1 35 36
M  V30 36 2 36 37
M  V30 37 1 30 5
M  V30 38 1 37 32
M  V30 39 1 29 10
M  V30 40 1 22 14
M  V30 41 1 28 23
M  V30 42 1 21 17
M  V30 43 1 3 38
M  V30 44 1 3 39
M  V30 45 1 6 40
M  V30 46 1 7 41
M  V30 47 1 8 42
M  V30 48 1 13 43
M  V30 49 1 15 44
M  V30 50 1 16 45
M  V30 51 1 18 46
M  V30 52 1 20 47
M  V30 53 1 22 48
M  V30 54 1 24 49
M  V30 55 1 25 50
M  V30 56 1 26 51
M  V30 57 1 27 52
M  V30 58 1 30 53
M  V30 59 1 31 54
M  V30 60 1 33 55
M  V30 61 1 34 56
M  V30 62 1 35 57
M  V30 63 1 37 58
M  V30 END BOND
M  V30 END CTAB
M  END
>  <Dataset>  (172) 
ChEMBL_Kinases

>  <Ligand_Instance>  (172) 
nan

>  <PDB_ID>  (172) 
nan

>  <Standardized_SMILES>  (172) 
O=C(COc1cccc(-c2nc(Nc3ccc4[nH]ncc4c3)c3ccccc3n2)c1)Nc1cccnc1

>  <Name>  (172) 
nan

>  <Pocket>  (172) 
nan

>  <ATP_Site>  (172) 
nan

>  <Peripheral>  (172) 
nan

>  <Num_H_Atoms_ProtBoundConf>  (172) 
nan

>  <Num_Resolved_Atoms>  (172) 
nan

>  <Num_Not_Resolved_Atoms>  (172) 
nan

$$$$
CHEMBL3665859
     RDKit          3D

  0  0  0  0  0  0  0  0  0  0999 V3000
M  V30 BEGIN CTAB
M  V30 COUNTS 44 47 0 0 0
M  V30 BEGIN ATOM
M  V30 1 C -2.613179 -2.478339 1.767405 0
M  V30 2 O -1.972913 -3.431217 1.000100 0
M  V30 3 C -0.743794 -3.500388 0.449777 0
M  V30 4 C 0.091829 -2.392314 0.709603 0
M  V30 5 C 1.358426 -2.367499 0.181668 0
M  V30 6 C 2.354867 -1.306774 0.389634 0
M  V30 7 C 3.673917 -1.448478 0.079428 0
M  V30 8 C 4.495815 -0.332779 0.299200 0
M  V30 9 C 3.985671 0.851868 0.813844 0
M  V30 10 N 4.793842 1.928582 0.994613 0
M  V30 11 C 4.286005 3.096344 1.481935 0
M  V30 12 N 2.992840 3.220694 1.793673 0
M  V30 13 C 2.099975 2.179895 1.641943 0
M  V30 14 N 0.741979 2.284217 1.981886 0
M  V30 15 C -0.561075 2.131073 1.439053 0
M  V30 16 C -0.782461 1.748237 0.126969 0
M  V30 17 C -2.100207 1.580689 -0.233981 0
M  V30 18 O -2.415149 1.183698 -1.543864 0
M  V30 19 C -3.168520 1.779665 0.638713 0
M  V30 20 F -4.419785 1.585165 0.197106 0
M  V30 21 C -2.886345 2.163166 1.930458 0
M  V30 22 C -1.597456 2.336181 2.323067 0
M  V30 23 F -1.470724 2.727194 3.631566 0
M  V30 24 C 2.662583 1.027615 1.145384 0
M  V30 25 C 1.880859 -0.119306 0.899396 0
M  V30 26 C 1.785773 -3.420211 -0.581233 0
M  V30 27 C 0.947859 -4.518684 -0.830228 0
M  V30 28 C -0.352757 -4.580260 -0.312260 0
M  V30 29 O -1.208686 -5.658587 -0.548148 0
M  V30 30 H -2.008766 -1.739420 2.287993 0
M  V30 31 H -3.310376 -1.886590 1.085742 0
M  V30 32 H -3.342416 -3.009206 2.439854 0
M  V30 33 H -0.253020 -1.590616 1.305106 0
M  V30 34 H 4.095248 -2.341238 -0.310931 0
M  V30 35 H 5.567321 -0.337225 0.077151 0
M  V30 36 H 4.896589 4.003482 1.640451 0
M  V30 37 H 0.840474 2.573229 3.003528 0
M  V30 38 H 0.046042 1.584010 -0.546734 0
M  V30 39 H -2.273087 0.194923 -1.786551 0
M  V30 40 H -3.728533 2.310507 2.584995 0
M  V30 41 H 0.863281 -0.033747 1.177834 0
M  V30 42 H 2.740248 -3.616220 -1.100461 0
M  V30 43 H 1.175189 -5.417653 -1.431859 0
M  V30 44 H -1.769498 -5.634502 -1.415238 0
M  V30 END ATOM
M  V30 BEGIN BOND
M  V30 1 1 1 2
M  V30 2 1 2 3
M  V30 3 2 3 4
M  V30 4 1 4 5
M  V30 5 1 5 6
M  V30 6 2 6 7
M  V30 7 1 7 8
M  V30 8 2 8 9
M  V30 9 1 9 10
M  V30 10 2 10 11
M  V30 11 1 11 12
M  V30 12 2 12 13
M  V30 13 1 13 14
M  V30 14 1 14 15
M  V30 15 2 15 16
M  V30 16 1 16 17
M  V30 17 1 17 18
M  V30 18 2 17 19
M  V30 19 1 19 20
M  V30 20 1 19 21
M  V30 21 2 21 22
M  V30 22 1 22 23
M  V30 23 1 13 24
M  V30 24 2 24 25
M  V30 25 2 5 26
M  V30 26 1 26 27
M  V30 27 2 27 28
M  V30 28 1 28 29
M  V30 29 1 28 3
M  V30 30 1 25 6
M  V30 31 1 24 9
M  V30 32 1 22 15
M  V30 33 1 1 30
M  V30 34 1 1 31
M  V30 35 1 1 32
M  V30 36 1 4 33
M  V30 37 1 7 34
M  V30 38 1 8 35
M  V30 39 1 11 36
M  V30 40 1 14 37
M  V30 41 1 16 38
M  V30 42 1 18 39
M  V30 43 1 21 40
M  V30 44 1 25 41
M  V30 45 1 26 42
M  V30 46 1 27 43
M  V30 47 1 29 44
M  V30 END BOND
M  V30 END CTAB
M  END
>  <Dataset>  (173) 
ChEMBL_Kinases

>  <Ligand_Instance>  (173) 
nan

>  <PDB_ID>  (173) 
nan

>  <Standardized_SMILES>  (173) 
COc1cc(-c2ccc3ncnc(Nc4cc(O)c(F)cc4F)c3c2)ccc1O

>  <Name>  (173) 
nan

>  <Pocket>  (173) 
nan

>  <ATP_Site>  (173) 
nan

>  <Peripheral>  (173) 
nan

>  <Num_H_Atoms_ProtBoundConf>  (173) 
nan

>  <Num_Resolved_Atoms>  (173) 
nan

>  <Num_Not_Resolved_Atoms>  (173) 
nan

$$$$
CHEMBL3665860
     RDKit          3D

  0  0  0  0  0  0  0  0  0  0999 V3000
M  V30 BEGIN CTAB
M  V30 COUNTS 44 47 0 0 0
M  V30 BEGIN ATOM
M  V30 1 C -2.657370 -2.462858 1.728935 0
M  V30 2 O -2.030267 -3.448155 1.006799 0
M  V30 3 C -0.761403 -3.472564 0.497866 0
M  V30 4 C 0.166249 -2.425202 0.675763 0
M  V30 5 C 1.451678 -2.414425 0.166943 0
M  V30 6 C 2.374609 -1.281929 0.394468 0
M  V30 7 C 3.688004 -1.420779 0.032879 0
M  V30 8 C 4.517485 -0.322268 0.215943 0
M  V30 9 C 3.971895 0.826255 0.742681 0
M  V30 10 N 4.757581 1.940511 0.899675 0
M  V30 11 C 4.242246 3.074793 1.383718 0
M  V30 12 N 2.954024 3.255308 1.761800 0
M  V30 13 C 2.081611 2.174852 1.638440 0
M  V30 14 N 0.731386 2.255320 2.025895 0
M  V30 15 C -0.565393 2.087947 1.502531 0
M  V30 16 C -0.913554 1.690017 0.251751 0
M  V30 17 C -2.177325 1.517436 -0.234921 0
M  V30 18 O -2.431470 1.094846 -1.530445 0
M  V30 19 C -3.175248 1.792322 0.688134 0
M  V30 20 Cl -4.815767 1.584355 0.134029 0
M  V30 21 C -2.893523 2.204393 1.980325 0
M  V30 22 C -1.600783 2.346841 2.378286 0
M  V30 23 F -1.507998 2.770630 3.683924 0
M  V30 24 C 2.665328 1.036912 1.132477 0
M  V30 25 C 1.880046 -0.121099 0.919204 0
M  V30 26 C 1.846184 -3.520267 -0.566943 0
M  V30 27 C 1.007526 -4.626261 -0.810195 0
M  V30 28 C -0.233196 -4.484076 -0.242813 0
M  V30 29 O -1.075046 -5.597101 -0.495395 0
M  V30 30 H -2.040856 -1.613268 2.069056 0
M  V30 31 H -3.450608 -2.001250 1.052129 0
M  V30 32 H -3.276274 -2.839926 2.585972 0
M  V30 33 H -0.227875 -1.619169 1.256672 0
M  V30 34 H 4.149875 -2.266761 -0.373321 0
M  V30 35 H 5.564973 -0.307287 -0.033962 0
M  V30 36 H 4.897182 3.955488 1.494751 0
M  V30 37 H 0.859336 2.515477 3.049444 0
M  V30 38 H -0.088729 1.486381 -0.418545 0
M  V30 39 H -2.084391 0.165373 -1.832624 0
M  V30 40 H -3.773073 2.391662 2.583550 0
M  V30 41 H 0.857512 -0.049846 1.225868 0
M  V30 42 H 2.839210 -3.603151 -1.009247 0
M  V30 43 H 1.331736 -5.474703 -1.380925 0
M  V30 44 H -1.657642 -5.465598 -1.352983 0
M  V30 END ATOM
M  V30 BEGIN BOND
M  V30 1 1 1 2
M  V30 2 1 2 3
M  V30 3 2 3 4
M  V30 4 1 4 5
M  V30 5 1 5 6
M  V30 6 2 6 7
M  V30 7 1 7 8
M  V30 8 2 8 9
M  V30 9 1 9 10
M  V30 10 2 10 11
M  V30 11 1 11 12
M  V30 12 2 12 13
M  V30 13 1 13 14
M  V30 14 1 14 15
M  V30 15 2 15 16
M  V30 16 1 16 17
M  V30 17 1 17 18
M  V30 18 2 17 19
M  V30 19 1 19 20
M  V30 20 1 19 21
M  V30 21 2 21 22
M  V30 22 1 22 23
M  V30 23 1 13 24
M  V30 24 2 24 25
M  V30 25 2 5 26
M  V30 26 1 26 27
M  V30 27 2 27 28
M  V30 28 1 28 29
M  V30 29 1 28 3
M  V30 30 1 25 6
M  V30 31 1 24 9
M  V30 32 1 22 15
M  V30 33 1 1 30
M  V30 34 1 1 31
M  V30 35 1 1 32
M  V30 36 1 4 33
M  V30 37 1 7 34
M  V30 38 1 8 35
M  V30 39 1 11 36
M  V30 40 1 14 37
M  V30 41 1 16 38
M  V30 42 1 18 39
M  V30 43 1 21 40
M  V30 44 1 25 41
M  V30 45 1 26 42
M  V30 46 1 27 43
M  V30 47 1 29 44
M  V30 END BOND
M  V30 END CTAB
M  END
>  <Dataset>  (174) 
ChEMBL_Kinases

>  <Ligand_Instance>  (174) 
nan

>  <PDB_ID>  (174) 
nan

>  <Standardized_SMILES>  (174) 
COc1cc(-c2ccc3ncnc(Nc4cc(O)c(Cl)cc4F)c3c2)ccc1O

>  <Name>  (174) 
nan

>  <Pocket>  (174) 
nan

>  <ATP_Site>  (174) 
nan

>  <Peripheral>  (174) 
nan

>  <Num_H_Atoms_ProtBoundConf>  (174) 
nan

>  <Num_Resolved_Atoms>  (174) 
nan

>  <Num_Not_Resolved_Atoms>  (174) 
nan

$$$$
CHEMBL3665861
     RDKit          3D

  0  0  0  0  0  0  0  0  0  0999 V3000
M  V30 BEGIN CTAB
M  V30 COUNTS 39 42 0 0 0
M  V30 BEGIN ATOM
M  V30 1 O 1.325488 -3.405899 3.880532 0
M  V30 2 C 1.635753 -3.409882 2.528865 0
M  V30 3 C 2.038053 -2.209506 2.017277 0
M  V30 4 C 2.395940 -2.005765 0.677757 0
M  V30 5 N 2.793473 -0.738106 0.167818 0
M  V30 6 C 2.362680 0.144750 -0.851039 0
M  V30 7 N 3.183966 0.375266 -1.886693 0
M  V30 8 C 2.849806 1.185776 -2.894026 0
M  V30 9 N 1.649898 1.817711 -2.912566 0
M  V30 10 C 0.752987 1.648442 -1.912186 0
M  V30 11 C -0.489134 2.254922 -1.870400 0
M  V30 12 C -1.361384 2.029867 -0.818278 0
M  V30 13 C -0.991537 1.175313 0.228178 0
M  V30 14 C -1.846492 0.864868 1.382151 0
M  V30 15 C -1.173326 0.600353 2.581515 0
M  V30 16 C -1.851170 0.287661 3.743767 0
M  V30 17 C -3.225130 0.249754 3.662699 0
M  V30 18 Cl -4.167690 -0.144269 5.103816 0
M  V30 19 C -3.941631 0.501024 2.511409 0
M  V30 20 C -3.223342 0.808676 1.375654 0
M  V30 21 C 0.262430 0.602865 0.124450 0
M  V30 22 C 1.153578 0.803330 -0.903647 0
M  V30 23 C 2.327924 -3.106426 -0.152910 0
M  V30 24 F 2.651787 -3.012077 -1.463499 0
M  V30 25 C 1.922664 -4.330505 0.345043 0
M  V30 26 C 1.580252 -4.469946 1.682068 0
M  V30 27 F 1.173612 -5.659796 2.221771 0
M  V30 28 H 0.353791 -3.596927 4.162814 0
M  V30 29 H 2.112223 -1.309926 2.617973 0
M  V30 30 H 3.629182 -0.284681 0.631255 0
M  V30 31 H 3.521628 1.367492 -3.726198 0
M  V30 32 H -0.767424 2.914548 -2.682278 0
M  V30 33 H -2.328862 2.485929 -0.761901 0
M  V30 34 H -0.083621 0.608621 2.734304 0
M  V30 35 H -1.352690 0.077492 4.687481 0
M  V30 36 H -5.017379 0.469769 2.452368 0
M  V30 37 H -3.657797 1.026308 0.407820 0
M  V30 38 H 0.535204 -0.043389 0.920137 0
M  V30 39 H 1.853255 -5.214438 -0.267186 0
M  V30 END ATOM
M  V30 BEGIN BOND
M  V30 1 1 1 2
M  V30 2 2 2 3
M  V30 3 1 3 4
M  V30 4 1 4 5
M  V30 5 1 5 6
M  V30 6 2 6 7
M  V30 7 1 7 8
M  V30 8 2 8 9
M  V30 9 1 9 10
M  V30 10 2 10 11
M  V30 11 1 11 12
M  V30 12 2 12 13
M  V30 13 1 13 14
M  V30 14 2 14 15
M  V30 15 1 15 16
M  V30 16 2 16 17
M  V30 17 1 17 18
M  V30 18 1 17 19
M  V30 19 2 19 20
M  V30 20 1 13 21
M  V30 21 2 21 22
M  V30 22 2 4 23
M  V30 23 1 23 24
M  V30 24 1 23 25
M  V30 25 2 25 26
M  V30 26 1 26 27
M  V30 27 1 26 2
M  V30 28 1 22 6
M  V30 29 1 22 10
M  V30 30 1 20 14
M  V30 31 1 1 28
M  V30 32 1 3 29
M  V30 33 1 5 30
M  V30 34 1 8 31
M  V30 35 1 11 32
M  V30 36 1 12 33
M  V30 37 1 15 34
M  V30 38 1 16 35
M  V30 39 1 19 36
M  V30 40 1 20 37
M  V30 41 1 21 38
M  V30 42 1 25 39
M  V30 END BOND
M  V30 END CTAB
M  END
>  <Dataset>  (175) 
ChEMBL_Kinases

>  <Ligand_Instance>  (175) 
nan

>  <PDB_ID>  (175) 
nan

>  <Standardized_SMILES>  (175) 
Oc1cc(Nc2ncnc3ccc(-c4ccc(Cl)cc4)cc23)c(F)cc1F

>  <Name>  (175) 
nan

>  <Pocket>  (175) 
nan

>  <ATP_Site>  (175) 
nan

>  <Peripheral>  (175) 
nan

>  <Num_H_Atoms_ProtBoundConf>  (175) 
nan

>  <Num_Resolved_Atoms>  (175) 
nan

>  <Num_Not_Resolved_Atoms>  (175) 
nan

$$$$
CHEMBL3665862
     RDKit          3D

  0  0  0  0  0  0  0  0  0  0999 V3000
M  V30 BEGIN CTAB
M  V30 COUNTS 44 47 0 0 0
M  V30 BEGIN ATOM
M  V30 1 C -1.874678 -2.282088 3.154866 0
M  V30 2 O -1.921775 -3.294463 2.172458 0
M  V30 3 C -1.296507 -3.264165 0.951597 0
M  V30 4 C -0.521112 -2.191827 0.531241 0
M  V30 5 C 0.110097 -2.176626 -0.718208 0
M  V30 6 C 0.918978 -1.039464 -1.137429 0
M  V30 7 C 1.087157 -0.586701 -2.438699 0
M  V30 8 C 1.869124 0.508342 -2.724034 0
M  V30 9 C 2.534476 1.221316 -1.721542 0
M  V30 10 N 3.284544 2.294578 -2.025094 0
M  V30 11 C 3.909572 2.977920 -1.041048 0
M  V30 12 N 3.778139 2.580576 0.237116 0
M  V30 13 C 3.036387 1.513101 0.560787 0
M  V30 14 N 2.788066 0.986762 1.881905 0
M  V30 15 C 1.445884 1.263974 2.341804 0
M  V30 16 C 1.008109 0.810769 3.579636 0
M  V30 17 C -0.261697 1.017598 4.067211 0
M  V30 18 C -1.156200 1.716044 3.284399 0
M  V30 19 F -2.402149 1.922475 3.749213 0
M  V30 20 C -0.773118 2.179546 2.065126 0
M  V30 21 O -1.704247 2.872539 1.318199 0
M  V30 22 C 0.499349 1.957331 1.606853 0
M  V30 23 C 2.372482 0.778259 -0.429114 0
M  V30 24 C 1.585285 -0.320580 -0.166939 0
M  V30 25 C -0.082847 -3.299729 -1.517655 0
M  V30 26 C -0.853156 -4.403759 -1.139939 0
M  V30 27 C -1.449946 -4.347470 0.114191 0
M  V30 28 O -2.199407 -5.469189 0.430846 0
M  V30 29 H -0.884559 -1.779238 3.199232 0
M  V30 30 H -1.995819 -2.814266 4.146020 0
M  V30 31 H -2.696726 -1.573854 3.023931 0
M  V30 32 H -0.417912 -1.355126 1.209468 0
M  V30 33 H 0.552151 -1.162819 -3.192743 0
M  V30 34 H 1.949668 0.805831 -3.776686 0
M  V30 35 H 4.525633 3.849056 -1.208127 0
M  V30 36 H 3.401998 0.465011 2.517800 0
M  V30 37 H 1.733070 0.268761 4.165653 0
M  V30 38 H -0.573924 0.654426 5.031190 0
M  V30 39 H -2.453752 2.331912 0.893052 0
M  V30 40 H 0.783353 2.331332 0.645404 0
M  V30 41 H 1.475488 -0.657846 0.855488 0
M  V30 42 H 0.381683 -3.317078 -2.480912 0
M  V30 43 H -0.945005 -5.226857 -1.834299 0
M  V30 44 H -3.168271 -5.415135 0.695366 0
M  V30 END ATOM
M  V30 BEGIN BOND
M  V30 1 1 1 2
M  V30 2 1 2 3
M  V30 3 2 3 4
M  V30 4 1 4 5
M  V30 5 1 5 6
M  V30 6 2 6 7
M  V30 7 1 7 8
M  V30 8 2 8 9
M  V30 9 1 9 10
M  V30 10 2 10 11
M  V30 11 1 11 12
M  V30 12 2 12 13
M  V30 13 1 13 14
M  V30 14 1 14 15
M  V30 15 2 15 16
M  V30 16 1 16 17
M  V30 17 2 17 18
M  V30 18 1 18 19
M  V30 19 1 18 20
M  V30 20 1 20 21
M  V30 21 2 20 22
M  V30 22 1 13 23
M  V30 23 2 23 24
M  V30 24 2 5 25
M  V30 25 1 25 26
M  V30 26 2 26 27
M  V30 27 1 27 28
M  V30 28 1 27 3
M  V30 29 1 24 6
M  V30 30 1 23 9
M  V30 31 1 22 15
M  V30 32 1 1 29
M  V30 33 1 1 30
M  V30 34 1 1 31
M  V30 35 1 4 32
M  V30 36 1 7 33
M  V30 37 1 8 34
M  V30 38 1 11 35
M  V30 39 1 14 36
M  V30 40 1 16 37
M  V30 41 1 17 38
M  V30 42 1 21 39
M  V30 43 1 22 40
M  V30 44 1 24 41
M  V30 45 1 25 42
M  V30 46 1 26 43
M  V30 47 1 28 44
M  V30 END BOND
M  V30 END CTAB
M  END
>  <Dataset>  (176) 
ChEMBL_Kinases

>  <Ligand_Instance>  (176) 
nan

>  <PDB_ID>  (176) 
nan

>  <Standardized_SMILES>  (176) 
COc1cc(-c2ccc3ncnc(Nc4ccc(F)c(O)c4)c3c2)ccc1O

>  <Name>  (176) 
nan

>  <Pocket>  (176) 
nan

>  <ATP_Site>  (176) 
nan

>  <Peripheral>  (176) 
nan

>  <Num_H_Atoms_ProtBoundConf>  (176) 
nan

>  <Num_Resolved_Atoms>  (176) 
nan

>  <Num_Not_Resolved_Atoms>  (176) 
nan

$$$$
CHEMBL3665863
     RDKit          3D

  0  0  0  0  0  0  0  0  0  0999 V3000
M  V30 BEGIN CTAB
M  V30 COUNTS 44 47 0 0 0
M  V30 BEGIN ATOM
M  V30 1 C -2.035664 -3.532519 2.429244 0
M  V30 2 O -1.669696 -4.204379 1.238029 0
M  V30 3 C -0.616596 -3.835514 0.414708 0
M  V30 4 C 0.272675 -2.762885 0.588552 0
M  V30 5 C 1.263246 -2.578544 -0.375707 0
M  V30 6 C 2.145873 -1.456629 -0.099497 0
M  V30 7 C 3.466263 -1.541619 -0.541430 0
M  V30 8 C 4.384989 -0.514741 -0.299597 0
M  V30 9 C 3.928827 0.566469 0.385642 0
M  V30 10 N 4.691344 1.637694 0.720848 0
M  V30 11 C 4.247997 2.697396 1.410226 0
M  V30 12 N 2.982109 2.809746 1.848595 0
M  V30 13 C 2.111102 1.784556 1.568664 0
M  V30 14 N 0.779320 1.754814 1.957380 0
M  V30 15 C -0.530473 2.223786 1.805769 0
M  V30 16 C -1.166755 2.811250 2.905933 0
M  V30 17 C -2.456328 3.273751 2.757172 0
M  V30 18 C -3.058187 3.131319 1.519694 0
M  V30 19 F -4.324208 3.620820 1.488250 0
M  V30 20 C -2.463319 2.561994 0.424074 0
M  V30 21 O -3.256816 2.523606 -0.716117 0
M  V30 22 C -1.176753 2.102017 0.573527 0
M  V30 23 F -0.608127 1.547397 -0.520040 0
M  V30 24 C 2.666973 0.759712 0.865183 0
M  V30 25 C 1.802601 -0.309924 0.584711 0
M  V30 26 C 1.437595 -3.366396 -1.488487 0
M  V30 27 C 0.549739 -4.438408 -1.666163 0
M  V30 28 C -0.418794 -4.608648 -0.707942 0
M  V30 29 O -1.256612 -5.712048 -0.976607 0
M  V30 30 H -1.175970 -2.980077 2.868720 0
M  V30 31 H -2.803622 -2.781289 2.149028 0
M  V30 32 H -2.548369 -4.210255 3.142813 0
M  V30 33 H 0.097554 -2.178913 1.469066 0
M  V30 34 H 3.800995 -2.413468 -1.085059 0
M  V30 35 H 5.413517 -0.533250 -0.620664 0
M  V30 36 H 5.074010 3.413750 1.537813 0
M  V30 37 H 0.782698 1.014087 2.722907 0
M  V30 38 H -0.585292 2.863253 3.842285 0
M  V30 39 H -2.931924 3.723262 3.621116 0
M  V30 40 H -2.908889 2.498383 -1.666247 0
M  V30 41 H 0.743705 -0.333995 0.890194 0
M  V30 42 H 2.235975 -3.149203 -2.184406 0
M  V30 43 H 0.681636 -5.052976 -2.534343 0
M  V30 44 H -2.170464 -5.494201 -1.370249 0
M  V30 END ATOM
M  V30 BEGIN BOND
M  V30 1 1 1 2
M  V30 2 1 2 3
M  V30 3 2 3 4
M  V30 4 1 4 5
M  V30 5 1 5 6
M  V30 6 2 6 7
M  V30 7 1 7 8
M  V30 8 2 8 9
M  V30 9 1 9 10
M  V30 10 2 10 11
M  V30 11 1 11 12
M  V30 12 2 12 13
M  V30 13 1 13 14
M  V30 14 1 14 15
M  V30 15 2 15 16
M  V30 16 1 16 17
M  V30 17 2 17 18
M  V30 18 1 18 19
M  V30 19 1 18 20
M  V30 20 1 20 21
M  V30 21 2 20 22
M  V30 22 1 22 23
M  V30 23 1 13 24
M  V30 24 2 24 25
M  V30 25 2 5 26
M  V30 26 1 26 27
M  V30 27 2 27 28
M  V30 28 1 28 29
M  V30 29 1 28 3
M  V30 30 1 25 6
M  V30 31 1 24 9
M  V30 32 1 22 15
M  V30 33 1 1 30
M  V30 34 1 1 31
M  V30 35 1 1 32
M  V30 36 1 4 33
M  V30 37 1 7 34
M  V30 38 1 8 35
M  V30 39 1 11 36
M  V30 40 1 14 37
M  V30 41 1 16 38
M  V30 42 1 17 39
M  V30 43 1 21 40
M  V30 44 1 25 41
M  V30 45 1 26 42
M  V30 46 1 27 43
M  V30 47 1 29 44
M  V30 END BOND
M  V30 END CTAB
M  END
>  <Dataset>  (177) 
ChEMBL_Kinases

>  <Ligand_Instance>  (177) 
nan

>  <PDB_ID>  (177) 
nan

>  <Standardized_SMILES>  (177) 
COc1cc(-c2ccc3ncnc(Nc4ccc(F)c(O)c4F)c3c2)ccc1O

>  <Name>  (177) 
nan

>  <Pocket>  (177) 
nan

>  <ATP_Site>  (177) 
nan

>  <Peripheral>  (177) 
nan

>  <Num_H_Atoms_ProtBoundConf>  (177) 
nan

>  <Num_Resolved_Atoms>  (177) 
nan

>  <Num_Not_Resolved_Atoms>  (177) 
nan

$$$$
CHEMBL3665864
     RDKit          3D

  0  0  0  0  0  0  0  0  0  0999 V3000
M  V30 BEGIN CTAB
M  V30 COUNTS 42 46 0 0 0
M  V30 BEGIN ATOM
M  V30 1 O 3.072258 -5.453075 0.385271 0
M  V30 2 C 3.203558 -4.081544 0.376767 0
M  V30 3 C 4.088130 -3.565936 1.299483 0
M  V30 4 F 4.786227 -4.348025 2.158421 0
M  V30 5 C 4.289177 -2.203493 1.371176 0
M  V30 6 C 3.564126 -1.414989 0.479309 0
M  V30 7 C 2.667694 -1.865375 -0.464781 0
M  V30 8 N 1.954842 -1.005808 -1.354468 0
M  V30 9 C 2.291371 0.356565 -1.122043 0
M  V30 10 N 3.384793 0.904683 -1.672432 0
M  V30 11 C 3.674092 2.204718 -1.421047 0
M  V30 12 N 2.903936 3.005373 -0.625245 0
M  V30 13 C 1.819862 2.451267 -0.083300 0
M  V30 14 C 0.963689 3.161963 0.730819 0
M  V30 15 C -0.190120 2.656271 1.326258 0
M  V30 16 C -0.511571 1.315322 1.081178 0
M  V30 17 C -1.676160 0.617822 1.607720 0
M  V30 18 C -2.316774 0.815159 2.811509 0
M  V30 19 C -3.415915 0.066645 3.163535 0
M  V30 20 C -3.957985 -0.924627 2.357212 0
M  V30 21 N -4.996024 -1.763884 2.483839 0
M  V30 22 N -5.067554 -2.528775 1.381236 0
M  V30 23 C -4.045511 -2.145360 0.560312 0
M  V30 24 C -3.322929 -1.127138 1.153002 0
M  V30 25 C -2.224703 -0.384507 0.793120 0
M  V30 26 C 0.337808 0.596196 0.270228 0
M  V30 27 C 1.470122 1.135588 -0.299740 0
M  V30 28 C 2.510465 -3.256222 -0.483283 0
M  V30 29 F 1.644730 -3.823612 -1.376443 0
M  V30 30 H 2.869911 -5.936036 1.252558 0
M  V30 31 H 4.974523 -1.761563 2.082312 0
M  V30 32 H 3.755385 -0.360705 0.575525 0
M  V30 33 H 1.307917 -1.477370 -2.025072 0
M  V30 34 H 4.584229 2.519019 -1.926042 0
M  V30 35 H 1.185810 4.211771 0.943208 0
M  V30 36 H -0.856344 3.207308 1.961408 0
M  V30 37 H -1.887482 1.587918 3.428050 0
M  V30 38 H -3.846838 0.303715 4.128562 0
M  V30 39 H -5.642743 -1.819346 3.298972 0
M  V30 40 H -3.821346 -2.566932 -0.414056 0
M  V30 41 H -1.827015 -0.655515 -0.192377 0
M  V30 42 H 0.167253 -0.440012 0.031051 0
M  V30 END ATOM
M  V30 BEGIN BOND
M  V30 1 1 1 2
M  V30 2 2 2 3
M  V30 3 1 3 4
M  V30 4 1 3 5
M  V30 5 2 5 6
M  V30 6 1 6 7
M  V30 7 1 7 8
M  V30 8 1 8 9
M  V30 9 2 9 10
M  V30 10 1 10 11
M  V30 11 2 11 12
M  V30 12 1 12 13
M  V30 13 2 13 14
M  V30 14 1 14 15
M  V30 15 2 15 16
M  V30 16 1 16 17
M  V30 17 2 17 18
M  V30 18 1 18 19
M  V30 19 2 19 20
M  V30 20 1 20 21
M  V30 21 1 21 22
M  V30 22 2 22 23
M  V30 23 1 23 24
M  V30 24 2 24 25
M  V30 25 1 16 26
M  V30 26 2 26 27
M  V30 27 2 7 28
M  V30 28 1 28 29
M  V30 29 1 28 2
M  V30 30 1 27 9
M  V30 31 1 27 13
M  V30 32 1 25 17
M  V30 33 1 24 20
M  V30 34 1 1 30
M  V30 35 1 5 31
M  V30 36 1 6 32
M  V30 37 1 8 33
M  V30 38 1 11 34
M  V30 39 1 14 35
M  V30 40 1 15 36
M  V30 41 1 18 37
M  V30 42 1 19 38
M  V30 43 1 21 39
M  V30 44 1 23 40
M  V30 45 1 25 41
M  V30 46 1 26 42
M  V30 END BOND
M  V30 END CTAB
M  END
>  <Dataset>  (178) 
ChEMBL_Kinases

>  <Ligand_Instance>  (178) 
nan

>  <PDB_ID>  (178) 
nan

>  <Standardized_SMILES>  (178) 
Oc1c(F)ccc(Nc2ncnc3ccc(-c4ccc5[nH]ncc5c4)cc23)c1F

>  <Name>  (178) 
nan

>  <Pocket>  (178) 
nan

>  <ATP_Site>  (178) 
nan

>  <Peripheral>  (178) 
nan

>  <Num_H_Atoms_ProtBoundConf>  (178) 
nan

>  <Num_Resolved_Atoms>  (178) 
nan

>  <Num_Not_Resolved_Atoms>  (178) 
nan

$$$$
CHEMBL3665865
     RDKit          3D

  0  0  0  0  0  0  0  0  0  0999 V3000
M  V30 BEGIN CTAB
M  V30 COUNTS 39 42 0 0 0
M  V30 BEGIN ATOM
M  V30 1 O 2.103525 -5.392534 1.056872 0
M  V30 2 C 2.299974 -4.041086 0.789488 0
M  V30 3 C 3.243350 -3.291228 1.482318 0
M  V30 4 F 3.979502 -3.922287 2.443745 0
M  V30 5 C 3.464296 -1.951304 1.242827 0
M  V30 6 C 2.690494 -1.353112 0.255535 0
M  V30 7 C 1.755286 -2.082540 -0.435376 0
M  V30 8 N 0.989278 -1.447170 -1.423514 0
M  V30 9 C 1.172933 -0.085071 -1.722346 0
M  V30 10 N 1.935059 0.457642 -2.708644 0
M  V30 11 C 2.036296 1.775656 -2.890833 0
M  V30 12 N 1.373406 2.659162 -2.088589 0
M  V30 13 C 0.599653 2.214947 -1.091424 0
M  V30 14 C -0.084279 3.058165 -0.253663 0
M  V30 15 C -0.883780 2.578637 0.785535 0
M  V30 16 C -1.000767 1.209034 0.990326 0
M  V30 17 C -1.807930 0.607294 2.052677 0
M  V30 18 C -1.347767 -0.601420 2.561195 0
M  V30 19 C -2.014621 -1.285484 3.574075 0
M  V30 20 C -3.180389 -0.698154 4.062863 0
M  V30 21 Cl -4.057622 -1.531012 5.346195 0
M  V30 22 C -3.640918 0.502093 3.560442 0
M  V30 23 C -2.963814 1.168521 2.552688 0
M  V30 24 C -0.289261 0.413861 0.114939 0
M  V30 25 C 0.508763 0.848635 -0.920521 0
M  V30 26 C 1.538393 -3.429499 -0.189461 0
M  V30 27 F 0.603374 -4.131498 -0.891516 0
M  V30 28 H 1.328015 -5.722369 1.619736 0
M  V30 29 H 4.221582 -1.425547 1.827196 0
M  V30 30 H 2.860030 -0.296692 0.062471 0
M  V30 31 H 0.254412 -1.944398 -1.980446 0
M  V30 32 H 2.656851 2.158943 -3.692055 0
M  V30 33 H 0.009418 4.124846 -0.418442 0
M  V30 34 H -1.415477 3.234031 1.435944 0
M  V30 35 H -0.442245 -1.140495 2.241610 0
M  V30 36 H -1.676073 -2.225662 3.984759 0
M  V30 37 H -4.546258 0.891873 3.988514 0
M  V30 38 H -3.305923 2.101658 2.150902 0
M  V30 39 H -0.379807 -0.647244 0.270092 0
M  V30 END ATOM
M  V30 BEGIN BOND
M  V30 1 1 1 2
M  V30 2 2 2 3
M  V30 3 1 3 4
M  V30 4 1 3 5
M  V30 5 2 5 6
M  V30 6 1 6 7
M  V30 7 1 7 8
M  V30 8 1 8 9
M  V30 9 2 9 10
M  V30 10 1 10 11
M  V30 11 2 11 12
M  V30 12 1 12 13
M  V30 13 2 13 14
M  V30 14 1 14 15
M  V30 15 2 15 16
M  V30 16 1 16 17
M  V30 17 2 17 18
M  V30 18 1 18 19
M  V30 19 2 19 20
M  V30 20 1 20 21
M  V30 21 1 20 22
M  V30 22 2 22 23
M  V30 23 1 16 24
M  V30 24 2 24 25
M  V30 25 2 7 26
M  V30 26 1 26 27
M  V30 27 1 26 2
M  V30 28 1 25 9
M  V30 29 1 25 13
M  V30 30 1 23 17
M  V30 31 1 1 28
M  V30 32 1 5 29
M  V30 33 1 6 30
M  V30 34 1 8 31
M  V30 35 1 11 32
M  V30 36 1 14 33
M  V30 37 1 15 34
M  V30 38 1 18 35
M  V30 39 1 19 36
M  V30 40 1 22 37
M  V30 41 1 23 38
M  V30 42 1 24 39
M  V30 END BOND
M  V30 END CTAB
M  END
>  <Dataset>  (179) 
ChEMBL_Kinases

>  <Ligand_Instance>  (179) 
nan

>  <PDB_ID>  (179) 
nan

>  <Standardized_SMILES>  (179) 
Oc1c(F)ccc(Nc2ncnc3ccc(-c4ccc(Cl)cc4)cc23)c1F

>  <Name>  (179) 
nan

>  <Pocket>  (179) 
nan

>  <ATP_Site>  (179) 
nan

>  <Peripheral>  (179) 
nan

>  <Num_H_Atoms_ProtBoundConf>  (179) 
nan

>  <Num_Resolved_Atoms>  (179) 
nan

>  <Num_Not_Resolved_Atoms>  (179) 
nan

$$$$
CHEMBL3666715
     RDKit          3D

  0  0  0  0  0  0  0  0  0  0999 V3000
M  V30 BEGIN CTAB
M  V30 COUNTS 59 63 0 0 0
M  V30 BEGIN ATOM
M  V30 1 C 2.229346 -2.614527 2.477710 0
M  V30 2 O 3.207246 -1.932380 3.167941 0
M  V30 3 C 4.255807 -1.569358 2.304539 0
M  V30 4 C 5.269766 -0.818697 3.188564 0
M  V30 5 N 4.533696 0.310051 3.714289 0
M  V30 6 C 3.999386 1.315854 2.879308 0
M  V30 7 O 4.101497 1.366166 1.631432 0
M  V30 8 C 3.216414 2.493258 3.383920 0
M  V30 9 O 2.790368 3.353338 2.399914 0
M  V30 10 C 1.972600 3.145973 1.321298 0
M  V30 11 C 1.868162 4.370711 0.634424 0
M  V30 12 C 1.098934 4.499294 -0.518489 0
M  V30 13 C 0.418934 3.414377 -1.014545 0
M  V30 14 C 0.517938 2.199885 -0.343315 0
M  V30 15 C -0.165807 1.033998 -0.870539 0
M  V30 16 N -0.089635 -0.199624 -0.316050 0
M  V30 17 C -0.753615 -1.239418 -0.912501 0
M  V30 18 N -0.803019 -2.582776 -0.495665 0
M  V30 19 C -2.041850 -3.050001 0.052603 0
M  V30 20 C -3.127500 -2.228596 0.290523 0
M  V30 21 C -4.325306 -2.638584 0.781749 0
M  V30 22 C -4.474078 -3.974050 1.065147 0
M  V30 23 N -5.516247 -4.686197 1.546535 0
M  V30 24 N -5.172111 -5.953458 1.642276 0
M  V30 25 C -3.897384 -6.142367 1.232783 0
M  V30 26 C -3.445851 -4.878183 0.861874 0
M  V30 27 C -2.271910 -4.376565 0.364316 0
M  V30 28 C -1.482993 -1.012339 -2.061046 0
M  V30 29 C -2.189167 -2.002916 -2.741655 0
M  V30 30 C -2.922494 -1.800751 -3.888755 0
M  V30 31 C -2.958238 -0.520994 -4.398142 0
M  V30 32 C -2.297626 0.502704 -3.794786 0
M  V30 33 C -1.563022 0.240511 -2.626968 0
M  V30 34 N -0.890305 1.204415 -1.989650 0
M  V30 35 C 1.276180 2.084062 0.789785 0
M  V30 36 H 1.398163 -2.882436 3.208408 0
M  V30 37 H 2.596714 -3.608016 2.124380 0
M  V30 38 H 1.828796 -2.083166 1.598848 0
M  V30 39 H 3.904228 -0.903623 1.513422 0
M  V30 40 H 4.725982 -2.461804 1.833489 0
M  V30 41 H 6.149369 -0.555691 2.600420 0
M  V30 42 H 5.532185 -1.535724 3.984578 0
M  V30 43 H 4.373150 0.412712 4.751760 0
M  V30 44 H 3.871420 3.039996 4.072314 0
M  V30 45 H 2.302447 2.098087 3.895915 0
M  V30 46 H 2.330149 5.338080 0.866522 0
M  V30 47 H 0.963889 5.395224 -1.102324 0
M  V30 48 H -0.194684 3.468074 -1.908550 0
M  V30 49 H -0.026390 -3.286093 -0.536561 0
M  V30 50 H -2.996127 -1.170360 0.061301 0
M  V30 51 H -5.146389 -1.926482 0.945486 0
M  V30 52 H -6.450134 -4.284308 1.803102 0
M  V30 53 H -3.323479 -7.060447 1.189631 0
M  V30 54 H -1.478612 -5.110618 0.215304 0
M  V30 55 H -2.170674 -3.009840 -2.369393 0
M  V30 56 H -3.458864 -2.575766 -4.398315 0
M  V30 57 H -3.528617 -0.342582 -5.296005 0
M  V30 58 H -2.308328 1.514963 -4.176373 0
M  V30 59 H 1.406555 1.202069 1.373366 0
M  V30 END ATOM
M  V30 BEGIN BOND
M  V30 1 1 1 2
M  V30 2 1 2 3
M  V30 3 1 3 4
M  V30 4 1 4 5
M  V30 5 1 5 6
M  V30 6 2 6 7
M  V30 7 1 6 8
M  V30 8 1 8 9
M  V30 9 1 9 10
M  V30 10 2 10 11
M  V30 11 1 11 12
M  V30 12 2 12 13
M  V30 13 1 13 14
M  V30 14 1 14 15
M  V30 15 2 15 16
M  V30 16 1 16 17
M  V30 17 1 17 18
M  V30 18 1 18 19
M  V30 19 2 19 20
M  V30 20 1 20 21
M  V30 21 2 21 22
M  V30 22 1 22 23
M  V30 23 1 23 24
M  V30 24 2 24 25
M  V30 25 1 25 26
M  V30 26 2 26 27
M  V30 27 2 17 28
M  V30 28 1 28 29
M  V30 29 2 29 30
M  V30 30 1 30 31
M  V30 31 2 31 32
M  V30 32 1 32 33
M  V30 33 2 33 34
M  V30 34 2 14 35
M  V30 35 1 35 10
M  V30 36 1 34 15
M  V30 37 1 27 19
M  V30 38 1 33 28
M  V30 39 1 26 22
M  V30 40 1 1 36
M  V30 41 1 1 37
M  V30 42 1 1 38
M  V30 43 1 3 39
M  V30 44 1 3 40
M  V30 45 1 4 41
M  V30 46 1 4 42
M  V30 47 1 5 43
M  V30 48 1 8 44
M  V30 49 1 8 45
M  V30 50 1 11 46
M  V30 51 1 12 47
M  V30 52 1 13 48
M  V30 53 1 18 49
M  V30 54 1 20 50
M  V30 55 1 21 51
M  V30 56 1 23 52
M  V30 57 1 25 53
M  V30 58 1 27 54
M  V30 59 1 29 55
M  V30 60 1 30 56
M  V30 61 1 31 57
M  V30 62 1 32 58
M  V30 63 1 35 59
M  V30 END BOND
M  V30 END CTAB
M  END
>  <Dataset>  (180) 
ChEMBL_Kinases

>  <Ligand_Instance>  (180) 
nan

>  <PDB_ID>  (180) 
nan

>  <Standardized_SMILES>  (180) 
COCCNC(=O)COc1cccc(-c2nc(Nc3ccc4[nH]ncc4c3)c3ccccc3n2)c1

>  <Name>  (180) 
nan

>  <Pocket>  (180) 
nan

>  <ATP_Site>  (180) 
nan

>  <Peripheral>  (180) 
nan

>  <Num_H_Atoms_ProtBoundConf>  (180) 
nan

>  <Num_Resolved_Atoms>  (180) 
nan

>  <Num_Not_Resolved_Atoms>  (180) 
nan

$$$$
CHEMBL3665858
     RDKit          3D

  0  0  0  0  0  0  0  0  0  0999 V3000
M  V30 BEGIN CTAB
M  V30 COUNTS 44 47 0 0 0
M  V30 BEGIN ATOM
M  V30 1 C 0.518073 -5.323348 1.087230 0
M  V30 2 O -0.458592 -5.032913 0.146134 0
M  V30 3 C -0.638814 -3.877592 -0.572666 0
M  V30 4 C 0.062927 -2.694697 -0.579802 0
M  V30 5 C -0.294310 -1.625553 -1.403338 0
M  V30 6 C 0.502996 -0.408207 -1.337546 0
M  V30 7 C 0.689051 0.403360 -2.434286 0
M  V30 8 C 1.435655 1.564304 -2.406171 0
M  V30 9 C 2.041833 1.953071 -1.212557 0
M  V30 10 N 2.807854 3.063703 -1.033306 0
M  V30 11 C 3.332556 3.306804 0.182917 0
M  V30 12 N 3.168024 2.535363 1.272321 0
M  V30 13 C 2.408444 1.416460 1.133863 0
M  V30 14 N 2.202998 0.575967 2.279610 0
M  V30 15 C 1.152643 1.012305 3.168816 0
M  V30 16 C 0.802207 0.196899 4.241068 0
M  V30 17 C -0.200843 0.636293 5.089971 0
M  V30 18 C -0.886682 1.845609 4.942756 0
M  V30 19 Cl -2.133114 2.346412 6.039106 0
M  V30 20 C -0.484687 2.582842 3.870699 0
M  V30 21 O -1.111736 3.797230 3.650820 0
M  V30 22 C 0.496989 2.209989 2.993391 0
M  V30 23 C 1.865710 1.153159 -0.103854 0
M  V30 24 C 1.106638 -0.014400 -0.162177 0
M  V30 25 C -1.389029 -1.784136 -2.228656 0
M  V30 26 C -2.106456 -2.991072 -2.222016 0
M  V30 27 C -1.737349 -4.062904 -1.386046 0
M  V30 28 O -2.664163 -5.052580 -1.657607 0
M  V30 29 H 1.271992 -6.000118 0.600836 0
M  V30 30 H 0.018018 -5.887019 1.925006 0
M  V30 31 H 1.020349 -4.441910 1.510591 0
M  V30 32 H 0.883184 -2.699171 0.096841 0
M  V30 33 H 0.246898 0.165695 -3.390477 0
M  V30 34 H 1.607093 2.229178 -3.246254 0
M  V30 35 H 3.942893 4.203252 0.294633 0
M  V30 36 H 2.733562 -0.289377 2.504512 0
M  V30 37 H 1.273881 -0.751100 4.434289 0
M  V30 38 H -0.465765 -0.017254 5.925793 0
M  V30 39 H -1.494769 3.994926 2.724743 0
M  V30 40 H 0.763704 2.849760 2.158477 0
M  V30 41 H 0.957822 -0.655772 0.692682 0
M  V30 42 H -1.581536 -0.909121 -2.821916 0
M  V30 43 H -2.916940 -2.872139 -2.948503 0
M  V30 44 H -3.351323 -5.323017 -0.942340 0
M  V30 END ATOM
M  V30 BEGIN BOND
M  V30 1 1 1 2
M  V30 2 1 2 3
M  V30 3 2 3 4
M  V30 4 1 4 5
M  V30 5 1 5 6
M  V30 6 2 6 7
M  V30 7 1 7 8
M  V30 8 2 8 9
M  V30 9 1 9 10
M  V30 10 2 10 11
M  V30 11 1 11 12
M  V30 12 2 12 13
M  V30 13 1 13 14
M  V30 14 1 14 15
M  V30 15 2 15 16
M  V30 16 1 16 17
M  V30 17 2 17 18
M  V30 18 1 18 19
M  V30 19 1 18 20
M  V30 20 1 20 21
M  V30 21 2 20 22
M  V30 22 1 13 23
M  V30 23 2 23 24
M  V30 24 2 5 25
M  V30 25 1 25 26
M  V30 26 2 26 27
M  V30 27 1 27 28
M  V30 28 1 27 3
M  V30 29 1 24 6
M  V30 30 1 23 9
M  V30 31 1 22 15
M  V30 32 1 1 29
M  V30 33 1 1 30
M  V30 34 1 1 31
M  V30 35 1 4 32
M  V30 36 1 7 33
M  V30 37 1 8 34
M  V30 38 1 11 35
M  V30 39 1 14 36
M  V30 40 1 16 37
M  V30 41 1 17 38
M  V30 42 1 21 39
M  V30 43 1 22 40
M  V30 44 1 24 41
M  V30 45 1 25 42
M  V30 46 1 26 43
M  V30 47 1 28 44
M  V30 END BOND
M  V30 END CTAB
M  END
>  <Dataset>  (181) 
ChEMBL_Kinases

>  <Ligand_Instance>  (181) 
nan

>  <PDB_ID>  (181) 
nan

>  <Standardized_SMILES>  (181) 
COc1cc(-c2ccc3ncnc(Nc4ccc(Cl)c(O)c4)c3c2)ccc1O

>  <Name>  (181) 
nan

>  <Pocket>  (181) 
nan

>  <ATP_Site>  (181) 
nan

>  <Peripheral>  (181) 
nan

>  <Num_H_Atoms_ProtBoundConf>  (181) 
nan

>  <Num_Resolved_Atoms>  (181) 
nan

>  <Num_Not_Resolved_Atoms>  (181) 
nan

$$$$
CHEMBL3663757
     RDKit          3D

  0  0  0  0  0  0  0  0  0  0999 V3000
M  V30 BEGIN CTAB
M  V30 COUNTS 66 70 0 0 0
M  V30 BEGIN ATOM
M  V30 1 C 1.326421 -0.905638 3.414490 0
M  V30 2 C 2.553716 -1.458759 2.739928 0
M  V30 3 C 2.174326 -2.740343 2.070308 0
M  V30 4 S 3.386051 -0.297918 1.721026 0
M  V30 5 O 4.648665 -1.010182 1.222375 0
M  V30 6 O 3.927466 0.827342 2.586951 0
M  V30 7 N 2.520213 0.286780 0.396283 0
M  V30 8 C 2.167935 -0.716727 -0.529979 0
M  V30 9 C 1.681005 -0.230804 -1.854556 0
M  V30 10 C 2.106783 1.116640 -2.305234 0
M  V30 11 C 2.169213 2.102288 -1.179568 0
M  V30 12 C 0.874311 2.484914 -0.620149 0
M  V30 13 C -0.152910 1.721130 -0.128406 0
M  V30 14 C -1.204033 2.499097 0.335138 0
M  V30 15 C -2.440336 2.192780 0.924462 0
M  V30 16 C -2.841192 0.806960 1.130105 0
M  V30 17 N -3.022802 -0.219265 0.278640 0
M  V30 18 C -3.366318 -1.453299 0.614785 0
M  V30 19 N -3.512471 -2.337058 -0.475205 0
M  V30 20 C -2.938505 -3.116745 -1.519126 0
M  V30 21 C -1.915797 -4.054679 -1.005772 0
M  V30 22 C -0.611779 -3.577711 -1.008405 0
M  V30 23 C 0.484675 -4.299813 -0.573658 0
M  V30 24 C 0.221789 -5.583804 -0.111566 0
M  V30 25 C -1.065727 -6.097889 -0.092445 0
M  V30 26 C -2.123059 -5.330266 -0.538701 0
M  V30 27 C -3.570458 -1.780036 1.924626 0
M  V30 28 C -3.412950 -0.795889 2.906947 0
M  V30 29 C -3.047434 0.475535 2.441167 0
M  V30 30 Cl -2.879623 1.627174 3.755197 0
M  V30 31 C -3.222871 3.273793 1.268360 0
M  V30 32 C -2.805539 4.585694 1.041324 0
M  V30 33 N -1.604732 4.828860 0.470333 0
M  V30 34 C -0.801978 3.815106 0.115848 0
M  V30 35 N 0.422879 3.741383 -0.446036 0
M  V30 36 C 3.080908 1.479716 -0.127566 0
M  V30 37 H 0.483075 -0.768806 2.707876 0
M  V30 38 H 0.985639 -1.666269 4.146433 0
M  V30 39 H 1.537684 0.020430 3.997405 0
M  V30 40 H 3.269036 -1.730373 3.573745 0
M  V30 41 H 2.771975 -3.001803 1.188592 0
M  V30 42 H 2.237087 -3.566152 2.845798 0
M  V30 43 H 1.076053 -2.678191 1.814149 0
M  V30 44 H 2.953969 -1.508539 -0.669106 0
M  V30 45 H 1.291039 -1.277760 -0.071062 0
M  V30 46 H 0.579844 -0.356985 -2.017546 0
M  V30 47 H 2.111181 -0.950817 -2.626770 0
M  V30 48 H 3.083690 1.105411 -2.845729 0
M  V30 49 H 1.301851 1.518697 -2.999214 0
M  V30 50 H 2.712040 3.010698 -1.518344 0
M  V30 51 H -0.237913 0.668716 -0.060262 0
M  V30 52 H -4.577574 -2.395297 -0.430285 0
M  V30 53 H -3.735384 -3.688591 -2.084560 0
M  V30 54 H -2.486543 -2.414745 -2.268780 0
M  V30 55 H -0.383396 -2.577561 -1.364739 0
M  V30 56 H 1.486595 -3.859356 -0.607871 0
M  V30 57 H 1.062265 -6.180564 0.238241 0
M  V30 58 H -1.263410 -7.092568 0.266106 0
M  V30 59 H -3.165615 -5.660704 -0.556967 0
M  V30 60 H -3.851829 -2.797000 2.179724 0
M  V30 61 H -3.576741 -1.060238 3.927451 0
M  V30 62 H -4.183732 3.106821 1.728388 0
M  V30 63 H -3.468740 5.398918 1.337375 0
M  V30 64 H 0.931104 4.627387 -0.702374 0
M  V30 65 H 4.004173 1.191296 -0.704989 0
M  V30 66 H 3.403516 2.151277 0.652630 0
M  V30 END ATOM
M  V30 BEGIN BOND
M  V30 1 1 1 2
M  V30 2 1 2 3
M  V30 3 1 2 4
M  V30 4 2 4 5
M  V30 5 2 4 6
M  V30 6 1 4 7
M  V30 7 1 7 8
M  V30 8 1 8 9
M  V30 9 1 9 10
M  V30 10 1 10 11
M  V30 11 1 11 12
M  V30 12 2 12 13
M  V30 13 1 13 14
M  V30 14 2 14 15
M  V30 15 1 15 16
M  V30 16 2 16 17
M  V30 17 1 17 18
M  V30 18 1 18 19
M  V30 19 1 19 20
M  V30 20 1 20 21
M  V30 21 2 21 22
M  V30 22 1 22 23
M  V30 23 2 23 24
M  V30 24 1 24 25
M  V30 25 2 25 26
M  V30 26 2 18 27
M  V30 27 1 27 28
M  V30 28 2 28 29
M  V30 29 1 29 30
M  V30 30 1 15 31
M  V30 31 2 31 32
M  V30 32 1 32 33
M  V30 33 2 33 34
M  V30 34 1 34 35
M  V30 35 1 11 36
M  V30 36 1 36 7
M  V30 37 1 35 12
M  V30 38 1 34 14
M  V30 39 1 29 16
M  V30 40 1 26 21
M  V30 41 1 1 37
M  V30 42 1 1 38
M  V30 43 1 1 39
M  V30 44 1 2 40
M  V30 45 1 3 41
M  V30 46 1 3 42
M  V30 47 1 3 43
M  V30 48 1 8 44
M  V30 49 1 8 45
M  V30 50 1 9 46
M  V30 51 1 9 47
M  V30 52 1 10 48
M  V30 53 1 10 49
M  V30 54 1 11 50
M  V30 55 1 13 51
M  V30 56 1 19 52
M  V30 57 1 20 53
M  V30 58 1 20 54
M  V30 59 1 22 55
M  V30 60 1 23 56
M  V30 61 1 24 57
M  V30 62 1 25 58
M  V30 63 1 26 59
M  V30 64 1 27 60
M  V30 65 1 28 61
M  V30 66 1 31 62
M  V30 67 1 32 63
M  V30 68 1 35 64
M  V30 69 1 36 65
M  V30 70 1 36 66
M  V30 END BOND
M  V30 END CTAB
M  END
>  <Dataset>  (182) 
ChEMBL_Kinases

>  <Ligand_Instance>  (182) 
nan

>  <PDB_ID>  (182) 
nan

>  <Standardized_SMILES>  (182) 
CC(C)S(=O)(=O)N1CCCC(c2cc3c(-c4nc(NCc5ccccc5)ccc4Cl)ccnc3[nH]2)C1

>  <Name>  (182) 
nan

>  <Pocket>  (182) 
nan

>  <ATP_Site>  (182) 
nan

>  <Peripheral>  (182) 
nan

>  <Num_H_Atoms_ProtBoundConf>  (182) 
nan

>  <Num_Resolved_Atoms>  (182) 
nan

>  <Num_Not_Resolved_Atoms>  (182) 
nan

$$$$
CHEMBL3663756
     RDKit          3D

  0  0  0  0  0  0  0  0  0  0999 V3000
M  V30 BEGIN CTAB
M  V30 COUNTS 58 62 0 0 0
M  V30 BEGIN ATOM
M  V30 1 C -2.336041 2.678312 -1.240594 0
M  V30 2 O -1.950202 1.653523 -0.387504 0
M  V30 3 C -0.690094 1.276172 -0.013895 0
M  V30 4 C 0.480805 1.874568 -0.427951 0
M  V30 5 C 1.718874 1.438084 -0.007429 0
M  V30 6 C 1.725324 0.348511 0.866961 0
M  V30 7 N 3.023521 -0.060980 1.287798 0
M  V30 8 C 3.495788 0.699110 2.409243 0
M  V30 9 C 3.670969 2.154033 2.132771 0
M  V30 10 C 4.918198 2.559836 1.651613 0
M  V30 11 C 5.192250 3.886158 1.395711 0
M  V30 12 C 4.202500 4.836458 1.623638 0
M  V30 13 C 2.955657 4.455318 2.101564 0
M  V30 14 C 2.686738 3.106411 2.357393 0
M  V30 15 N 0.582268 -0.227212 1.263723 0
M  V30 16 C -0.629252 0.183306 0.867057 0
M  V30 17 C -1.768854 -0.567603 1.400921 0
M  V30 18 C -2.598043 0.186458 2.221119 0
M  V30 19 C -3.648392 -0.530368 2.774780 0
M  V30 20 N -3.893242 -1.831024 2.572688 0
M  V30 21 C -3.094257 -2.569912 1.776373 0
M  V30 22 N -3.022674 -3.827805 1.328446 0
M  V30 23 C -1.999204 -4.054460 0.498725 0
M  V30 24 C -1.765749 -5.362048 -0.094017 0
M  V30 25 C -2.667782 -5.630141 -1.294550 0
M  V30 26 C -2.450200 -4.609264 -2.376438 0
M  V30 27 C -1.055202 -4.145281 -2.512988 0
M  V30 28 N -0.108410 -4.463793 -1.532928 0
M  V30 29 C -0.351737 -5.482252 -0.583205 0
M  V30 30 C -1.368752 -2.810773 0.424177 0
M  V30 31 C -2.040079 -1.901631 1.206629 0
M  V30 32 H -2.836335 2.183379 -2.114809 0
M  V30 33 H -3.102476 3.324286 -0.784320 0
M  V30 34 H -1.432158 3.232956 -1.567697 0
M  V30 35 H 0.445538 2.700231 -1.092787 0
M  V30 36 H 2.613978 1.929804 -0.349243 0
M  V30 37 H 3.533308 -0.842048 0.792218 0
M  V30 38 H 2.767300 0.612702 3.276884 0
M  V30 39 H 4.466737 0.337076 2.815693 0
M  V30 40 H 5.724188 1.834389 1.459211 0
M  V30 41 H 6.125787 4.279946 1.024793 0
M  V30 42 H 4.302592 5.898257 1.463690 0
M  V30 43 H 2.154480 5.155561 2.293324 0
M  V30 44 H 1.716974 2.782307 2.730929 0
M  V30 45 H -2.535274 1.232616 2.481947 0
M  V30 46 H -4.372135 -0.073070 3.433671 0
M  V30 47 H -3.778997 -4.475015 1.690890 0
M  V30 48 H -1.977215 -6.188467 0.613148 0
M  V30 49 H -3.708230 -5.554310 -0.942862 0
M  V30 50 H -2.485479 -6.662486 -1.625693 0
M  V30 51 H -3.178854 -3.757841 -2.211514 0
M  V30 52 H -2.773386 -5.066913 -3.336211 0
M  V30 53 H -1.107153 -3.006768 -2.552934 0
M  V30 54 H -0.605025 -4.382779 -3.518516 0
M  V30 55 H 0.850305 -4.334298 -1.871370 0
M  V30 56 H -0.160812 -6.510030 -1.020148 0
M  V30 57 H 0.375997 -5.335901 0.264033 0
M  V30 58 H -0.493772 -2.613142 -0.154893 0
M  V30 END ATOM
M  V30 BEGIN BOND
M  V30 1 1 1 2
M  V30 2 1 2 3
M  V30 3 2 3 4
M  V30 4 1 4 5
M  V30 5 2 5 6
M  V30 6 1 6 7
M  V30 7 1 7 8
M  V30 8 1 8 9
M  V30 9 2 9 10
M  V30 10 1 10 11
M  V30 11 2 11 12
M  V30 12 1 12 13
M  V30 13 2 13 14
M  V30 14 1 6 15
M  V30 15 2 15 16
M  V30 16 1 16 17
M  V30 17 2 17 18
M  V30 18 1 18 19
M  V30 19 2 19 20
M  V30 20 1 20 21
M  V30 21 1 21 22
M  V30 22 1 22 23
M  V30 23 1 23 24
M  V30 24 1 24 25
M  V30 25 1 25 26
M  V30 26 1 26 27
M  V30 27 1 27 28
M  V30 28 1 28 29
M  V30 29 2 23 30
M  V30 30 1 30 31
M  V30 31 1 16 3
M  V30 32 1 31 17
M  V30 33 1 14 9
M  V30 34 2 31 21
M  V30 35 1 29 24
M  V30 36 1 1 32
M  V30 37 1 1 33
M  V30 38 1 1 34
M  V30 39 1 4 35
M  V30 40 1 5 36
M  V30 41 1 7 37
M  V30 42 1 8 38
M  V30 43 1 8 39
M  V30 44 1 10 40
M  V30 45 1 11 41
M  V30 46 1 12 42
M  V30 47 1 13 43
M  V30 48 1 14 44
M  V30 49 1 18 45
M  V30 50 1 19 46
M  V30 51 1 22 47
M  V30 52 1 24 48
M  V30 53 1 25 49
M  V30 54 1 25 50
M  V30 55 1 26 51
M  V30 56 1 26 52
M  V30 57 1 27 53
M  V30 58 1 27 54
M  V30 59 1 28 55
M  V30 60 1 29 56
M  V30 61 1 29 57
M  V30 62 1 30 58
M  V30 END BOND
M  V30 END CTAB
M  END
>  <Dataset>  (183) 
ChEMBL_Kinases

>  <Ligand_Instance>  (183) 
nan

>  <PDB_ID>  (183) 
nan

>  <Standardized_SMILES>  (183) 
COc1ccc(NCc2ccccc2)nc1-c1ccnc2[nH]c(C3CCCNC3)cc12

>  <Name>  (183) 
nan

>  <Pocket>  (183) 
nan

>  <ATP_Site>  (183) 
nan

>  <Peripheral>  (183) 
nan

>  <Num_H_Atoms_ProtBoundConf>  (183) 
nan

>  <Num_Resolved_Atoms>  (183) 
nan

>  <Num_Not_Resolved_Atoms>  (183) 
nan

$$$$
CHEMBL3663755
     RDKit          3D

  0  0  0  0  0  0  0  0  0  0999 V3000
M  V30 BEGIN CTAB
M  V30 COUNTS 57 61 0 0 0
M  V30 BEGIN ATOM
M  V30 1 C -0.021450 -3.633586 1.949017 0
M  V30 2 N 1.183913 -2.850485 2.136248 0
M  V30 3 C 1.369034 -2.406692 3.480542 0
M  V30 4 C 2.860258 -2.196969 3.705593 0
M  V30 5 C 3.440233 -1.484698 2.472764 0
M  V30 6 C 3.324176 -2.317367 1.249991 0
M  V30 7 C 2.895611 -1.585250 0.047664 0
M  V30 8 C 1.851144 -0.722175 -0.185795 0
M  V30 9 C 1.844291 -0.269390 -1.493020 0
M  V30 10 C 1.070121 0.570254 -2.251505 0
M  V30 11 C -0.076334 1.223316 -1.643534 0
M  V30 12 C -0.888621 2.047891 -2.428956 0
M  V30 13 C -2.000347 2.709019 -1.966433 0
M  V30 14 C -2.370930 2.567104 -0.624314 0
M  V30 15 C -1.531706 1.733438 0.126394 0
M  V30 16 N -1.938930 1.610895 1.485192 0
M  V30 17 C -2.417054 0.324477 2.010576 0
M  V30 18 C -3.487369 -0.245316 1.173182 0
M  V30 19 C -3.053473 -1.159873 0.226282 0
M  V30 20 C -4.011783 -1.713995 -0.588017 0
M  V30 21 C -5.362018 -1.439595 -0.542314 0
M  V30 22 C -5.803861 -0.514563 0.414121 0
M  V30 23 C -4.831328 0.043230 1.234375 0
M  V30 24 N -0.450990 1.105935 -0.369124 0
M  V30 25 C 1.431957 0.740566 -3.545296 0
M  V30 26 C 2.515711 0.128223 -4.130672 0
M  V30 27 N 3.278638 -0.698500 -3.384177 0
M  V30 28 C 2.929169 -0.886220 -2.068578 0
M  V30 29 N 3.526083 -1.651609 -1.142207 0
M  V30 30 C 2.331727 -3.432453 1.520285 0
M  V30 31 H -0.333094 -3.506181 0.887604 0
M  V30 32 H 0.104971 -4.715503 2.134710 0
M  V30 33 H -0.818938 -3.158002 2.558140 0
M  V30 34 H 0.964715 -3.073868 4.260618 0
M  V30 35 H 0.923616 -1.374218 3.546509 0
M  V30 36 H 3.416474 -3.116663 3.888813 0
M  V30 37 H 3.035982 -1.451893 4.535023 0
M  V30 38 H 4.505040 -1.272968 2.714395 0
M  V30 39 H 2.901920 -0.521732 2.440868 0
M  V30 40 H 4.344184 -2.787005 1.043712 0
M  V30 41 H 1.125525 -0.432561 0.554333 0
M  V30 42 H -0.732505 2.255786 -3.477620 0
M  V30 43 H -2.635841 3.354430 -2.568567 0
M  V30 44 H -3.226548 3.060912 -0.214934 0
M  V30 45 H -1.913129 2.424700 2.164118 0
M  V30 46 H -1.566334 -0.377421 2.121647 0
M  V30 47 H -2.832423 0.477787 3.047872 0
M  V30 48 H -2.008779 -1.441616 0.114248 0
M  V30 49 H -3.680337 -2.442933 -1.341939 0
M  V30 50 H -6.125818 -1.853749 -1.160495 0
M  V30 51 H -6.815841 -0.180636 0.591757 0
M  V30 52 H -5.127746 0.772174 2.000407 0
M  V30 53 H 0.897176 1.377464 -4.224462 0
M  V30 54 H 2.840050 0.229827 -5.145950 0
M  V30 55 H 4.381524 -2.225377 -1.338289 0
M  V30 56 H 2.012466 -3.888307 0.547654 0
M  V30 57 H 2.819833 -4.241811 2.142633 0
M  V30 END ATOM
M  V30 BEGIN BOND
M  V30 1 1 1 2
M  V30 2 1 2 3
M  V30 3 1 3 4
M  V30 4 1 4 5
M  V30 5 1 5 6
M  V30 6 1 6 7
M  V30 7 2 7 8
M  V30 8 1 8 9
M  V30 9 2 9 10
M  V30 10 1 10 11
M  V30 11 2 11 12
M  V30 12 1 12 13
M  V30 13 2 13 14
M  V30 14 1 14 15
M  V30 15 1 15 16
M  V30 16 1 16 17
M  V30 17 1 17 18
M  V30 18 2 18 19
M  V30 19 1 19 20
M  V30 20 2 20 21
M  V30 21 1 21 22
M  V30 22 2 22 23
M  V30 23 2 15 24
M  V30 24 1 10 25
M  V30 25 2 25 26
M  V30 26 1 26 27
M  V30 27 2 27 28
M  V30 28 1 28 29
M  V30 29 1 6 30
M  V30 30 1 30 2
M  V30 31 1 29 7
M  V30 32 1 28 9
M  V30 33 1 24 11
M  V30 34 1 23 18
M  V30 35 1 1 31
M  V30 36 1 1 32
M  V30 37 1 1 33
M  V30 38 1 3 34
M  V30 39 1 3 35
M  V30 40 1 4 36
M  V30 41 1 4 37
M  V30 42 1 5 38
M  V30 43 1 5 39
M  V30 44 1 6 40
M  V30 45 1 8 41
M  V30 46 1 12 42
M  V30 47 1 13 43
M  V30 48 1 14 44
M  V30 49 1 16 45
M  V30 50 1 17 46
M  V30 51 1 17 47
M  V30 52 1 19 48
M  V30 53 1 20 49
M  V30 54 1 21 50
M  V30 55 1 22 51
M  V30 56 1 23 52
M  V30 57 1 25 53
M  V30 58 1 26 54
M  V30 59 1 29 55
M  V30 60 1 30 56
M  V30 61 1 30 57
M  V30 END BOND
M  V30 END CTAB
M  END
>  <Dataset>  (184) 
ChEMBL_Kinases

>  <Ligand_Instance>  (184) 
nan

>  <PDB_ID>  (184) 
nan

>  <Standardized_SMILES>  (184) 
CN1CCCC(c2cc3c(-c4cccc(NCc5ccccc5)n4)ccnc3[nH]2)C1

>  <Name>  (184) 
nan

>  <Pocket>  (184) 
nan

>  <ATP_Site>  (184) 
nan

>  <Peripheral>  (184) 
nan

>  <Num_H_Atoms_ProtBoundConf>  (184) 
nan

>  <Num_Resolved_Atoms>  (184) 
nan

>  <Num_Not_Resolved_Atoms>  (184) 
nan

$$$$
CHEMBL3663754
     RDKit          3D

  0  0  0  0  0  0  0  0  0  0999 V3000
M  V30 BEGIN CTAB
M  V30 COUNTS 57 61 0 0 0
M  V30 BEGIN ATOM
M  V30 1 C 1.362274 -2.829619 3.721312 0
M  V30 2 N 2.735705 -2.466056 3.647886 0
M  V30 3 C 3.091963 -1.181254 4.132698 0
M  V30 4 C 2.842124 -0.077435 3.164802 0
M  V30 5 C 3.250165 -0.340978 1.747845 0
M  V30 6 C 3.259585 -1.749718 1.329255 0
M  V30 7 C 2.091042 -2.198087 0.532005 0
M  V30 8 C 0.770887 -1.873660 0.658362 0
M  V30 9 C -0.014034 -2.541354 -0.283296 0
M  V30 10 C -1.365439 -2.596753 -0.592604 0
M  V30 11 C -2.283452 -1.749922 0.174118 0
M  V30 12 N -1.945905 -0.451209 0.020823 0
M  V30 13 C -2.663434 0.489609 0.661670 0
M  V30 14 N -2.401740 1.886579 0.540919 0
M  V30 15 C -1.428423 2.495108 -0.298583 0
M  V30 16 C -1.606083 2.284475 -1.753569 0
M  V30 17 C -1.065878 1.295663 -2.539491 0
M  V30 18 C -1.354087 1.274970 -3.880730 0
M  V30 19 C -2.155256 2.170859 -4.550124 0
M  V30 20 C -2.701056 3.174581 -3.733112 0
M  V30 21 C -2.434034 3.229697 -2.374735 0
M  V30 22 C -3.713516 0.042969 1.445808 0
M  V30 23 C -4.063296 -1.274886 1.607128 0
M  V30 24 C -3.320618 -2.226964 0.943828 0
M  V30 25 Cl -3.598328 -3.952545 1.008653 0
M  V30 26 C -1.815238 -3.415773 -1.625822 0
M  V30 27 C -0.854327 -4.140801 -2.296788 0
M  V30 28 N 0.468151 -4.094629 -2.005352 0
M  V30 29 C 0.893865 -3.291880 -0.993680 0
M  V30 30 N 2.113884 -3.081752 -0.508505 0
M  V30 31 C 3.423226 -2.750908 2.445124 0
M  V30 32 H 1.137122 -3.612853 2.944398 0
M  V30 33 H 1.158363 -3.284291 4.736400 0
M  V30 34 H 0.648700 -2.009515 3.634768 0
M  V30 35 H 2.461896 -0.975425 5.039386 0
M  V30 36 H 4.130780 -1.216020 4.528860 0
M  V30 37 H 1.754553 0.206599 3.234546 0
M  V30 38 H 3.376039 0.822104 3.565090 0
M  V30 39 H 4.238022 0.173940 1.592118 0
M  V30 40 H 2.540918 0.231909 1.113184 0
M  V30 41 H 4.164538 -1.931600 0.673502 0
M  V30 42 H 0.381299 -1.180525 1.401385 0
M  V30 43 H -3.007241 2.518467 1.148606 0
M  V30 44 H -0.392677 2.132448 -0.052603 0
M  V30 45 H -1.388051 3.583885 -0.085489 0
M  V30 46 H -0.428598 0.576583 -2.053952 0
M  V30 47 H -0.922273 0.488490 -4.511972 0
M  V30 48 H -2.398797 2.183429 -5.596000 0
M  V30 49 H -3.351853 3.914098 -4.227869 0
M  V30 50 H -2.921145 4.054012 -1.872772 0
M  V30 51 H -4.322295 0.762359 1.984907 0
M  V30 52 H -4.882903 -1.622742 2.219203 0
M  V30 53 H -2.868530 -3.444033 -1.847471 0
M  V30 54 H -1.176397 -4.798652 -3.120870 0
M  V30 55 H 3.007317 -3.513007 -0.845706 0
M  V30 56 H 4.512662 -2.873571 2.682018 0
M  V30 57 H 3.091841 -3.758169 2.061575 0
M  V30 END ATOM
M  V30 BEGIN BOND
M  V30 1 1 1 2
M  V30 2 1 2 3
M  V30 3 1 3 4
M  V30 4 1 4 5
M  V30 5 1 5 6
M  V30 6 1 6 7
M  V30 7 2 7 8
M  V30 8 1 8 9
M  V30 9 2 9 10
M  V30 10 1 10 11
M  V30 11 2 11 12
M  V30 12 1 12 13
M  V30 13 1 13 14
M  V30 14 1 14 15
M  V30 15 1 15 16
M  V30 16 2 16 17
M  V30 17 1 17 18
M  V30 18 2 18 19
M  V30 19 1 19 20
M  V30 20 2 20 21
M  V30 21 2 13 22
M  V30 22 1 22 23
M  V30 23 2 23 24
M  V30 24 1 24 25
M  V30 25 1 10 26
M  V30 26 2 26 27
M  V30 27 1 27 28
M  V30 28 2 28 29
M  V30 29 1 29 30
M  V30 30 1 6 31
M  V30 31 1 31 2
M  V30 32 1 30 7
M  V30 33 1 29 9
M  V30 34 1 24 11
M  V30 35 1 21 16
M  V30 36 1 1 32
M  V30 37 1 1 33
M  V30 38 1 1 34
M  V30 39 1 3 35
M  V30 40 1 3 36
M  V30 41 1 4 37
M  V30 42 1 4 38
M  V30 43 1 5 39
M  V30 44 1 5 40
M  V30 45 1 6 41
M  V30 46 1 8 42
M  V30 47 1 14 43
M  V30 48 1 15 44
M  V30 49 1 15 45
M  V30 50 1 17 46
M  V30 51 1 18 47
M  V30 52 1 19 48
M  V30 53 1 20 49
M  V30 54 1 21 50
M  V30 55 1 22 51
M  V30 56 1 23 52
M  V30 57 1 26 53
M  V30 58 1 27 54
M  V30 59 1 30 55
M  V30 60 1 31 56
M  V30 61 1 31 57
M  V30 END BOND
M  V30 END CTAB
M  END
>  <Dataset>  (185) 
ChEMBL_Kinases

>  <Ligand_Instance>  (185) 
nan

>  <PDB_ID>  (185) 
nan

>  <Standardized_SMILES>  (185) 
CN1CCCC(c2cc3c(-c4nc(NCc5ccccc5)ccc4Cl)ccnc3[nH]2)C1

>  <Name>  (185) 
nan

>  <Pocket>  (185) 
nan

>  <ATP_Site>  (185) 
nan

>  <Peripheral>  (185) 
nan

>  <Num_H_Atoms_ProtBoundConf>  (185) 
nan

>  <Num_Resolved_Atoms>  (185) 
nan

>  <Num_Not_Resolved_Atoms>  (185) 
nan

$$$$
CHEMBL3663753
     RDKit          3D

  0  0  0  0  0  0  0  0  0  0999 V3000
M  V30 BEGIN CTAB
M  V30 COUNTS 54 58 0 0 0
M  V30 BEGIN ATOM
M  V30 1 Cl 0.883320 -1.450546 5.425803 0
M  V30 2 C 1.705513 -0.536747 4.155178 0
M  V30 3 C 2.391630 0.557668 4.639137 0
M  V30 4 C 3.075561 1.351253 3.748437 0
M  V30 5 C 3.068775 1.043069 2.378077 0
M  V30 6 N 3.789953 1.855904 1.471372 0
M  V30 7 C 4.082024 1.781246 0.081718 0
M  V30 8 C 2.845582 1.788963 -0.724608 0
M  V30 9 C 2.200686 0.611161 -1.097760 0
M  V30 10 C 1.050178 0.706366 -1.871258 0
M  V30 11 C 0.546896 1.946815 -2.268276 0
M  V30 12 C 1.180136 3.105450 -1.901479 0
M  V30 13 C 2.322051 2.993492 -1.132604 0
M  V30 14 N 2.380246 -0.036949 1.965335 0
M  V30 15 C 1.707829 -0.828309 2.785429 0
M  V30 16 C 0.895541 -1.996169 2.549107 0
M  V30 17 C 1.362403 -3.159664 3.154776 0
M  V30 18 C 0.700149 -4.368802 2.993807 0
M  V30 19 N -0.426145 -4.476192 2.244237 0
M  V30 20 C -0.883236 -3.356306 1.657536 0
M  V30 21 N -1.943688 -3.096545 0.882006 0
M  V30 22 C -2.012778 -1.779153 0.524583 0
M  V30 23 C -3.019058 -1.097911 -0.313449 0
M  V30 24 C -4.389814 -1.701039 -0.141432 0
M  V30 25 C -4.870740 -2.382964 -1.398692 0
M  V30 26 C -3.855859 -3.320423 -1.987316 0
M  V30 27 N -2.590111 -2.636593 -2.097356 0
M  V30 28 C -2.699451 -1.237996 -1.812565 0
M  V30 29 C -0.911830 -1.144618 1.115272 0
M  V30 30 C -0.250514 -2.140772 1.796437 0
M  V30 31 H 2.438897 0.852771 5.681004 0
M  V30 32 H 3.624391 2.223529 4.114907 0
M  V30 33 H 4.219307 2.730431 1.908898 0
M  V30 34 H 4.686526 0.857847 -0.102773 0
M  V30 35 H 4.708270 2.606056 -0.294680 0
M  V30 36 H 2.606464 -0.336009 -0.786360 0
M  V30 37 H 0.618479 -0.238593 -2.118126 0
M  V30 38 H -0.348638 1.908293 -2.866962 0
M  V30 39 H 0.793618 4.065805 -2.206893 0
M  V30 40 H 2.807353 3.928840 -0.851040 0
M  V30 41 H 2.234735 -3.276370 3.782375 0
M  V30 42 H 1.001468 -5.306204 3.429737 0
M  V30 43 H -2.613741 -3.850215 0.613101 0
M  V30 44 H -3.054654 -0.003270 -0.060812 0
M  V30 45 H -5.150313 -0.958144 0.158312 0
M  V30 46 H -4.394566 -2.510617 0.646175 0
M  V30 47 H -5.241534 -1.653090 -2.129824 0
M  V30 48 H -5.759569 -2.983129 -1.100112 0
M  V30 49 H -3.770470 -4.273441 -1.432908 0
M  V30 50 H -4.186222 -3.617250 -3.024441 0
M  V30 51 H -1.862215 -3.068376 -1.493457 0
M  V30 52 H -3.460296 -0.704389 -2.380579 0
M  V30 53 H -1.690177 -0.803181 -1.945403 0
M  V30 54 H -0.651404 -0.108435 1.047107 0
M  V30 END ATOM
M  V30 BEGIN BOND
M  V30 1 1 1 2
M  V30 2 2 2 3
M  V30 3 1 3 4
M  V30 4 2 4 5
M  V30 5 1 5 6
M  V30 6 1 6 7
M  V30 7 1 7 8
M  V30 8 2 8 9
M  V30 9 1 9 10
M  V30 10 2 10 11
M  V30 11 1 11 12
M  V30 12 2 12 13
M  V30 13 1 5 14
M  V30 14 2 14 15
M  V30 15 1 15 16
M  V30 16 2 16 17
M  V30 17 1 17 18
M  V30 18 2 18 19
M  V30 19 1 19 20
M  V30 20 1 20 21
M  V30 21 1 21 22
M  V30 22 1 22 23
M  V30 23 1 23 24
M  V30 24 1 24 25
M  V30 25 1 25 26
M  V30 26 1 26 27
M  V30 27 1 27 28
M  V30 28 2 22 29
M  V30 29 1 29 30
M  V30 30 1 15 2
M  V30 31 1 30 16
M  V30 32 1 13 8
M  V30 33 2 30 20
M  V30 34 1 28 23
M  V30 35 1 3 31
M  V30 36 1 4 32
M  V30 37 1 6 33
M  V30 38 1 7 34
M  V30 39 1 7 35
M  V30 40 1 9 36
M  V30 41 1 10 37
M  V30 42 1 11 38
M  V30 43 1 12 39
M  V30 44 1 13 40
M  V30 45 1 17 41
M  V30 46 1 18 42
M  V30 47 1 21 43
M  V30 48 1 23 44
M  V30 49 1 24 45
M  V30 50 1 24 46
M  V30 51 1 25 47
M  V30 52 1 25 48
M  V30 53 1 26 49
M  V30 54 1 26 50
M  V30 55 1 27 51
M  V30 56 1 28 52
M  V30 57 1 28 53
M  V30 58 1 29 54
M  V30 END BOND
M  V30 END CTAB
M  END
>  <Dataset>  (186) 
ChEMBL_Kinases

>  <Ligand_Instance>  (186) 
nan

>  <PDB_ID>  (186) 
nan

>  <Standardized_SMILES>  (186) 
Clc1ccc(NCc2ccccc2)nc1-c1ccnc2[nH]c(C3CCCNC3)cc12

>  <Name>  (186) 
nan

>  <Pocket>  (186) 
nan

>  <ATP_Site>  (186) 
nan

>  <Peripheral>  (186) 
nan

>  <Num_H_Atoms_ProtBoundConf>  (186) 
nan

>  <Num_Resolved_Atoms>  (186) 
nan

>  <Num_Not_Resolved_Atoms>  (186) 
nan

$$$$
CHEMBL3663752
     RDKit          3D

  0  0  0  0  0  0  0  0  0  0999 V3000
M  V30 BEGIN CTAB
M  V30 COUNTS 49 52 0 0 0
M  V30 BEGIN ATOM
M  V30 1 C 3.033275 -4.453059 -1.186274 0
M  V30 2 O 2.773277 -3.066624 -1.081190 0
M  V30 3 C 3.693696 -2.326593 -0.346323 0
M  V30 4 C 4.815214 -2.813659 0.276941 0
M  V30 5 C 5.663435 -1.982629 0.983369 0
M  V30 6 C 5.380510 -0.632450 1.066649 0
M  V30 7 F 6.228572 0.164899 1.766379 0
M  V30 8 C 4.239191 -0.145287 0.430715 0
M  V30 9 C 3.392587 -0.998499 -0.279023 0
M  V30 10 C 2.266700 -0.270796 -0.857901 0
M  V30 11 C 2.367512 0.271905 -2.130865 0
M  V30 12 C 1.273729 0.952367 -2.635566 0
M  V30 13 N 0.113850 1.105733 -1.932362 0
M  V30 14 C -0.013788 0.589390 -0.692851 0
M  V30 15 N -0.993475 0.568609 0.228700 0
M  V30 16 C -0.626490 -0.092402 1.341075 0
M  V30 17 C -1.424950 -0.333958 2.581641 0
M  V30 18 C -1.792538 0.891844 3.324606 0
M  V30 19 C -2.883935 1.732777 2.796038 0
M  V30 20 C -3.973564 0.990751 2.076827 0
M  V30 21 N -3.685214 -0.391545 1.865838 0
M  V30 22 C -4.637347 -1.035757 1.029660 0
M  V30 23 C -5.829821 -0.449074 0.392551 0
M  V30 24 O -4.598321 -2.257335 0.696625 0
M  V30 25 C -2.608604 -1.235041 2.348713 0
M  V30 26 C 0.682872 -0.500601 1.059580 0
M  V30 27 C 1.073233 -0.088253 -0.188248 0
M  V30 28 H 3.992344 -4.655856 -1.724990 0
M  V30 29 H 3.160475 -4.816790 -0.134316 0
M  V30 30 H 2.191388 -4.952159 -1.676470 0
M  V30 31 H 5.000187 -3.862795 0.189885 0
M  V30 32 H 6.538326 -2.399302 1.462387 0
M  V30 33 H 4.111041 0.930413 0.559401 0
M  V30 34 H 3.264600 0.163805 -2.697670 0
M  V30 35 H 1.341641 1.385128 -3.639504 0
M  V30 36 H -1.911595 1.029309 0.045819 0
M  V30 37 H -0.745037 -0.927311 3.265898 0
M  V30 38 H -1.973638 0.607417 4.397573 0
M  V30 39 H -0.869720 1.537700 3.384663 0
M  V30 40 H -2.497315 2.567374 2.175505 0
M  V30 41 H -3.360687 2.238274 3.670520 0
M  V30 42 H -4.175519 1.501956 1.115391 0
M  V30 43 H -4.949476 1.025202 2.628916 0
M  V30 44 H -5.942227 0.641225 0.568928 0
M  V30 45 H -5.753465 -0.562590 -0.725440 0
M  V30 46 H -6.746244 -1.006787 0.685804 0
M  V30 47 H -2.912788 -1.616762 3.349026 0
M  V30 48 H -2.383839 -2.058231 1.643848 0
M  V30 49 H 1.284843 -1.071381 1.765121 0
M  V30 END ATOM
M  V30 BEGIN BOND
M  V30 1 1 1 2
M  V30 2 1 2 3
M  V30 3 2 3 4
M  V30 4 1 4 5
M  V30 5 2 5 6
M  V30 6 1 6 7
M  V30 7 1 6 8
M  V30 8 2 8 9
M  V30 9 1 9 10
M  V30 10 2 10 11
M  V30 11 1 11 12
M  V30 12 2 12 13
M  V30 13 1 13 14
M  V30 14 1 14 15
M  V30 15 1 15 16
M  V30 16 1 16 17
M  V30 17 1 17 18
M  V30 18 1 18 19
M  V30 19 1 19 20
M  V30 20 1 20 21
M  V30 21 1 21 22
M  V30 22 1 22 23
M  V30 23 2 22 24
M  V30 24 1 21 25
M  V30 25 2 16 26
M  V30 26 1 26 27
M  V30 27 1 9 3
M  V30 28 1 27 10
M  V30 29 2 27 14
M  V30 30 1 25 17
M  V30 31 1 1 28
M  V30 32 1 1 29
M  V30 33 1 1 30
M  V30 34 1 4 31
M  V30 35 1 5 32
M  V30 36 1 8 33
M  V30 37 1 11 34
M  V30 38 1 12 35
M  V30 39 1 15 36
M  V30 40 1 17 37
M  V30 41 1 18 38
M  V30 42 1 18 39
M  V30 43 1 19 40
M  V30 44 1 19 41
M  V30 45 1 20 42
M  V30 46 1 20 43
M  V30 47 1 23 44
M  V30 48 1 23 45
M  V30 49 1 23 46
M  V30 50 1 25 47
M  V30 51 1 25 48
M  V30 52 1 26 49
M  V30 END BOND
M  V30 END CTAB
M  END
>  <Dataset>  (187) 
ChEMBL_Kinases

>  <Ligand_Instance>  (187) 
nan

>  <PDB_ID>  (187) 
nan

>  <Standardized_SMILES>  (187) 
COc1ccc(F)cc1-c1ccnc2[nH]c(C3CCCN(C(C)=O)C3)cc12

>  <Name>  (187) 
nan

>  <Pocket>  (187) 
nan

>  <ATP_Site>  (187) 
nan

>  <Peripheral>  (187) 
nan

>  <Num_H_Atoms_ProtBoundConf>  (187) 
nan

>  <Num_Resolved_Atoms>  (187) 
nan

>  <Num_Not_Resolved_Atoms>  (187) 
nan

$$$$
CHEMBL3663751
     RDKit          3D

  0  0  0  0  0  0  0  0  0  0999 V3000
M  V30 BEGIN CTAB
M  V30 COUNTS 47 50 0 0 0
M  V30 BEGIN ATOM
M  V30 1 C -1.452532 -2.537961 -2.556945 0
M  V30 2 O -0.540616 -1.539089 -2.113482 0
M  V30 3 C 0.714384 -1.931645 -1.661079 0
M  V30 4 C 1.151468 -3.249614 -1.609064 0
M  V30 5 C 2.415559 -3.552402 -1.145100 0
M  V30 6 C 3.265702 -2.528560 -0.723390 0
M  V30 7 F 4.509466 -2.882649 -0.271905 0
M  V30 8 C 2.842266 -1.202468 -0.769380 0
M  V30 9 C 1.562303 -0.918704 -1.241209 0
M  V30 10 C 1.246483 0.509717 -1.236293 0
M  V30 11 C 1.496426 1.357816 -2.304919 0
M  V30 12 C 1.146416 2.674656 -2.156145 0
M  V30 13 N 0.582018 3.154505 -1.031827 0
M  V30 14 C 0.325098 2.381259 0.013601 0
M  V30 15 N -0.219098 2.584122 1.237379 0
M  V30 16 C -0.252987 1.436320 1.937957 0
M  V30 17 C -0.795192 1.318452 3.334191 0
M  V30 18 C 0.254109 0.773990 4.233895 0
M  V30 19 C 0.070926 -0.614131 4.715790 0
M  V30 20 C -0.740241 -1.525100 3.843751 0
M  V30 21 N -1.854504 -0.917368 3.219194 0
M  V30 22 C -2.263455 -1.468963 1.969950 0
M  V30 23 C -2.020827 0.476129 3.394084 0
M  V30 24 C 0.292252 0.471458 1.121716 0
M  V30 25 C 0.658509 1.041169 -0.081995 0
M  V30 26 H -2.439724 -2.087762 -2.752764 0
M  V30 27 H -1.119995 -3.022553 -3.504016 0
M  V30 28 H -1.607029 -3.320351 -1.780393 0
M  V30 29 H 0.448136 -4.021845 -1.951267 0
M  V30 30 H 2.748587 -4.586363 -1.108132 0
M  V30 31 H 3.538661 -0.447254 -0.431389 0
M  V30 32 H 1.945873 0.877032 -3.147198 0
M  V30 33 H 1.354362 3.312893 -3.008956 0
M  V30 34 H -0.548387 3.550973 1.523745 0
M  V30 35 H -1.113852 2.351720 3.663518 0
M  V30 36 H 1.276404 0.931145 3.778375 0
M  V30 37 H 0.299013 1.435477 5.148980 0
M  V30 38 H 1.095051 -1.088989 4.765434 0
M  V30 39 H -0.292986 -0.661752 5.761024 0
M  V30 40 H -0.145030 -2.109467 3.107169 0
M  V30 41 H -1.160573 -2.327433 4.521057 0
M  V30 42 H -3.134805 -2.148722 2.186088 0
M  V30 43 H -1.489822 -2.131898 1.512427 0
M  V30 44 H -2.605671 -0.682795 1.271085 0
M  V30 45 H -2.797422 0.844229 2.671562 0
M  V30 46 H -2.472001 0.634184 4.406536 0
M  V30 47 H 0.417362 -0.555681 1.369935 0
M  V30 END ATOM
M  V30 BEGIN BOND
M  V30 1 1 1 2
M  V30 2 1 2 3
M  V30 3 2 3 4
M  V30 4 1 4 5
M  V30 5 2 5 6
M  V30 6 1 6 7
M  V30 7 1 6 8
M  V30 8 2 8 9
M  V30 9 1 9 10
M  V30 10 2 10 11
M  V30 11 1 11 12
M  V30 12 2 12 13
M  V30 13 1 13 14
M  V30 14 1 14 15
M  V30 15 1 15 16
M  V30 16 1 16 17
M  V30 17 1 17 18
M  V30 18 1 18 19
M  V30 19 1 19 20
M  V30 20 1 20 21
M  V30 21 1 21 22
M  V30 22 1 21 23
M  V30 23 2 16 24
M  V30 24 1 24 25
M  V30 25 1 9 3
M  V30 26 1 25 10
M  V30 27 2 25 14
M  V30 28 1 23 17
M  V30 29 1 1 26
M  V30 30 1 1 27
M  V30 31 1 1 28
M  V30 32 1 4 29
M  V30 33 1 5 30
M  V30 34 1 8 31
M  V30 35 1 11 32
M  V30 36 1 12 33
M  V30 37 1 15 34
M  V30 38 1 17 35
M  V30 39 1 18 36
M  V30 40 1 18 37
M  V30 41 1 19 38
M  V30 42 1 19 39
M  V30 43 1 20 40
M  V30 44 1 20 41
M  V30 45 1 22 42
M  V30 46 1 22 43
M  V30 47 1 22 44
M  V30 48 1 23 45
M  V30 49 1 23 46
M  V30 50 1 24 47
M  V30 END BOND
M  V30 END CTAB
M  END
>  <Dataset>  (188) 
ChEMBL_Kinases

>  <Ligand_Instance>  (188) 
nan

>  <PDB_ID>  (188) 
nan

>  <Standardized_SMILES>  (188) 
COc1ccc(F)cc1-c1ccnc2[nH]c(C3CCCN(C)C3)cc12

>  <Name>  (188) 
nan

>  <Pocket>  (188) 
nan

>  <ATP_Site>  (188) 
nan

>  <Peripheral>  (188) 
nan

>  <Num_H_Atoms_ProtBoundConf>  (188) 
nan

>  <Num_Resolved_Atoms>  (188) 
nan

>  <Num_Not_Resolved_Atoms>  (188) 
nan

$$$$
CHEMBL3663750
     RDKit          3D

  0  0  0  0  0  0  0  0  0  0999 V3000
M  V30 BEGIN CTAB
M  V30 COUNTS 47 50 0 0 0
M  V30 BEGIN ATOM
M  V30 1 C -1.201167 -2.476551 -2.731499 0
M  V30 2 O -0.363763 -1.463960 -2.197702 0
M  V30 3 C 0.904113 -1.824642 -1.707208 0
M  V30 4 C 1.377352 -3.131786 -1.720829 0
M  V30 5 C 2.625570 -3.448841 -1.231560 0
M  V30 6 F 3.012534 -4.761100 -1.283532 0
M  V30 7 C 3.432102 -2.442695 -0.712263 0
M  V30 8 C 2.968730 -1.126382 -0.692816 0
M  V30 9 C 1.713328 -0.832673 -1.189124 0
M  V30 10 C 1.330590 0.574226 -1.119433 0
M  V30 11 C 1.603676 1.429889 -2.139192 0
M  V30 12 C 1.215480 2.750257 -2.012892 0
M  V30 13 N 0.580479 3.200338 -0.914391 0
M  V30 14 C 0.295910 2.391062 0.105280 0
M  V30 15 N -0.313950 2.514249 1.321481 0
M  V30 16 C -0.334263 1.327087 1.983373 0
M  V30 17 C -0.954969 1.227584 3.345527 0
M  V30 18 C 0.036830 0.688416 4.317216 0
M  V30 19 C -0.211702 -0.686086 4.816627 0
M  V30 20 C -0.889197 -1.607554 3.832802 0
M  V30 21 N -1.995462 -1.013964 3.165278 0
M  V30 22 C -2.288755 -1.527651 1.872850 0
M  V30 23 C -2.184950 0.374826 3.368714 0
M  V30 24 C 0.288914 0.438194 1.138795 0
M  V30 25 C 0.678278 1.084483 -0.015973 0
M  V30 26 H -2.180325 -2.055786 -2.984133 0
M  V30 27 H -0.757198 -2.944388 -3.628653 0
M  V30 28 H -1.377819 -3.290066 -1.979780 0
M  V30 29 H 0.690091 -3.861303 -2.141887 0
M  V30 30 H 4.412891 -2.719587 -0.332478 0
M  V30 31 H 3.631693 -0.376769 -0.278943 0
M  V30 32 H 2.110584 1.111204 -3.037291 0
M  V30 33 H 1.417976 3.454460 -2.805420 0
M  V30 34 H -0.674799 3.481813 1.574422 0
M  V30 35 H -1.268439 2.260419 3.629846 0
M  V30 36 H 1.084156 0.827610 3.926363 0
M  V30 37 H 0.021718 1.360631 5.225699 0
M  V30 38 H 0.791067 -1.163650 5.017379 0
M  V30 39 H -0.771745 -0.714195 5.768202 0
M  V30 40 H -0.178256 -2.137826 3.159029 0
M  V30 41 H -1.325391 -2.447901 4.452303 0
M  V30 42 H -3.201016 -2.168724 1.886671 0
M  V30 43 H -1.478189 -2.153630 1.441052 0
M  V30 44 H -2.510375 -0.715859 1.140964 0
M  V30 45 H -2.963710 0.746144 2.663754 0
M  V30 46 H -2.618143 0.499574 4.398236 0
M  V30 47 H 0.409607 -0.593166 1.426733 0
M  V30 END ATOM
M  V30 BEGIN BOND
M  V30 1 1 1 2
M  V30 2 1 2 3
M  V30 3 2 3 4
M  V30 4 1 4 5
M  V30 5 1 5 6
M  V30 6 2 5 7
M  V30 7 1 7 8
M  V30 8 2 8 9
M  V30 9 1 9 10
M  V30 10 2 10 11
M  V30 11 1 11 12
M  V30 12 2 12 13
M  V30 13 1 13 14
M  V30 14 1 14 15
M  V30 15 1 15 16
M  V30 16 1 16 17
M  V30 17 1 17 18
M  V30 18 1 18 19
M  V30 19 1 19 20
M  V30 20 1 20 21
M  V30 21 1 21 22
M  V30 22 1 21 23
M  V30 23 2 16 24
M  V30 24 1 24 25
M  V30 25 1 9 3
M  V30 26 1 25 10
M  V30 27 2 25 14
M  V30 28 1 23 17
M  V30 29 1 1 26
M  V30 30 1 1 27
M  V30 31 1 1 28
M  V30 32 1 4 29
M  V30 33 1 7 30
M  V30 34 1 8 31
M  V30 35 1 11 32
M  V30 36 1 12 33
M  V30 37 1 15 34
M  V30 38 1 17 35
M  V30 39 1 18 36
M  V30 40 1 18 37
M  V30 41 1 19 38
M  V30 42 1 19 39
M  V30 43 1 20 40
M  V30 44 1 20 41
M  V30 45 1 22 42
M  V30 46 1 22 43
M  V30 47 1 22 44
M  V30 48 1 23 45
M  V30 49 1 23 46
M  V30 50 1 24 47
M  V30 END BOND
M  V30 END CTAB
M  END
>  <Dataset>  (189) 
ChEMBL_Kinases

>  <Ligand_Instance>  (189) 
nan

>  <PDB_ID>  (189) 
nan

>  <Standardized_SMILES>  (189) 
COc1cc(F)ccc1-c1ccnc2[nH]c(C3CCCN(C)C3)cc12

>  <Name>  (189) 
nan

>  <Pocket>  (189) 
nan

>  <ATP_Site>  (189) 
nan

>  <Peripheral>  (189) 
nan

>  <Num_H_Atoms_ProtBoundConf>  (189) 
nan

>  <Num_Resolved_Atoms>  (189) 
nan

>  <Num_Not_Resolved_Atoms>  (189) 
nan

$$$$
CHEMBL3663749
     RDKit          3D

  0  0  0  0  0  0  0  0  0  0999 V3000
M  V30 BEGIN CTAB
M  V30 COUNTS 51 55 0 0 0
M  V30 BEGIN ATOM
M  V30 1 C 1.910878 -3.536831 4.046338 0
M  V30 2 O 1.646955 -2.288890 3.453403 0
M  V30 3 C 2.456627 -1.676126 2.524103 0
M  V30 4 C 3.643248 -2.182702 2.031360 0
M  V30 5 C 4.364364 -1.466754 1.098372 0
M  V30 6 C 3.950567 -0.234746 0.617125 0
M  V30 7 C 4.712777 0.557223 -0.390826 0
M  V30 8 C 3.928147 1.266833 -1.464495 0
M  V30 9 C 4.656806 2.031993 -0.367607 0
M  V30 10 C 2.751453 0.267353 1.121128 0
M  V30 11 C 2.020599 -0.450941 2.062184 0
M  V30 12 C 0.778060 0.246536 2.474776 0
M  V30 13 C 0.694347 1.132132 3.530148 0
M  V30 14 C -0.546108 1.688712 3.770805 0
M  V30 15 N -1.626999 1.394655 3.025912 0
M  V30 16 C -1.590502 0.537356 1.988411 0
M  V30 17 N -2.496528 0.065580 1.087955 0
M  V30 18 C -1.887139 -0.800296 0.243766 0
M  V30 19 C -2.548890 -1.535355 -0.892394 0
M  V30 20 C -3.037941 -0.594143 -1.945382 0
M  V30 21 C -4.499589 -0.327261 -1.963494 0
M  V30 22 C -5.359803 -1.305674 -1.242614 0
M  V30 23 N -4.740527 -2.595735 -1.203260 0
M  V30 24 C -3.572351 -2.474133 -0.359445 0
M  V30 25 C -0.565219 -0.862078 0.638396 0
M  V30 26 C -0.344402 -0.040286 1.723954 0
M  V30 27 H 2.143404 -4.345374 3.354608 0
M  V30 28 H 2.714840 -3.448863 4.824063 0
M  V30 29 H 1.006721 -3.840620 4.625098 0
M  V30 30 H 3.968153 -3.142042 2.404271 0
M  V30 31 H 5.305314 -1.857266 0.700723 0
M  V30 32 H 5.648005 0.096884 -0.741424 0
M  V30 33 H 2.811394 1.243683 -1.446234 0
M  V30 34 H 4.339532 1.426270 -2.464386 0
M  V30 35 H 3.979658 2.603299 0.285860 0
M  V30 36 H 5.576165 2.599595 -0.653553 0
M  V30 37 H 2.439066 1.245200 0.728270 0
M  V30 38 H 1.598534 1.326235 4.089700 0
M  V30 39 H -0.604460 2.385666 4.604049 0
M  V30 40 H -3.506802 0.345298 1.071288 0
M  V30 41 H -1.740794 -2.162441 -1.372857 0
M  V30 42 H -2.521278 0.391641 -1.748541 0
M  V30 43 H -2.670186 -0.867359 -2.967179 0
M  V30 44 H -4.855166 -0.315576 -3.035628 0
M  V30 45 H -4.748160 0.717950 -1.614845 0
M  V30 46 H -6.351361 -1.421336 -1.760891 0
M  V30 47 H -5.551381 -0.918549 -0.228958 0
M  V30 48 H -4.462628 -2.902763 -2.152227 0
M  V30 49 H -3.935900 -2.106955 0.644688 0
M  V30 50 H -3.210018 -3.503615 -0.160046 0
M  V30 51 H 0.176219 -1.492091 0.130193 0
M  V30 END ATOM
M  V30 BEGIN BOND
M  V30 1 1 1 2
M  V30 2 1 2 3
M  V30 3 2 3 4
M  V30 4 1 4 5
M  V30 5 2 5 6
M  V30 6 1 6 7
M  V30 7 1 7 8
M  V30 8 1 8 9
M  V30 9 1 6 10
M  V30 10 2 10 11
M  V30 11 1 11 12
M  V30 12 2 12 13
M  V30 13 1 13 14
M  V30 14 2 14 15
M  V30 15 1 15 16
M  V30 16 1 16 17
M  V30 17 1 17 18
M  V30 18 1 18 19
M  V30 19 1 19 20
M  V30 20 1 20 21
M  V30 21 1 21 22
M  V30 22 1 22 23
M  V30 23 1 23 24
M  V30 24 2 18 25
M  V30 25 1 25 26
M  V30 26 1 11 3
M  V30 27 1 26 12
M  V30 28 1 9 7
M  V30 29 2 26 16
M  V30 30 1 24 19
M  V30 31 1 1 27
M  V30 32 1 1 28
M  V30 33 1 1 29
M  V30 34 1 4 30
M  V30 35 1 5 31
M  V30 36 1 7 32
M  V30 37 1 8 33
M  V30 38 1 8 34
M  V30 39 1 9 35
M  V30 40 1 9 36
M  V30 41 1 10 37
M  V30 42 1 13 38
M  V30 43 1 14 39
M  V30 44 1 17 40
M  V30 45 1 19 41
M  V30 46 1 20 42
M  V30 47 1 20 43
M  V30 48 1 21 44
M  V30 49 1 21 45
M  V30 50 1 22 46
M  V30 51 1 22 47
M  V30 52 1 23 48
M  V30 53 1 24 49
M  V30 54 1 24 50
M  V30 55 1 25 51
M  V30 END BOND
M  V30 END CTAB
M  END
>  <Dataset>  (190) 
ChEMBL_Kinases

>  <Ligand_Instance>  (190) 
nan

>  <PDB_ID>  (190) 
nan

>  <Standardized_SMILES>  (190) 
COc1ccc(C2CC2)cc1-c1ccnc2[nH]c(C3CCCNC3)cc12

>  <Name>  (190) 
nan

>  <Pocket>  (190) 
nan

>  <ATP_Site>  (190) 
nan

>  <Peripheral>  (190) 
nan

>  <Num_H_Atoms_ProtBoundConf>  (190) 
nan

>  <Num_Resolved_Atoms>  (190) 
nan

>  <Num_Not_Resolved_Atoms>  (190) 
nan

$$$$
CHEMBL3663747
     RDKit          3D

  0  0  0  0  0  0  0  0  0  0999 V3000
M  V30 BEGIN CTAB
M  V30 COUNTS 45 48 0 0 0
M  V30 BEGIN ATOM
M  V30 1 C -1.674920 -4.086010 -2.462841 0
M  V30 2 O -0.970890 -2.895217 -2.133374 0
M  V30 3 C 0.237887 -3.060723 -1.430307 0
M  V30 4 C 0.770447 -4.267514 -1.048569 0
M  V30 5 C 1.973161 -4.303231 -0.355967 0
M  V30 6 C 2.565237 -3.094564 -0.092652 0
M  V30 7 N 3.816840 -3.073359 0.624151 0
M  V30 8 N 2.024278 -1.920562 -0.476880 0
M  V30 9 C 0.842797 -1.845526 -1.159992 0
M  V30 10 C 0.462796 -0.479041 -1.473897 0
M  V30 11 C 0.266950 -0.106885 -2.784476 0
M  V30 12 C -0.062396 1.191314 -3.149263 0
M  V30 13 N -0.194678 2.120112 -2.174343 0
M  V30 14 C -0.008789 1.786848 -0.856198 0
M  V30 15 N -0.098312 2.559919 0.263878 0
M  V30 16 C 0.164695 1.770377 1.299205 0
M  V30 17 C 0.177846 2.235286 2.709814 0
M  V30 18 C 0.913553 1.355760 3.657563 0
M  V30 19 C -0.001350 0.319184 4.308642 0
M  V30 20 C -1.017845 0.989581 5.188332 0
M  V30 21 N -1.476758 2.182159 4.552952 0
M  V30 22 C -1.305664 2.203997 3.137014 0
M  V30 23 C 0.433246 0.466307 0.891403 0
M  V30 24 C 0.318434 0.500164 -0.482206 0
M  V30 25 H -1.937956 -4.688084 -1.565196 0
M  V30 26 H -2.578420 -3.868443 -3.049783 0
M  V30 27 H -1.026745 -4.752243 -3.095088 0
M  V30 28 H 0.197653 -5.147899 -1.323189 0
M  V30 29 H 2.375793 -5.263561 -0.064077 0
M  V30 30 H 4.493266 -3.578925 0.024059 0
M  V30 31 H 4.302270 -2.755045 1.488737 0
M  V30 32 H 0.354831 -0.799445 -3.621331 0
M  V30 33 H -0.220901 1.500065 -4.185972 0
M  V30 34 H -0.329383 3.590568 0.320328 0
M  V30 35 H 0.553511 3.284912 2.821098 0
M  V30 36 H 1.731842 0.749094 3.187296 0
M  V30 37 H 1.422097 1.909963 4.474494 0
M  V30 38 H 0.582127 -0.372345 4.915166 0
M  V30 39 H -0.533316 -0.260640 3.512662 0
M  V30 40 H -1.882248 0.261414 5.247486 0
M  V30 41 H -0.668158 1.119478 6.208391 0
M  V30 42 H -1.369789 3.061572 5.055124 0
M  V30 43 H -1.754824 1.351115 2.633101 0
M  V30 44 H -1.721616 3.158535 2.731070 0
M  V30 45 H 0.682230 -0.421465 1.453781 0
M  V30 END ATOM
M  V30 BEGIN BOND
M  V30 1 1 1 2
M  V30 2 1 2 3
M  V30 3 2 3 4
M  V30 4 1 4 5
M  V30 5 2 5 6
M  V30 6 1 6 7
M  V30 7 1 6 8
M  V30 8 2 8 9
M  V30 9 1 9 10
M  V30 10 2 10 11
M  V30 11 1 11 12
M  V30 12 2 12 13
M  V30 13 1 13 14
M  V30 14 1 14 15
M  V30 15 1 15 16
M  V30 16 1 16 17
M  V30 17 1 17 18
M  V30 18 1 18 19
M  V30 19 1 19 20
M  V30 20 1 20 21
M  V30 21 1 21 22
M  V30 22 2 16 23
M  V30 23 1 23 24
M  V30 24 1 9 3
M  V30 25 1 24 10
M  V30 26 2 24 14
M  V30 27 1 22 17
M  V30 28 1 1 25
M  V30 29 1 1 26
M  V30 30 1 1 27
M  V30 31 1 4 28
M  V30 32 1 5 29
M  V30 33 1 7 30
M  V30 34 1 7 31
M  V30 35 1 11 32
M  V30 36 1 12 33
M  V30 37 1 15 34
M  V30 38 1 17 35
M  V30 39 1 18 36
M  V30 40 1 18 37
M  V30 41 1 19 38
M  V30 42 1 19 39
M  V30 43 1 20 40
M  V30 44 1 20 41
M  V30 45 1 21 42
M  V30 46 1 22 43
M  V30 47 1 22 44
M  V30 48 1 23 45
M  V30 END BOND
M  V30 END CTAB
M  END
>  <Dataset>  (191) 
ChEMBL_Kinases

>  <Ligand_Instance>  (191) 
nan

>  <PDB_ID>  (191) 
nan

>  <Standardized_SMILES>  (191) 
COc1ccc(N)nc1-c1ccnc2[nH]c(C3CCCNC3)cc12

>  <Name>  (191) 
nan

>  <Pocket>  (191) 
nan

>  <ATP_Site>  (191) 
nan

>  <Peripheral>  (191) 
nan

>  <Num_H_Atoms_ProtBoundConf>  (191) 
nan

>  <Num_Resolved_Atoms>  (191) 
nan

>  <Num_Not_Resolved_Atoms>  (191) 
nan

$$$$
CHEMBL3663746
     RDKit          3D

  0  0  0  0  0  0  0  0  0  0999 V3000
M  V30 BEGIN CTAB
M  V30 COUNTS 44 47 0 0 0
M  V30 BEGIN ATOM
M  V30 1 C -2.439637 -2.836128 -1.762857 0
M  V30 2 O -1.276181 -2.033248 -1.671639 0
M  V30 3 C -0.062592 -2.595238 -1.325686 0
M  V30 4 C 0.129016 -3.933350 -1.047195 0
M  V30 5 C 1.375766 -4.368044 -0.717341 0
M  V30 6 C 2.471244 -3.534073 -0.645391 0
M  V30 7 F 3.639969 -4.128952 -0.302618 0
M  V30 8 C 2.291620 -2.192539 -0.922084 0
M  V30 9 C 1.017779 -1.736459 -1.261239 0
M  V30 10 C 0.955346 -0.303355 -1.530646 0
M  V30 11 C 1.152945 0.229330 -2.802504 0
M  V30 12 C 1.073108 1.600601 -2.953319 0
M  V30 13 N 0.818529 2.469810 -1.966531 0
M  V30 14 C 0.622501 1.987597 -0.724229 0
M  V30 15 N 0.354496 2.609183 0.437191 0
M  V30 16 C 0.245536 1.665422 1.410720 0
M  V30 17 C -0.053719 1.956615 2.855651 0 CFG=2
M  V30 18 C 1.178773 1.686769 3.684813 0
M  V30 19 C 1.352032 0.236465 4.001152 0
M  V30 20 C 0.068351 -0.479832 4.356207 0
M  V30 21 N -0.935210 0.531718 4.647771 0
M  V30 22 C -1.214764 1.184042 3.384532 0
M  V30 23 C 0.452631 0.437618 0.826076 0
M  V30 24 C 0.695580 0.622666 -0.540120 0
M  V30 25 H -2.605474 -3.395075 -0.796892 0
M  V30 26 H -3.349515 -2.239602 -1.906398 0
M  V30 27 H -2.389129 -3.588280 -2.564520 0
M  V30 28 H -0.764630 -4.537825 -1.119499 0
M  V30 29 H 1.455062 -5.430507 -0.510935 0
M  V30 30 H 3.169178 -1.577198 -0.855044 0
M  V30 31 H 1.361450 -0.433931 -3.631130 0
M  V30 32 H 1.238359 1.951233 -3.977035 0
M  V30 33 H 0.248309 3.637882 0.569481 0
M  V30 34 H -0.241791 3.064358 2.976733 0
M  V30 35 H 1.239674 2.345590 4.572764 0
M  V30 36 H 2.051058 1.989594 3.036554 0
M  V30 37 H 2.025120 0.121220 4.887801 0
M  V30 38 H 1.906047 -0.276169 3.162947 0
M  V30 39 H 0.192517 -1.132835 5.246770 0
M  V30 40 H -0.348474 -1.065493 3.495572 0
M  V30 41 H -0.546390 1.155910 5.362657 0
M  V30 42 H -2.124261 1.833146 3.539626 0
M  V30 43 H -1.471613 0.360272 2.662472 0
M  V30 44 H 0.439268 -0.529729 1.294953 0
M  V30 END ATOM
M  V30 BEGIN BOND
M  V30 1 1 1 2
M  V30 2 1 2 3
M  V30 3 2 3 4
M  V30 4 1 4 5
M  V30 5 2 5 6
M  V30 6 1 6 7
M  V30 7 1 6 8
M  V30 8 2 8 9
M  V30 9 1 9 10
M  V30 10 2 10 11
M  V30 11 1 11 12
M  V30 12 2 12 13
M  V30 13 1 13 14
M  V30 14 1 14 15
M  V30 15 1 15 16
M  V30 16 1 16 17
M  V30 17 1 17 18
M  V30 18 1 18 19
M  V30 19 1 19 20
M  V30 20 1 20 21
M  V30 21 1 21 22
M  V30 22 2 16 23
M  V30 23 1 23 24
M  V30 24 1 9 3
M  V30 25 1 24 10
M  V30 26 2 24 14
M  V30 27 1 22 17
M  V30 28 1 1 25
M  V30 29 1 1 26
M  V30 30 1 1 27
M  V30 31 1 4 28
M  V30 32 1 5 29
M  V30 33 1 8 30
M  V30 34 1 11 31
M  V30 35 1 12 32
M  V30 36 1 15 33
M  V30 37 1 17 34 CFG=3
M  V30 38 1 18 35
M  V30 39 1 18 36
M  V30 40 1 19 37
M  V30 41 1 19 38
M  V30 42 1 20 39
M  V30 43 1 20 40
M  V30 44 1 21 41
M  V30 45 1 22 42
M  V30 46 1 22 43
M  V30 47 1 23 44
M  V30 END BOND
M  V30 END CTAB
M  END
>  <Dataset>  (192) 
ChEMBL_Kinases

>  <Ligand_Instance>  (192) 
nan

>  <PDB_ID>  (192) 
nan

>  <Standardized_SMILES>  (192) 
COc1ccc(F)cc1-c1ccnc2[nH]c([C@@H]3CCCNC3)cc12

>  <Name>  (192) 
nan

>  <Pocket>  (192) 
nan

>  <ATP_Site>  (192) 
nan

>  <Peripheral>  (192) 
nan

>  <Num_H_Atoms_ProtBoundConf>  (192) 
nan

>  <Num_Resolved_Atoms>  (192) 
nan

>  <Num_Not_Resolved_Atoms>  (192) 
nan

$$$$
CHEMBL3663745
     RDKit          3D

  0  0  0  0  0  0  0  0  0  0999 V3000
M  V30 BEGIN CTAB
M  V30 COUNTS 44 47 0 0 0
M  V30 BEGIN ATOM
M  V30 1 C -2.470471 -4.220009 -0.023815 0
M  V30 2 O -1.774233 -3.146327 -0.579610 0
M  V30 3 C -0.590480 -3.227260 -1.291568 0
M  V30 4 C 0.124806 -4.357692 -1.589583 0
M  V30 5 C 1.298555 -4.301140 -2.312246 0
M  V30 6 C 1.798637 -3.103139 -2.763618 0
M  V30 7 F 2.954925 -3.059602 -3.474042 0
M  V30 8 C 1.083465 -1.937522 -2.469975 0
M  V30 9 C -0.103620 -2.015840 -1.736521 0
M  V30 10 C -0.698250 -0.693650 -1.535521 0
M  V30 11 C -1.595116 -0.234401 -2.484829 0
M  V30 12 C -2.133035 1.019071 -2.256165 0
M  V30 13 N -1.812097 1.768915 -1.170517 0
M  V30 14 C -0.936379 1.327309 -0.238034 0
M  V30 15 N -0.462367 1.870340 0.904847 0
M  V30 16 C 0.405750 0.994592 1.471859 0
M  V30 17 C 1.169198 1.164289 2.737401 0 CFG=1
M  V30 18 C 2.125574 2.347694 2.663945 0
M  V30 19 C 3.081500 2.147232 3.838237 0
M  V30 20 C 2.498210 1.275190 4.908155 0
M  V30 21 N 1.090669 1.399915 5.112481 0
M  V30 22 C 0.301650 1.406224 3.927658 0
M  V30 23 C 0.466187 -0.131801 0.641982 0
M  V30 24 C -0.377091 0.080169 -0.429984 0
M  V30 25 H -2.585882 -4.092791 1.067076 0
M  V30 26 H -3.500299 -4.235062 -0.487030 0
M  V30 27 H -2.059916 -5.213756 -0.218336 0
M  V30 28 H -0.287003 -5.289857 -1.224527 0
M  V30 29 H 1.845165 -5.224234 -2.532737 0
M  V30 30 H 1.528796 -1.029227 -2.852549 0
M  V30 31 H -1.869938 -0.815642 -3.364817 0
M  V30 32 H -2.838269 1.416573 -2.972953 0
M  V30 33 H -0.688560 2.786803 1.318720 0
M  V30 34 H 1.808919 0.272514 2.954195 0
M  V30 35 H 1.524681 3.247624 2.910346 0
M  V30 36 H 2.661060 2.411623 1.707557 0
M  V30 37 H 3.959672 1.584584 3.409798 0
M  V30 38 H 3.504584 3.094855 4.204587 0
M  V30 39 H 3.003413 1.574602 5.868823 0
M  V30 40 H 2.811021 0.200053 4.781904 0
M  V30 41 H 0.809500 2.104498 5.824037 0
M  V30 42 H -0.142490 2.441906 3.850308 0
M  V30 43 H -0.596825 0.744461 3.984838 0
M  V30 44 H 1.064268 -1.022906 0.797807 0
M  V30 END ATOM
M  V30 BEGIN BOND
M  V30 1 1 1 2
M  V30 2 1 2 3
M  V30 3 2 3 4
M  V30 4 1 4 5
M  V30 5 2 5 6
M  V30 6 1 6 7
M  V30 7 1 6 8
M  V30 8 2 8 9
M  V30 9 1 9 10
M  V30 10 2 10 11
M  V30 11 1 11 12
M  V30 12 2 12 13
M  V30 13 1 13 14
M  V30 14 1 14 15
M  V30 15 1 15 16
M  V30 16 1 16 17
M  V30 17 1 17 18
M  V30 18 1 18 19
M  V30 19 1 19 20
M  V30 20 1 20 21
M  V30 21 1 21 22
M  V30 22 2 16 23
M  V30 23 1 23 24
M  V30 24 1 9 3
M  V30 25 1 24 10
M  V30 26 2 24 14
M  V30 27 1 22 17
M  V30 28 1 1 25
M  V30 29 1 1 26
M  V30 30 1 1 27
M  V30 31 1 4 28
M  V30 32 1 5 29
M  V30 33 1 8 30
M  V30 34 1 11 31
M  V30 35 1 12 32
M  V30 36 1 15 33
M  V30 37 1 17 34 CFG=1
M  V30 38 1 18 35
M  V30 39 1 18 36
M  V30 40 1 19 37
M  V30 41 1 19 38
M  V30 42 1 20 39
M  V30 43 1 20 40
M  V30 44 1 21 41
M  V30 45 1 22 42
M  V30 46 1 22 43
M  V30 47 1 23 44
M  V30 END BOND
M  V30 END CTAB
M  END
>  <Dataset>  (193) 
ChEMBL_Kinases

>  <Ligand_Instance>  (193) 
nan

>  <PDB_ID>  (193) 
nan

>  <Standardized_SMILES>  (193) 
COc1ccc(F)cc1-c1ccnc2[nH]c([C@H]3CCCNC3)cc12

>  <Name>  (193) 
nan

>  <Pocket>  (193) 
nan

>  <ATP_Site>  (193) 
nan

>  <Peripheral>  (193) 
nan

>  <Num_H_Atoms_ProtBoundConf>  (193) 
nan

>  <Num_Resolved_Atoms>  (193) 
nan

>  <Num_Not_Resolved_Atoms>  (193) 
nan

$$$$
CHEMBL3663744
     RDKit          3D

  0  0  0  0  0  0  0  0  0  0999 V3000
M  V30 BEGIN CTAB
M  V30 COUNTS 44 47 0 0 0
M  V30 BEGIN ATOM
M  V30 1 C 0.696629 -4.690133 -0.845481 0
M  V30 2 O 0.583928 -3.307077 -1.122962 0
M  V30 3 C 1.697806 -2.594197 -1.549150 0
M  V30 4 C 2.923538 -3.250551 -1.700693 0
M  V30 5 C 4.046236 -2.585974 -2.118371 0
M  V30 6 F 5.210759 -3.250275 -2.253369 0
M  V30 7 C 4.001919 -1.217983 -2.409059 0
M  V30 8 C 2.792249 -0.543828 -2.265318 0
M  V30 9 C 1.671562 -1.232231 -1.842876 0
M  V30 10 C 0.359787 -0.605355 -1.664041 0
M  V30 11 C -0.569916 -0.532994 -2.681153 0
M  V30 12 C -1.769571 0.081134 -2.392026 0
M  V30 13 N -2.083978 0.606183 -1.196485 0
M  V30 14 C -1.208998 0.559323 -0.173914 0
M  V30 15 N -1.172119 0.960908 1.110248 0
M  V30 16 C -0.034728 0.665565 1.718669 0
M  V30 17 C 0.353464 0.956102 3.133946 0
M  V30 18 C -0.457072 0.112964 4.091512 0
M  V30 19 C -1.857705 0.603742 4.294239 0
M  V30 20 C -1.960604 2.087772 4.419739 0
M  V30 21 N -0.610436 2.588258 4.674281 0
M  V30 22 C 0.215507 2.390434 3.498620 0
M  V30 23 C 0.710642 0.020122 0.727452 0
M  V30 24 C -0.004919 -0.052615 -0.450393 0
M  V30 25 H 1.449633 -4.817275 -0.047835 0
M  V30 26 H -0.256431 -5.098758 -0.504408 0
M  V30 27 H 1.078347 -5.264686 -1.723955 0
M  V30 28 H 2.941409 -4.303876 -1.472935 0
M  V30 29 H 4.887206 -0.676991 -2.742145 0
M  V30 30 H 2.703669 0.526455 -2.479722 0
M  V30 31 H -0.320139 -0.954438 -3.644263 0
M  V30 32 H -2.467401 0.106755 -3.243739 0
M  V30 33 H -2.001627 1.440873 1.477007 0
M  V30 34 H 1.411497 0.582982 3.229711 0
M  V30 35 H 0.075115 -0.019912 5.051245 0
M  V30 36 H -0.542576 -0.891354 3.594072 0
M  V30 37 H -2.234486 0.131513 5.231083 0
M  V30 38 H -2.540478 0.264114 3.488486 0
M  V30 39 H -2.577688 2.380026 5.298431 0
M  V30 40 H -2.356898 2.602462 3.544980 0
M  V30 41 H -0.196331 2.111152 5.498579 0
M  V30 42 H -0.143096 3.036330 2.674971 0
M  V30 43 H 1.236375 2.772301 3.767192 0
M  V30 44 H 1.717803 -0.367786 0.877416 0
M  V30 END ATOM
M  V30 BEGIN BOND
M  V30 1 1 1 2
M  V30 2 1 2 3
M  V30 3 2 3 4
M  V30 4 1 4 5
M  V30 5 1 5 6
M  V30 6 2 5 7
M  V30 7 1 7 8
M  V30 8 2 8 9
M  V30 9 1 9 10
M  V30 10 2 10 11
M  V30 11 1 11 12
M  V30 12 2 12 13
M  V30 13 1 13 14
M  V30 14 1 14 15
M  V30 15 1 15 16
M  V30 16 1 16 17
M  V30 17 1 17 18
M  V30 18 1 18 19
M  V30 19 1 19 20
M  V30 20 1 20 21
M  V30 21 1 21 22
M  V30 22 2 16 23
M  V30 23 1 23 24
M  V30 24 1 9 3
M  V30 25 1 24 10
M  V30 26 2 24 14
M  V30 27 1 22 17
M  V30 28 1 1 25
M  V30 29 1 1 26
M  V30 30 1 1 27
M  V30 31 1 4 28
M  V30 32 1 7 29
M  V30 33 1 8 30
M  V30 34 1 11 31
M  V30 35 1 12 32
M  V30 36 1 15 33
M  V30 37 1 17 34
M  V30 38 1 18 35
M  V30 39 1 18 36
M  V30 40 1 19 37
M  V30 41 1 19 38
M  V30 42 1 20 39
M  V30 43 1 20 40
M  V30 44 1 21 41
M  V30 45 1 22 42
M  V30 46 1 22 43
M  V30 47 1 23 44
M  V30 END BOND
M  V30 END CTAB
M  END
>  <Dataset>  (194) 
ChEMBL_Kinases

>  <Ligand_Instance>  (194) 
nan

>  <PDB_ID>  (194) 
nan

>  <Standardized_SMILES>  (194) 
COc1cc(F)ccc1-c1ccnc2[nH]c(C3CCCNC3)cc12

>  <Name>  (194) 
nan

>  <Pocket>  (194) 
nan

>  <ATP_Site>  (194) 
nan

>  <Peripheral>  (194) 
nan

>  <Num_H_Atoms_ProtBoundConf>  (194) 
nan

>  <Num_Resolved_Atoms>  (194) 
nan

>  <Num_Not_Resolved_Atoms>  (194) 
nan

$$$$
CHEMBL3663743
     RDKit          3D

  0  0  0  0  0  0  0  0  0  0999 V3000
M  V30 BEGIN CTAB
M  V30 COUNTS 44 47 0 0 0
M  V30 BEGIN ATOM
M  V30 1 C -3.478638 0.155601 3.258205 0
M  V30 2 O -2.744372 0.538274 2.114048 0
M  V30 3 C -3.016717 0.188714 0.821621 0
M  V30 4 C -4.077246 -0.610203 0.438326 0
M  V30 5 C -4.280738 -0.917050 -0.904913 0
M  V30 6 C -3.409097 -0.415493 -1.872083 0
M  V30 7 F -3.643685 -0.739005 -3.170547 0
M  V30 8 C -2.336780 0.392200 -1.485385 0
M  V30 9 C -2.147272 0.690398 -0.131633 0
M  V30 10 C -0.990748 1.542053 0.124488 0
M  V30 11 C -1.192412 2.913318 0.115961 0
M  V30 12 C -0.135417 3.767705 0.351840 0
M  V30 13 N 1.102293 3.291164 0.592931 0
M  V30 14 C 1.326760 1.961665 0.607100 0
M  V30 15 N 2.423434 1.176279 0.812079 0
M  V30 16 C 2.089946 -0.130255 0.713001 0
M  V30 17 C 3.098762 -1.174190 0.893909 0
M  V30 18 C 2.827390 -2.093853 2.062648 0
M  V30 19 C 3.994081 -3.036599 2.213715 0
M  V30 20 C 4.496699 -3.615334 0.931829 0
M  V30 21 N 4.613339 -2.665082 -0.150256 0
M  V30 22 C 3.323082 -2.015176 -0.342119 0
M  V30 23 C 0.756156 -0.223697 0.438770 0
M  V30 24 C 0.280396 1.069398 0.372489 0
M  V30 25 H -3.917011 -0.845430 3.195525 0
M  V30 26 H -2.757276 0.146401 4.115433 0
M  V30 27 H -4.270476 0.882377 3.516513 0
M  V30 28 H -4.731473 -0.978770 1.229473 0
M  V30 29 H -5.116689 -1.543766 -1.181966 0
M  V30 30 H -1.718675 0.732787 -2.295899 0
M  V30 31 H -2.146077 3.397563 -0.067018 0
M  V30 32 H -0.257240 4.847723 0.352668 0
M  V30 33 H 3.342457 1.656529 1.010923 0
M  V30 34 H 4.090848 -0.691431 1.107649 0
M  V30 35 H 2.826989 -1.432099 2.961438 0
M  V30 36 H 1.863441 -2.617809 1.988575 0
M  V30 37 H 3.623947 -3.909101 2.823821 0
M  V30 38 H 4.779366 -2.555541 2.813983 0
M  V30 39 H 5.553055 -3.960789 1.131480 0
M  V30 40 H 3.963778 -4.537696 0.631231 0
M  V30 41 H 5.309797 -1.941529 0.148473 0
M  V30 42 H 2.571217 -2.825386 -0.455418 0
M  V30 43 H 3.316260 -1.409807 -1.257438 0
M  V30 44 H 0.192429 -1.135875 0.302115 0
M  V30 END ATOM
M  V30 BEGIN BOND
M  V30 1 1 1 2
M  V30 2 1 2 3
M  V30 3 2 3 4
M  V30 4 1 4 5
M  V30 5 2 5 6
M  V30 6 1 6 7
M  V30 7 1 6 8
M  V30 8 2 8 9
M  V30 9 1 9 10
M  V30 10 2 10 11
M  V30 11 1 11 12
M  V30 12 2 12 13
M  V30 13 1 13 14
M  V30 14 1 14 15
M  V30 15 1 15 16
M  V30 16 1 16 17
M  V30 17 1 17 18
M  V30 18 1 18 19
M  V30 19 1 19 20
M  V30 20 1 20 21
M  V30 21 1 21 22
M  V30 22 2 16 23
M  V30 23 1 23 24
M  V30 24 1 9 3
M  V30 25 1 24 10
M  V30 26 2 24 14
M  V30 27 1 22 17
M  V30 28 1 1 25
M  V30 29 1 1 26
M  V30 30 1 1 27
M  V30 31 1 4 28
M  V30 32 1 5 29
M  V30 33 1 8 30
M  V30 34 1 11 31
M  V30 35 1 12 32
M  V30 36 1 15 33
M  V30 37 1 17 34
M  V30 38 1 18 35
M  V30 39 1 18 36
M  V30 40 1 19 37
M  V30 41 1 19 38
M  V30 42 1 20 39
M  V30 43 1 20 40
M  V30 44 1 21 41
M  V30 45 1 22 42
M  V30 46 1 22 43
M  V30 47 1 23 44
M  V30 END BOND
M  V30 END CTAB
M  END
>  <Dataset>  (195) 
ChEMBL_Kinases

>  <Ligand_Instance>  (195) 
nan

>  <PDB_ID>  (195) 
nan

>  <Standardized_SMILES>  (195) 
COc1ccc(F)cc1-c1ccnc2[nH]c(C3CCCNC3)cc12

>  <Name>  (195) 
nan

>  <Pocket>  (195) 
nan

>  <ATP_Site>  (195) 
nan

>  <Peripheral>  (195) 
nan

>  <Num_H_Atoms_ProtBoundConf>  (195) 
nan

>  <Num_Resolved_Atoms>  (195) 
nan

>  <Num_Not_Resolved_Atoms>  (195) 
nan

$$$$
CHEMBL3663742
     RDKit          3D

  0  0  0  0  0  0  0  0  0  0999 V3000
M  V30 BEGIN CTAB
M  V30 COUNTS 60 65 0 0 0
M  V30 BEGIN ATOM
M  V30 1 C 6.144148 -0.005039 4.272661 0
M  V30 2 C 5.310238 1.186275 3.845212 0
M  V30 3 O 4.006774 0.702311 3.578299 0
M  V30 4 C 2.949376 1.516225 3.155333 0
M  V30 5 O 3.169299 2.749525 3.003313 0
M  V30 6 C 1.653577 0.845626 2.922410 0
M  V30 7 N 1.355798 -0.475680 3.068669 0
M  V30 8 C 0.057296 -0.612855 2.743654 0
M  V30 9 C -0.507060 0.590720 2.386164 0
M  V30 10 C 0.526875 1.522362 2.504183 0
M  V30 11 N 0.161597 2.857615 2.177576 0
M  V30 12 C -1.146301 3.235385 1.761882 0
M  V30 13 C -2.074073 2.289067 1.674867 0
M  V30 14 C -3.448933 2.623272 1.248651 0
M  V30 15 O -4.331669 1.750129 0.985724 0
M  V30 16 C -3.829837 4.058972 1.117328 0
M  V30 17 C -2.620758 4.730434 0.458740 0
M  V30 18 C -1.471475 4.646409 1.433074 0
M  V30 19 C -1.900920 0.837708 1.969777 0
M  V30 20 C -2.278435 0.048645 0.758943 0
M  V30 21 C -2.098151 0.552762 -0.531674 0
M  V30 22 C -2.540714 -0.408708 -1.415810 0
M  V30 23 C -2.965100 -1.441250 -0.640480 0
M  V30 24 S -3.670163 -3.039138 -1.078077 0
M  V30 25 C -2.377523 -4.273778 -1.278698 0
M  V30 26 N -1.768795 -5.151032 -0.436703 0
M  V30 27 C -0.854580 -5.840494 -1.159968 0
M  V30 28 C 0.015201 -6.839035 -0.763593 0
M  V30 29 C 0.847457 -7.370059 -1.727711 0
M  V30 30 C 0.868043 -6.971756 -3.053809 0
M  V30 31 C -0.027070 -5.958324 -3.416824 0
M  V30 32 O -0.083542 -5.490044 -4.719516 0
M  V30 33 C 0.778462 -6.051587 -5.681506 0
M  V30 34 C -0.885124 -5.394059 -2.475931 0
M  V30 35 N -1.834726 -4.431562 -2.504392 0
M  V30 36 O -2.804575 -1.158394 0.647351 0
M  V30 37 H 7.017356 -0.176936 3.579722 0
M  V30 38 H 5.532065 -0.930681 4.381648 0
M  V30 39 H 6.594108 0.182636 5.282559 0
M  V30 40 H 5.785691 1.636743 2.949748 0
M  V30 41 H 5.281740 1.984957 4.611088 0
M  V30 42 H 2.044338 -1.195515 3.376681 0
M  V30 43 H -0.397904 -1.611108 2.792370 0
M  V30 44 H 0.898657 3.583193 2.251189 0
M  V30 45 H -4.004338 4.518232 2.111282 0
M  V30 46 H -4.719379 4.150085 0.469000 0
M  V30 47 H -2.895691 5.805598 0.385183 0
M  V30 48 H -2.428975 4.241006 -0.498098 0
M  V30 49 H -0.594010 5.195887 1.061247 0
M  V30 50 H -1.800968 5.202331 2.342834 0
M  V30 51 H -2.553057 0.521612 2.808146 0
M  V30 52 H -1.690013 1.513189 -0.798770 0
M  V30 53 H -2.573890 -0.412213 -2.488846 0
M  V30 54 H 0.027103 -7.175705 0.264177 0
M  V30 55 H 1.551366 -8.155554 -1.478520 0
M  V30 56 H 1.538681 -7.415363 -3.780980 0
M  V30 57 H 0.544942 -5.722391 -6.706297 0
M  V30 58 H 0.672315 -7.162474 -5.693258 0
M  V30 59 H 1.826288 -5.802821 -5.361471 0
M  V30 60 H -2.024370 -3.950323 -3.424880 0
M  V30 END ATOM
M  V30 BEGIN BOND
M  V30 1 1 1 2
M  V30 2 1 2 3
M  V30 3 1 3 4
M  V30 4 2 4 5
M  V30 5 1 4 6
M  V30 6 1 6 7
M  V30 7 1 7 8
M  V30 8 2 8 9
M  V30 9 1 9 10
M  V30 10 1 10 11
M  V30 11 1 11 12
M  V30 12 2 12 13
M  V30 13 1 13 14
M  V30 14 2 14 15
M  V30 15 1 14 16
M  V30 16 1 16 17
M  V30 17 1 17 18
M  V30 18 1 13 19
M  V30 19 1 19 20
M  V30 20 2 20 21
M  V30 21 1 21 22
M  V30 22 2 22 23
M  V30 23 1 23 24
M  V30 24 1 24 25
M  V30 25 2 25 26
M  V30 26 1 26 27
M  V30 27 2 27 28
M  V30 28 1 28 29
M  V30 29 2 29 30
M  V30 30 1 30 31
M  V30 31 1 31 32
M  V30 32 1 32 33
M  V30 33 2 31 34
M  V30 34 1 34 35
M  V30 35 1 23 36
M  V30 36 2 10 6
M  V30 37 1 18 12
M  V30 38 1 36 20
M  V30 39 1 19 9
M  V30 40 1 35 25
M  V30 41 1 34 27
M  V30 42 1 1 37
M  V30 43 1 1 38
M  V30 44 1 1 39
M  V30 45 1 2 40
M  V30 46 1 2 41
M  V30 47 1 7 42
M  V30 48 1 8 43
M  V30 49 1 11 44
M  V30 50 1 16 45
M  V30 51 1 16 46
M  V30 52 1 17 47
M  V30 53 1 17 48
M  V30 54 1 18 49
M  V30 55 1 18 50
M  V30 56 1 19 51
M  V30 57 1 21 52
M  V30 58 1 22 53
M  V30 59 1 28 54
M  V30 60 1 29 55
M  V30 61 1 30 56
M  V30 62 1 33 57
M  V30 63 1 33 58
M  V30 64 1 33 59
M  V30 65 1 35 60
M  V30 END BOND
M  V30 END CTAB
M  END
>  <Dataset>  (196) 
ChEMBL_Kinases

>  <Ligand_Instance>  (196) 
nan

>  <PDB_ID>  (196) 
nan

>  <Standardized_SMILES>  (196) 
CCOC(=O)c1[nH]cc2c1NC1=C(C(=O)CCC1)C2c1ccc(Sc2nc3cccc(OC)c3[nH]2)o1

>  <Name>  (196) 
nan

>  <Pocket>  (196) 
nan

>  <ATP_Site>  (196) 
nan

>  <Peripheral>  (196) 
nan

>  <Num_H_Atoms_ProtBoundConf>  (196) 
nan

>  <Num_Resolved_Atoms>  (196) 
nan

>  <Num_Not_Resolved_Atoms>  (196) 
nan

$$$$
CHEMBL3663793
     RDKit          3D

  0  0  0  0  0  0  0  0  0  0999 V3000
M  V30 BEGIN CTAB
M  V30 COUNTS 55 59 0 0 0
M  V30 BEGIN ATOM
M  V30 1 Cl -0.649352 -1.256683 4.980807 0
M  V30 2 C 0.680916 -0.868455 3.911624 0
M  V30 3 C 1.840799 -1.607679 3.992186 0
M  V30 4 C 2.938593 -1.386973 3.203620 0
M  V30 5 C 2.899804 -0.356246 2.255632 0
M  V30 6 N 3.972822 -0.024045 1.391813 0
M  V30 7 C 4.228759 0.923695 0.336866 0
M  V30 8 C 3.398542 0.693069 -0.867399 0
M  V30 9 C 3.975373 -0.270333 -1.696613 0
M  V30 10 C 3.412545 -0.664516 -2.892517 0
M  V30 11 C 2.229151 -0.104185 -3.319473 0
M  V30 12 C 1.664245 0.839170 -2.508212 0
M  V30 13 C 2.218482 1.239050 -1.313515 0
M  V30 14 C 1.728166 0.369165 2.194585 0
M  V30 15 C 0.620476 0.152810 2.984137 0
M  V30 16 C -0.614263 0.893315 2.941977 0
M  V30 17 C -0.840684 2.029954 3.715961 0
M  V30 18 C -2.069473 2.654510 3.586186 0
M  V30 19 N -3.022152 2.183135 2.739194 0
M  V30 20 C -2.819354 1.082156 1.981190 0
M  V30 21 N -3.623800 0.467236 1.096596 0
M  V30 22 C -2.950745 -0.592678 0.607031 0
M  V30 23 C -3.316899 -1.633691 -0.390046 0
M  V30 24 C -3.370048 -2.983396 0.285052 0
M  V30 25 C -3.666007 -4.065734 -0.709562 0
M  V30 26 N -2.898529 -3.949957 -1.928602 0
M  V30 27 C -1.769039 -3.053200 -1.733035 0
M  V30 28 C -2.371467 -1.664165 -1.563023 0
M  V30 29 C -1.708019 -0.624733 1.206585 0
M  V30 30 C -1.610474 0.445829 2.091767 0
M  V30 31 H 1.968665 -2.422745 4.690368 0
M  V30 32 H 3.844914 -1.972617 3.274053 0
M  V30 33 H 4.805422 -0.663594 1.594890 0
M  V30 34 H 5.303869 0.921001 0.100135 0
M  V30 35 H 4.049480 1.979575 0.723602 0
M  V30 36 H 4.912194 -0.809255 -1.501886 0
M  V30 37 H 3.841149 -1.410968 -3.554661 0
M  V30 38 H 1.719655 -0.353533 -4.240104 0
M  V30 39 H 0.731880 1.333573 -2.765120 0
M  V30 40 H 1.828072 1.978402 -0.644816 0
M  V30 41 H 1.549804 1.191137 1.525719 0
M  V30 42 H -0.053479 2.371576 4.378446 0
M  V30 43 H -2.209048 3.533904 4.202896 0
M  V30 44 H -4.596933 0.693396 0.784140 0
M  V30 45 H -4.361078 -1.461497 -0.780280 0
M  V30 46 H -4.244729 -2.958195 0.999432 0
M  V30 47 H -2.444109 -3.183055 0.838146 0
M  V30 48 H -4.746824 -4.067922 -0.996829 0
M  V30 49 H -3.453917 -5.061782 -0.278407 0
M  V30 50 H -3.471716 -3.528962 -2.694355 0
M  V30 51 H -1.224131 -3.291721 -0.800483 0
M  V30 52 H -1.138714 -3.029002 -2.625222 0
M  V30 53 H -2.796485 -1.251042 -2.475277 0
M  V30 54 H -1.492115 -1.010028 -1.294152 0
M  V30 55 H -0.885116 -1.334011 1.066198 0
M  V30 END ATOM
M  V30 BEGIN BOND
M  V30 1 1 1 2
M  V30 2 2 2 3
M  V30 3 1 3 4
M  V30 4 2 4 5
M  V30 5 1 5 6
M  V30 6 1 6 7
M  V30 7 1 7 8
M  V30 8 2 8 9
M  V30 9 1 9 10
M  V30 10 2 10 11
M  V30 11 1 11 12
M  V30 12 2 12 13
M  V30 13 1 5 14
M  V30 14 2 14 15
M  V30 15 1 15 16
M  V30 16 2 16 17
M  V30 17 1 17 18
M  V30 18 2 18 19
M  V30 19 1 19 20
M  V30 20 1 20 21
M  V30 21 1 21 22
M  V30 22 1 22 23
M  V30 23 1 23 24
M  V30 24 1 24 25
M  V30 25 1 25 26
M  V30 26 1 26 27
M  V30 27 1 27 28
M  V30 28 2 22 29
M  V30 29 1 29 30
M  V30 30 1 15 2
M  V30 31 1 30 16
M  V30 32 1 13 8
M  V30 33 2 30 20
M  V30 34 1 28 23
M  V30 35 1 3 31
M  V30 36 1 4 32
M  V30 37 1 6 33
M  V30 38 1 7 34
M  V30 39 1 7 35
M  V30 40 1 9 36
M  V30 41 1 10 37
M  V30 42 1 11 38
M  V30 43 1 12 39
M  V30 44 1 13 40
M  V30 45 1 14 41
M  V30 46 1 17 42
M  V30 47 1 18 43
M  V30 48 1 21 44
M  V30 49 1 23 45
M  V30 50 1 24 46
M  V30 51 1 24 47
M  V30 52 1 25 48
M  V30 53 1 25 49
M  V30 54 1 26 50
M  V30 55 1 27 51
M  V30 56 1 27 52
M  V30 57 1 28 53
M  V30 58 1 28 54
M  V30 59 1 29 55
M  V30 END BOND
M  V30 END CTAB
M  END
>  <Dataset>  (197) 
ChEMBL_Kinases

>  <Ligand_Instance>  (197) 
nan

>  <PDB_ID>  (197) 
nan

>  <Standardized_SMILES>  (197) 
Clc1ccc(NCc2ccccc2)cc1-c1ccnc2[nH]c(C3CCNCC3)cc12

>  <Name>  (197) 
nan

>  <Pocket>  (197) 
nan

>  <ATP_Site>  (197) 
nan

>  <Peripheral>  (197) 
nan

>  <Num_H_Atoms_ProtBoundConf>  (197) 
nan

>  <Num_Resolved_Atoms>  (197) 
nan

>  <Num_Not_Resolved_Atoms>  (197) 
nan

$$$$
CHEMBL3663131
     RDKit          3D

  0  0  0  0  0  0  0  0  0  0999 V3000
M  V30 BEGIN CTAB
M  V30 COUNTS 50 52 0 0 0
M  V30 BEGIN ATOM
M  V30 1 C 1.034377 -6.436638 4.811456 0
M  V30 2 O 1.158358 -5.170967 4.247506 0
M  V30 3 C 0.287003 -5.106997 3.166080 0
M  V30 4 C 0.449771 -3.701479 2.570024 0
M  V30 5 O 1.740408 -3.479963 2.154317 0
M  V30 6 C 1.978057 -2.226492 1.606467 0
M  V30 7 C 1.173068 -1.900830 0.394567 0 CFG=1
M  V30 8 N 1.570187 -0.540677 -0.020114 0
M  V30 9 C 0.646081 0.510054 0.025827 0
M  V30 10 O -0.539755 0.284052 0.427964 0
M  V30 11 N 1.013036 1.831842 -0.371489 0
M  V30 12 C 0.002157 2.839507 -0.290242 0
M  V30 13 C -0.082991 3.532074 0.925567 0
M  V30 14 C -1.035525 4.521360 1.081264 0
M  V30 15 N -1.390847 5.368999 2.091507 0
M  V30 16 N -2.396399 6.122564 1.677371 0
M  V30 17 C -2.741730 5.817427 0.413241 0
M  V30 18 C -3.828862 6.455906 -0.385121 0
M  V30 19 F -5.052054 6.155574 0.224405 0
M  V30 20 F -3.743079 7.824405 -0.410144 0
M  V30 21 C -1.882865 4.797232 0.017822 0
M  V30 22 C -1.785284 4.096764 -1.190050 0
M  V30 23 N -0.843254 3.141193 -1.298660 0
M  V30 24 C 1.276635 -2.846231 -0.714912 0
M  V30 25 C 1.803377 -4.108786 -0.820071 0
M  V30 26 C 1.780508 -4.818136 -2.002438 0
M  V30 27 C 1.215135 -4.260966 -3.129270 0
M  V30 28 C 0.672943 -2.994895 -3.073319 0
M  V30 29 C 0.705074 -2.289586 -1.864466 0
M  V30 30 H -0.029532 -6.536904 5.129251 0
M  V30 31 H 1.276538 -7.220406 4.061523 0
M  V30 32 H 1.709118 -6.539921 5.663900 0
M  V30 33 H 0.555197 -5.887305 2.425770 0
M  V30 34 H -0.776456 -5.268766 3.434151 0
M  V30 35 H 0.233228 -3.003151 3.407720 0
M  V30 36 H -0.331378 -3.514364 1.806167 0
M  V30 37 H 3.058967 -2.181310 1.353398 0
M  V30 38 H 1.821522 -1.478008 2.422392 0
M  V30 39 H 0.087890 -1.869454 0.709811 0
M  V30 40 H 2.557686 -0.425266 -0.339141 0
M  V30 41 H 1.988802 2.019899 -0.702852 0
M  V30 42 H 0.584710 3.303352 1.741002 0
M  V30 43 H -0.894914 5.355412 3.008108 0
M  V30 44 H -3.873765 5.997962 -1.381755 0
M  V30 45 H -2.455307 4.320339 -2.020153 0
M  V30 46 H 2.221036 -4.452224 0.113085 0
M  V30 47 H 2.231183 -5.811171 -1.956781 0
M  V30 48 H 1.254833 -4.910209 -3.997829 0
M  V30 49 H 0.256132 -2.638192 -3.988128 0
M  V30 50 H 0.242500 -1.318062 -1.985461 0
M  V30 END ATOM
M  V30 BEGIN BOND
M  V30 1 1 1 2
M  V30 2 1 2 3
M  V30 3 1 3 4
M  V30 4 1 4 5
M  V30 5 1 5 6
M  V30 6 1 6 7
M  V30 7 1 7 8
M  V30 8 1 8 9
M  V30 9 2 9 10
M  V30 10 1 9 11
M  V30 11 1 11 12
M  V30 12 2 12 13
M  V30 13 1 13 14
M  V30 14 1 14 15
M  V30 15 1 15 16
M  V30 16 2 16 17
M  V30 17 1 17 18
M  V30 18 1 18 19
M  V30 19 1 18 20
M  V30 20 1 17 21
M  V30 21 1 21 22
M  V30 22 2 22 23
M  V30 23 1 7 24
M  V30 24 2 24 25
M  V30 25 1 25 26
M  V30 26 2 26 27
M  V30 27 1 27 28
M  V30 28 2 28 29
M  V30 29 1 23 12
M  V30 30 1 29 24
M  V30 31 2 21 14
M  V30 32 1 1 30
M  V30 33 1 1 31
M  V30 34 1 1 32
M  V30 35 1 3 33
M  V30 36 1 3 34
M  V30 37 1 4 35
M  V30 38 1 4 36
M  V30 39 1 6 37
M  V30 40 1 6 38
M  V30 41 1 7 39 CFG=1
M  V30 42 1 8 40
M  V30 43 1 11 41
M  V30 44 1 13 42
M  V30 45 1 15 43
M  V30 46 1 18 44
M  V30 47 1 22 45
M  V30 48 1 25 46
M  V30 49 1 26 47
M  V30 50 1 27 48
M  V30 51 1 28 49
M  V30 52 1 29 50
M  V30 END BOND
M  V30 END CTAB
M  END
>  <Dataset>  (198) 
ChEMBL_Kinases

>  <Ligand_Instance>  (198) 
nan

>  <PDB_ID>  (198) 
nan

>  <Standardized_SMILES>  (198) 
COCCOC[C@@H](NC(=O)Nc1cc2[nH]nc(C(F)F)c2cn1)c1ccccc1

>  <Name>  (198) 
nan

>  <Pocket>  (198) 
nan

>  <ATP_Site>  (198) 
nan

>  <Peripheral>  (198) 
nan

>  <Num_H_Atoms_ProtBoundConf>  (198) 
nan

>  <Num_Resolved_Atoms>  (198) 
nan

>  <Num_Not_Resolved_Atoms>  (198) 
nan

$$$$
CHEMBL3663132
     RDKit          3D

  0  0  0  0  0  0  0  0  0  0999 V3000
M  V30 BEGIN CTAB
M  V30 COUNTS 38 40 0 0 0
M  V30 BEGIN ATOM
M  V30 1 C -0.463508 -4.971118 0.468626 0
M  V30 2 C 0.721428 -4.135305 0.158432 0
M  V30 3 C 1.741646 -4.085382 1.088573 0
M  V30 4 C 2.873212 -3.318866 0.848926 0
M  V30 5 C 2.948410 -2.617302 -0.330114 0
M  V30 6 C 1.910459 -2.675315 -1.263510 0
M  V30 7 C 1.966827 -1.935872 -2.529079 0
M  V30 8 N 1.406069 -0.599133 -2.447559 0
M  V30 9 C 0.839421 -0.020044 -1.254460 0
M  V30 10 O 0.875995 -0.791542 -0.274846 0
M  V30 11 N 0.315276 1.318770 -1.306840 0
M  V30 12 C -0.193747 1.679294 -0.005246 0
M  V30 13 C 0.528085 2.284027 0.999268 0
M  V30 14 C -0.170503 2.538372 2.171463 0
M  V30 15 N 0.287267 3.113734 3.298497 0
M  V30 16 N -0.750497 3.136723 4.133531 0
M  V30 17 C -1.836467 2.590605 3.551121 0
M  V30 18 C -3.185354 2.451236 4.204186 0
M  V30 19 F -3.094237 1.621505 5.307424 0
M  V30 20 F -3.665879 3.705108 4.507312 0
M  V30 21 C -1.504854 2.184240 2.265196 0
M  V30 22 C -2.196008 1.583458 1.247821 0
M  V30 23 N -1.510464 1.332490 0.094011 0
M  V30 24 N 0.814709 -3.435825 -0.998815 0
M  V30 25 H -0.817731 -4.624571 1.482828 0
M  V30 26 H -1.270176 -4.865939 -0.259301 0
M  V30 27 H -0.185244 -6.038086 0.608161 0
M  V30 28 H 1.659633 -4.646904 2.010459 0
M  V30 29 H 3.673028 -3.270430 1.561513 0
M  V30 30 H 3.823598 -1.999781 -0.559570 0
M  V30 31 H 1.370277 -2.478759 -3.314260 0
M  V30 32 H 3.010739 -1.843210 -2.885340 0
M  V30 33 H 1.444630 -0.068586 -3.349121 0
M  V30 34 H 0.380097 1.801990 -2.234177 0
M  V30 35 H 1.555676 2.502478 0.788505 0
M  V30 36 H 1.248012 3.461778 3.468705 0
M  V30 37 H -3.831805 1.964718 3.445124 0
M  V30 38 H -3.243301 1.330312 1.384734 0
M  V30 END ATOM
M  V30 BEGIN BOND
M  V30 1 1 1 2
M  V30 2 2 2 3
M  V30 3 1 3 4
M  V30 4 2 4 5
M  V30 5 1 5 6
M  V30 6 1 6 7
M  V30 7 1 7 8
M  V30 8 1 8 9
M  V30 9 2 9 10
M  V30 10 1 9 11
M  V30 11 1 11 12
M  V30 12 2 12 13
M  V30 13 1 13 14
M  V30 14 1 14 15
M  V30 15 1 15 16
M  V30 16 2 16 17
M  V30 17 1 17 18
M  V30 18 1 18 19
M  V30 19 1 18 20
M  V30 20 1 17 21
M  V30 21 1 21 22
M  V30 22 2 22 23
M  V30 23 2 6 24
M  V30 24 1 24 2
M  V30 25 1 23 12
M  V30 26 2 21 14
M  V30 27 1 1 25
M  V30 28 1 1 26
M  V30 29 1 1 27
M  V30 30 1 3 28
M  V30 31 1 4 29
M  V30 32 1 5 30
M  V30 33 1 7 31
M  V30 34 1 7 32
M  V30 35 1 8 33
M  V30 36 1 11 34
M  V30 37 1 13 35
M  V30 38 1 15 36
M  V30 39 1 18 37
M  V30 40 1 22 38
M  V30 END BOND
M  V30 END CTAB
M  END
>  <Dataset>  (199) 
ChEMBL_Kinases

>  <Ligand_Instance>  (199) 
nan

>  <PDB_ID>  (199) 
nan

>  <Standardized_SMILES>  (199) 
Cc1cccc(CNC(=O)Nc2cc3[nH]nc(C(F)F)c3cn2)n1

>  <Name>  (199) 
nan

>  <Pocket>  (199) 
nan

>  <ATP_Site>  (199) 
nan

>  <Peripheral>  (199) 
nan

>  <Num_H_Atoms_ProtBoundConf>  (199) 
nan

>  <Num_Resolved_Atoms>  (199) 
nan

>  <Num_Not_Resolved_Atoms>  (199) 
nan

$$$$
CHEMBL3663133
     RDKit          3D

  0  0  0  0  0  0  0  0  0  0999 V3000
M  V30 BEGIN CTAB
M  V30 COUNTS 41 44 0 0 0
M  V30 BEGIN ATOM
M  V30 1 O 0.574748 -0.778013 -0.913561 0
M  V30 2 C 0.365936 -0.678612 0.329512 0
M  V30 3 N 1.360158 -0.073547 1.153102 0
M  V30 4 C 2.591713 0.430667 0.639585 0
M  V30 5 C 3.786815 -0.261963 0.495718 0
M  V30 6 C 4.890733 0.386737 -0.023549 0
M  V30 7 N 6.135297 -0.073031 -0.251806 0
M  V30 8 N 6.862384 0.909422 -0.760310 0
M  V30 9 C 6.100959 2.029373 -0.872155 0
M  V30 10 C 6.386074 3.403191 -1.367993 0
M  V30 11 F 5.536129 3.604361 -2.464762 0
M  V30 12 F 5.981393 4.333464 -0.432982 0
M  V30 13 C 4.835883 1.712914 -0.405097 0
M  V30 14 C 3.630159 2.365050 -0.245965 0
M  V30 15 N 2.554556 1.724669 0.262482 0
M  V30 16 N -0.793673 -1.122546 1.005706 0
M  V30 17 C -1.903337 -1.761948 0.311236 0
M  V30 18 C -3.169851 -0.934232 0.429591 0
M  V30 19 C -3.912164 -1.499407 1.585434 0
M  V30 20 C -4.935021 -0.923818 2.311748 0
M  V30 21 C -5.482242 -1.643471 3.357630 0
M  V30 22 C -4.992971 -2.917195 3.648848 0
M  V30 23 C -3.955638 -3.466962 2.890528 0
M  V30 24 C -3.402954 -2.760811 1.847436 0
M  V30 25 C -2.308080 -3.075803 0.877372 0
M  V30 26 O -1.285264 -3.803001 1.467057 0
M  V30 27 H 1.350117 0.087108 2.187498 0
M  V30 28 H 3.754110 -1.292174 0.814269 0
M  V30 29 H 6.498059 -1.029967 -0.071570 0
M  V30 30 H 7.408084 3.551252 -1.713070 0
M  V30 31 H 3.587917 3.408159 -0.546350 0
M  V30 32 H -0.914267 -1.014982 2.037088 0
M  V30 33 H -1.696052 -1.839659 -0.790672 0
M  V30 34 H -3.786113 -0.952413 -0.499312 0
M  V30 35 H -2.911507 0.141885 0.566434 0
M  V30 36 H -5.326184 0.067227 2.096374 0
M  V30 37 H -6.298195 -1.210180 3.953573 0
M  V30 38 H -5.480023 -3.417073 4.489772 0
M  V30 39 H -3.613667 -4.466849 3.164198 0
M  V30 40 H -2.781247 -3.677646 0.074601 0
M  V30 41 H -1.689940 -4.576228 1.917444 0
M  V30 END ATOM
M  V30 BEGIN BOND
M  V30 1 2 1 2
M  V30 2 1 2 3
M  V30 3 1 3 4
M  V30 4 2 4 5
M  V30 5 1 5 6
M  V30 6 1 6 7
M  V30 7 1 7 8
M  V30 8 2 8 9
M  V30 9 1 9 10
M  V30 10 1 10 11
M  V30 11 1 10 12
M  V30 12 1 9 13
M  V30 13 1 13 14
M  V30 14 2 14 15
M  V30 15 1 2 16
M  V30 16 1 16 17
M  V30 17 1 17 18
M  V30 18 1 18 19
M  V30 19 2 19 20
M  V30 20 1 20 21
M  V30 21 2 21 22
M  V30 22 1 22 23
M  V30 23 2 23 24
M  V30 24 1 24 25
M  V30 25 1 25 26
M  V30 26 1 15 4
M  V30 27 1 25 17
M  V30 28 2 13 6
M  V30 29 1 24 19
M  V30 30 1 3 27
M  V30 31 1 5 28
M  V30 32 1 7 29
M  V30 33 1 10 30
M  V30 34 1 14 31
M  V30 35 1 16 32
M  V30 36 1 17 33
M  V30 37 1 18 34
M  V30 38 1 18 35
M  V30 39 1 20 36
M  V30 40 1 21 37
M  V30 41 1 22 38
M  V30 42 1 23 39
M  V30 43 1 25 40
M  V30 44 1 26 41
M  V30 END BOND
M  V30 END CTAB
M  END
>  <Dataset>  (200) 
ChEMBL_Kinases

>  <Ligand_Instance>  (200) 
nan

>  <PDB_ID>  (200) 
nan

>  <Standardized_SMILES>  (200) 
O=C(Nc1cc2[nH]nc(C(F)F)c2cn1)NC1Cc2ccccc2C1O

>  <Name>  (200) 
nan

>  <Pocket>  (200) 
nan

>  <ATP_Site>  (200) 
nan

>  <Peripheral>  (200) 
nan

>  <Num_H_Atoms_ProtBoundConf>  (200) 
nan

>  <Num_Resolved_Atoms>  (200) 
nan

>  <Num_Not_Resolved_Atoms>  (200) 
nan

$$$$
CHEMBL3663134
     RDKit          3D

  0  0  0  0  0  0  0  0  0  0999 V3000
M  V30 BEGIN CTAB
M  V30 COUNTS 55 59 0 0 0
M  V30 BEGIN ATOM
M  V30 1 C 4.331016 -1.413942 4.656189 0
M  V30 2 O 3.636263 -2.364233 5.326985 0
M  V30 3 C 3.247408 -3.495328 4.683013 0
M  V30 4 C 2.310969 -3.396189 3.544617 0 CFG=1
M  V30 5 N 2.782181 -2.605971 2.435397 0
M  V30 6 C 1.888204 -1.641777 1.896332 0
M  V30 7 O 0.736159 -1.464273 2.344989 0
M  V30 8 N 2.301278 -0.819651 0.784441 0
M  V30 9 C 1.387958 0.142996 0.256897 0
M  V30 10 C 1.241086 1.461687 0.649923 0
M  V30 11 C 0.281917 2.203182 -0.014919 0
M  V30 12 N -0.040723 3.493573 0.188908 0
M  V30 13 N -1.016777 3.747978 -0.692965 0
M  V30 14 C -1.298103 2.652784 -1.426975 0
M  V30 15 C -2.308497 2.578144 -2.478575 0
M  V30 16 C -2.072969 1.979995 -3.702025 0
M  V30 17 C -3.005202 1.892190 -4.717232 0
M  V30 18 C -4.254784 2.436446 -4.498815 0
M  V30 19 N -5.372471 2.514325 -5.279051 0
M  V30 20 N -6.303351 3.147063 -4.574042 0
M  V30 21 N -5.835643 3.475044 -3.387304 0
M  V30 22 C -6.556647 4.175688 -2.338912 0
M  V30 23 C -4.545602 3.054149 -3.276476 0
M  V30 24 C -3.575240 3.113116 -2.297112 0
M  V30 25 C -0.473958 1.623709 -1.016715 0
M  V30 26 C -0.303055 0.304625 -1.385605 0
M  V30 27 N 0.642606 -0.435992 -0.734030 0
M  V30 28 C 1.880823 -4.763630 3.067744 0
M  V30 29 C 2.688608 -5.462598 2.177225 0
M  V30 30 C 2.265427 -6.712413 1.760068 0
M  V30 31 C 1.084068 -7.287166 2.189149 0
M  V30 32 C 0.285040 -6.587357 3.074623 0
M  V30 33 C 0.691356 -5.344193 3.498753 0
M  V30 34 H 3.827817 -0.964251 3.799862 0
M  V30 35 H 4.523903 -0.557436 5.372466 0
M  V30 36 H 5.376180 -1.742793 4.376581 0
M  V30 37 H 4.185071 -4.054598 4.366738 0
M  V30 38 H 2.789132 -4.159548 5.490511 0
M  V30 39 H 1.360763 -2.901617 3.904931 0
M  V30 40 H 3.748506 -2.757040 2.061713 0
M  V30 41 H 3.266174 -0.976743 0.417755 0
M  V30 42 H 1.900775 1.775549 1.445438 0
M  V30 43 H 0.381778 4.146727 0.884060 0
M  V30 44 H -1.105499 1.541621 -3.911565 0
M  V30 45 H -2.770474 1.408953 -5.667315 0
M  V30 46 H -6.384177 3.587860 -1.390732 0
M  V30 47 H -6.160102 5.177178 -2.150222 0
M  V30 48 H -7.645866 4.130525 -2.509807 0
M  V30 49 H -3.815600 3.596019 -1.352794 0
M  V30 50 H -0.917935 -0.104860 -2.175118 0
M  V30 51 H 3.614060 -5.029375 1.831776 0
M  V30 52 H 2.865987 -7.284612 1.069258 0
M  V30 53 H 0.753431 -8.267930 1.860860 0
M  V30 54 H -0.657035 -6.945247 3.471700 0
M  V30 55 H 0.088851 -4.761299 4.196652 0
M  V30 END ATOM
M  V30 BEGIN BOND
M  V30 1 1 1 2
M  V30 2 1 2 3
M  V30 3 1 3 4
M  V30 4 1 4 5
M  V30 5 1 5 6
M  V30 6 2 6 7
M  V30 7 1 6 8
M  V30 8 1 8 9
M  V30 9 2 9 10
M  V30 10 1 10 11
M  V30 11 1 11 12
M  V30 12 1 12 13
M  V30 13 2 13 14
M  V30 14 1 14 15
M  V30 15 2 15 16
M  V30 16 1 16 17
M  V30 17 2 17 18
M  V30 18 1 18 19
M  V30 19 2 19 20
M  V30 20 1 20 21
M  V30 21 1 21 22
M  V30 22 1 21 23
M  V30 23 2 23 24
M  V30 24 1 14 25
M  V30 25 1 25 26
M  V30 26 2 26 27
M  V30 27 1 4 28
M  V30 28 2 28 29
M  V30 29 1 29 30
M  V30 30 2 30 31
M  V30 31 1 31 32
M  V30 32 2 32 33
M  V30 33 1 27 9
M  V30 34 1 33 28
M  V30 35 2 25 11
M  V30 36 1 24 15
M  V30 37 1 23 18
M  V30 38 1 1 34
M  V30 39 1 1 35
M  V30 40 1 1 36
M  V30 41 1 3 37
M  V30 42 1 3 38
M  V30 43 1 4 39 CFG=1
M  V30 44 1 5 40
M  V30 45 1 8 41
M  V30 46 1 10 42
M  V30 47 1 12 43
M  V30 48 1 16 44
M  V30 49 1 17 45
M  V30 50 1 22 46
M  V30 51 1 22 47
M  V30 52 1 22 48
M  V30 53 1 24 49
M  V30 54 1 26 50
M  V30 55 1 29 51
M  V30 56 1 30 52
M  V30 57 1 31 53
M  V30 58 1 32 54
M  V30 59 1 33 55
M  V30 END BOND
M  V30 END CTAB
M  END
>  <Dataset>  (201) 
ChEMBL_Kinases

>  <Ligand_Instance>  (201) 
nan

>  <PDB_ID>  (201) 
nan

>  <Standardized_SMILES>  (201) 
COC[C@@H](NC(=O)Nc1cc2[nH]nc(-c3ccc4nnn(C)c4c3)c2cn1)c1ccccc1

>  <Name>  (201) 
nan

>  <Pocket>  (201) 
nan

>  <ATP_Site>  (201) 
nan

>  <Peripheral>  (201) 
nan

>  <Num_H_Atoms_ProtBoundConf>  (201) 
nan

>  <Num_Resolved_Atoms>  (201) 
nan

>  <Num_Not_Resolved_Atoms>  (201) 
nan

$$$$
CHEMBL3663135
     RDKit          3D

  0  0  0  0  0  0  0  0  0  0999 V3000
M  V30 BEGIN CTAB
M  V30 COUNTS 52 55 0 0 0
M  V30 BEGIN ATOM
M  V30 1 C 1.783169 -4.035257 5.029579 0
M  V30 2 C 2.638886 -4.853594 4.080235 0
M  V30 3 O 2.516643 -4.373830 2.778420 0
M  V30 4 C 1.219320 -4.427940 2.313449 0
M  V30 5 C 1.126541 -3.891407 0.878416 0 CFG=1
M  V30 6 N 1.586315 -2.509426 0.907324 0
M  V30 7 C 0.632190 -1.466404 0.654260 0
M  V30 8 O -0.590584 -1.666430 0.405578 0
M  V30 9 N 1.132416 -0.116116 0.693594 0
M  V30 10 C 0.277514 1.015680 0.457195 0
M  V30 11 C 0.807406 2.308918 0.506630 0
M  V30 12 C -0.068002 3.360539 0.269827 0
M  V30 13 N 0.132781 4.708412 0.246928 0
M  V30 14 N -1.031723 5.290934 -0.028304 0
M  V30 15 C -1.987020 4.353475 -0.185331 0
M  V30 16 C -3.409135 4.529398 -0.495335 0
M  V30 17 C -4.043589 5.743441 -0.688395 0
M  V30 18 C -5.386961 5.475256 -0.960191 0
M  V30 19 C -6.397175 6.533765 -1.225383 0
M  V30 20 O -5.509430 4.165724 -0.922964 0
M  V30 21 N -4.370555 3.597325 -0.654139 0
M  V30 22 C -1.400757 3.112513 -0.000727 0
M  V30 23 C -1.883634 1.802810 -0.039400 0
M  V30 24 N -1.021670 0.776851 0.193312 0
M  V30 25 C 1.857799 -4.741301 -0.062728 0
M  V30 26 C 2.097554 -4.229425 -1.323250 0
M  V30 27 C 2.784369 -5.011429 -2.226760 0
M  V30 28 C 3.257569 -6.287859 -1.960983 0
M  V30 29 C 3.000888 -6.778251 -0.680870 0
M  V30 30 C 2.315447 -6.018856 0.246174 0
M  V30 31 H 1.809830 -2.979706 4.750051 0
M  V30 32 H 0.744850 -4.427707 4.987267 0
M  V30 33 H 2.217993 -4.186208 6.046380 0
M  V30 34 H 2.278287 -5.911034 4.097384 0
M  V30 35 H 3.675573 -4.831880 4.421000 0
M  V30 36 H 0.600306 -3.802649 2.988735 0
M  V30 37 H 0.754541 -5.433815 2.346263 0
M  V30 38 H 0.033627 -3.835690 0.644934 0
M  V30 39 H 2.589786 -2.278378 1.107921 0
M  V30 40 H 2.156669 0.060867 0.901437 0
M  V30 41 H 1.841659 2.467311 0.718233 0
M  V30 42 H 1.070375 5.129412 0.425289 0
M  V30 43 H -3.603607 6.742163 -0.643301 0
M  V30 44 H -6.146876 7.036292 -2.184333 0
M  V30 45 H -6.463671 7.262875 -0.393780 0
M  V30 46 H -7.369053 6.002537 -1.406240 0
M  V30 47 H -2.937770 1.675312 -0.256757 0
M  V30 48 H 1.775698 -3.239654 -1.650460 0
M  V30 49 H 2.991923 -4.633328 -3.239579 0
M  V30 50 H 3.794425 -6.872910 -2.698781 0
M  V30 51 H 3.347920 -7.784511 -0.401474 0
M  V30 52 H 2.135286 -6.423358 1.217340 0
M  V30 END ATOM
M  V30 BEGIN BOND
M  V30 1 1 1 2
M  V30 2 1 2 3
M  V30 3 1 3 4
M  V30 4 1 4 5
M  V30 5 1 5 6
M  V30 6 1 6 7
M  V30 7 2 7 8
M  V30 8 1 7 9
M  V30 9 1 9 10
M  V30 10 2 10 11
M  V30 11 1 11 12
M  V30 12 1 12 13
M  V30 13 1 13 14
M  V30 14 2 14 15
M  V30 15 1 15 16
M  V30 16 1 16 17
M  V30 17 2 17 18
M  V30 18 1 18 19
M  V30 19 1 18 20
M  V30 20 1 20 21
M  V30 21 1 15 22
M  V30 22 1 22 23
M  V30 23 2 23 24
M  V30 24 1 5 25
M  V30 25 2 25 26
M  V30 26 1 26 27
M  V30 27 2 27 28
M  V30 28 1 28 29
M  V30 29 2 29 30
M  V30 30 1 24 10
M  V30 31 1 30 25
M  V30 32 2 22 12
M  V30 33 2 21 16
M  V30 34 1 1 31
M  V30 35 1 1 32
M  V30 36 1 1 33
M  V30 37 1 2 34
M  V30 38 1 2 35
M  V30 39 1 4 36
M  V30 40 1 4 37
M  V30 41 1 5 38 CFG=3
M  V30 42 1 6 39
M  V30 43 1 9 40
M  V30 44 1 11 41
M  V30 45 1 13 42
M  V30 46 1 17 43
M  V30 47 1 19 44
M  V30 48 1 19 45
M  V30 49 1 19 46
M  V30 50 1 23 47
M  V30 51 1 26 48
M  V30 52 1 27 49
M  V30 53 1 28 50
M  V30 54 1 29 51
M  V30 55 1 30 52
M  V30 END BOND
M  V30 END CTAB
M  END
>  <Dataset>  (202) 
ChEMBL_Kinases

>  <Ligand_Instance>  (202) 
nan

>  <PDB_ID>  (202) 
nan

>  <Standardized_SMILES>  (202) 
CCOC[C@@H](NC(=O)Nc1cc2[nH]nc(-c3cc(C)on3)c2cn1)c1ccccc1

>  <Name>  (202) 
nan

>  <Pocket>  (202) 
nan

>  <ATP_Site>  (202) 
nan

>  <Peripheral>  (202) 
nan

>  <Num_H_Atoms_ProtBoundConf>  (202) 
nan

>  <Num_Resolved_Atoms>  (202) 
nan

>  <Num_Not_Resolved_Atoms>  (202) 
nan

$$$$
CHEMBL3663136
     RDKit          3D

  0  0  0  0  0  0  0  0  0  0999 V3000
M  V30 BEGIN CTAB
M  V30 COUNTS 56 60 0 0 0
M  V30 BEGIN ATOM
M  V30 1 C 8.597404 -6.955901 0.665726 0
M  V30 2 C 7.502050 -5.941011 0.562048 0
M  V30 3 C 6.863158 -5.381599 1.650285 0
M  V30 4 C 5.908474 -4.486937 1.203244 0
M  V30 5 C 4.997392 -3.667908 2.003761 0
M  V30 6 N 4.892432 -3.609015 3.347287 0
M  V30 7 N 3.938695 -2.737808 3.696795 0
M  V30 8 C 3.445969 -2.249905 2.543181 0
M  V30 9 C 2.439799 -1.315840 2.384175 0
M  V30 10 C 2.083618 -0.950424 1.101680 0
M  V30 11 N 1.096101 -0.025507 0.656151 0
M  V30 12 C -0.239081 -0.474198 0.407477 0
M  V30 13 O -0.563894 -1.690547 0.577440 0
M  V30 14 N -1.200754 0.479997 -0.037513 0
M  V30 15 C -2.598753 0.168657 -0.330907 0 CFG=2
M  V30 16 C -2.924962 0.281761 -1.752872 0
M  V30 17 O -2.739178 1.464476 -2.407415 0
M  V30 18 C -3.410012 2.570229 -2.005621 0
M  V30 19 C -4.929863 2.385203 -2.032449 0
M  V30 20 C -5.717552 3.632855 -1.578324 0
M  V30 21 C -5.775201 3.133542 -2.982344 0
M  V30 22 C -3.445741 0.732174 0.692335 0
M  V30 23 C -3.372154 1.924845 1.418605 0
M  V30 24 C -4.231265 2.373061 2.365503 0
M  V30 25 C -5.312754 1.574819 2.664097 0
M  V30 26 C -5.525035 0.368422 2.034394 0
M  V30 27 C -4.587057 0.013880 1.088904 0
M  V30 28 N 2.710344 -1.498954 0.026516 0
M  V30 29 C 3.704216 -2.421322 0.173571 0
M  V30 30 C 4.076702 -2.801504 1.445661 0
M  V30 31 N 6.021638 -4.553486 -0.137817 0
M  V30 32 O 6.945315 -5.396728 -0.494486 0
M  V30 33 H 8.283355 -7.747842 1.386824 0
M  V30 34 H 9.520875 -6.495640 1.084581 0
M  V30 35 H 8.778132 -7.460893 -0.297908 0
M  V30 36 H 7.045624 -5.579987 2.702668 0
M  V30 37 H 3.645002 -2.494047 4.669655 0
M  V30 38 H 1.872477 -0.812796 3.127653 0
M  V30 39 H 1.334597 0.998669 0.504070 0
M  V30 40 H -0.945109 1.487791 -0.181763 0
M  V30 41 H -2.618388 -0.978149 -0.097434 0
M  V30 42 H -2.228344 -0.449702 -2.291881 0
M  V30 43 H -3.924631 -0.146999 -2.028156 0
M  V30 44 H -3.246069 3.346557 -2.836837 0
M  V30 45 H -3.057400 3.083647 -1.115601 0
M  V30 46 H -5.287885 1.417178 -1.626402 0
M  V30 47 H -6.572009 3.479180 -0.888769 0
M  V30 48 H -5.116699 4.572853 -1.406036 0
M  V30 49 H -6.696604 2.613805 -3.337248 0
M  V30 50 H -5.336358 3.781759 -3.762068 0
M  V30 51 H -2.483211 2.514265 1.132741 0
M  V30 52 H -4.043419 3.316984 2.841674 0
M  V30 53 H -6.033171 1.877170 3.409928 0
M  V30 54 H -6.354557 -0.255036 2.256140 0
M  V30 55 H -4.775829 -0.952449 0.598764 0
M  V30 56 H 4.213076 -2.867509 -0.670840 0
M  V30 END ATOM
M  V30 BEGIN BOND
M  V30 1 1 1 2
M  V30 2 2 2 3
M  V30 3 1 3 4
M  V30 4 1 4 5
M  V30 5 2 5 6
M  V30 6 1 6 7
M  V30 7 1 7 8
M  V30 8 2 8 9
M  V30 9 1 9 10
M  V30 10 1 10 11
M  V30 11 1 11 12
M  V30 12 2 12 13
M  V30 13 1 12 14
M  V30 14 1 14 15
M  V30 15 1 15 16
M  V30 16 1 16 17
M  V30 17 1 17 18
M  V30 18 1 18 19
M  V30 19 1 19 20
M  V30 20 1 20 21
M  V30 21 1 15 22
M  V30 22 2 22 23
M  V30 23 1 23 24
M  V30 24 2 24 25
M  V30 25 1 25 26
M  V30 26 2 26 27
M  V30 27 2 10 28
M  V30 28 1 28 29
M  V30 29 2 29 30
M  V30 30 2 4 31
M  V30 31 1 31 32
M  V30 32 1 32 2
M  V30 33 1 30 5
M  V30 34 1 30 8
M  V30 35 1 21 19
M  V30 36 1 27 22
M  V30 37 1 1 33
M  V30 38 1 1 34
M  V30 39 1 1 35
M  V30 40 1 3 36
M  V30 41 1 7 37
M  V30 42 1 9 38
M  V30 43 1 11 39
M  V30 44 1 14 40
M  V30 45 1 15 41 CFG=1
M  V30 46 1 16 42
M  V30 47 1 16 43
M  V30 48 1 18 44
M  V30 49 1 18 45
M  V30 50 1 19 46
M  V30 51 1 20 47
M  V30 52 1 20 48
M  V30 53 1 21 49
M  V30 54 1 21 50
M  V30 55 1 23 51
M  V30 56 1 24 52
M  V30 57 1 25 53
M  V30 58 1 26 54
M  V30 59 1 27 55
M  V30 60 1 29 56
M  V30 END BOND
M  V30 END CTAB
M  END
>  <Dataset>  (203) 
ChEMBL_Kinases

>  <Ligand_Instance>  (203) 
nan

>  <PDB_ID>  (203) 
nan

>  <Standardized_SMILES>  (203) 
Cc1cc(-c2n[nH]c3cc(NC(=O)N[C@H](COCC4CC4)c4ccccc4)ncc23)no1

>  <Name>  (203) 
nan

>  <Pocket>  (203) 
nan

>  <ATP_Site>  (203) 
nan

>  <Peripheral>  (203) 
nan

>  <Num_H_Atoms_ProtBoundConf>  (203) 
nan

>  <Num_Resolved_Atoms>  (203) 
nan

>  <Num_Not_Resolved_Atoms>  (203) 
nan

$$$$
CHEMBL3663137
     RDKit          3D

  0  0  0  0  0  0  0  0  0  0999 V3000
M  V30 BEGIN CTAB
M  V30 COUNTS 56 59 0 0 0
M  V30 BEGIN ATOM
M  V30 1 C 1.419738 -1.273228 4.481873 0
M  V30 2 O 1.661205 -1.623547 3.173919 0
M  V30 3 C 2.907307 -2.197588 2.946481 0
M  V30 4 C 4.045164 -1.323006 3.306968 0
M  V30 5 O 4.268099 -0.146742 2.775063 0
M  V30 6 C 4.556734 0.203582 1.528815 0
M  V30 7 C 3.545750 -0.050966 0.484833 0 CFG=1
M  V30 8 N 2.260978 0.608000 0.704574 0
M  V30 9 C 0.903298 0.164192 0.618711 0
M  V30 10 O 0.801017 -1.063639 0.274535 0
M  V30 11 N -0.147263 1.064961 0.904067 0
M  V30 12 C -1.420469 0.392637 0.751675 0
M  V30 13 C -2.004301 -0.259997 1.833477 0
M  V30 14 C -3.217613 -0.878390 1.596983 0
M  V30 15 N -4.019075 -1.584170 2.436677 0
M  V30 16 N -5.059853 -1.960178 1.710268 0
M  V30 17 C -4.964311 -1.527386 0.438453 0
M  V30 18 C -5.899333 -1.735552 -0.662482 0
M  V30 19 C -7.086451 -2.432718 -0.633256 0
M  V30 20 C -7.606159 -2.351639 -1.911299 0
M  V30 21 C -8.865266 -2.925743 -2.435576 0
M  V30 22 O -6.783256 -1.648740 -2.664592 0
M  V30 23 N -5.782687 -1.289669 -1.925633 0
M  V30 24 C -3.780433 -0.823997 0.338335 0
M  V30 25 C -3.187600 -0.169634 -0.731302 0
M  V30 26 N -2.008098 0.420477 -0.464307 0
M  V30 27 C 4.064268 0.372294 -0.882129 0
M  V30 28 C 5.347542 0.760152 -1.198105 0
M  V30 29 C 5.690832 1.116973 -2.461739 0
M  V30 30 C 4.778787 1.109591 -3.486449 0
M  V30 31 C 3.462968 0.722933 -3.212808 0
M  V30 32 C 3.147479 0.366466 -1.919093 0
M  V30 33 H 0.383606 -0.827700 4.501890 0
M  V30 34 H 1.392694 -2.116665 5.199810 0
M  V30 35 H 2.094652 -0.438619 4.813942 0
M  V30 36 H 2.912885 -2.649445 1.951798 0
M  V30 37 H 2.942699 -3.086510 3.648372 0
M  V30 38 H 3.957883 -1.180838 4.441608 0
M  V30 39 H 4.978206 -2.003729 3.185115 0
M  V30 40 H 4.837605 1.324904 1.489125 0
M  V30 41 H 5.507731 -0.340181 1.217364 0
M  V30 42 H 3.351598 -1.118799 0.355909 0
M  V30 43 H 2.503026 1.590437 0.972448 0
M  V30 44 H 0.126410 2.054405 1.175649 0
M  V30 45 H -1.508305 -0.265332 2.799813 0
M  V30 46 H -3.872016 -1.800638 3.445607 0
M  V30 47 H -7.534222 -2.944409 0.207665 0
M  V30 48 H -9.484320 -2.142041 -2.925900 0
M  V30 49 H -9.420429 -3.503654 -1.671242 0
M  V30 50 H -8.659095 -3.657881 -3.272923 0
M  V30 51 H -3.629895 -0.127621 -1.717850 0
M  V30 52 H 6.045154 0.760123 -0.380974 0
M  V30 53 H 6.734031 1.412584 -2.630778 0
M  V30 54 H 5.048791 1.395118 -4.504851 0
M  V30 55 H 2.788868 0.735051 -4.049292 0
M  V30 56 H 2.096952 0.089845 -1.846397 0
M  V30 END ATOM
M  V30 BEGIN BOND
M  V30 1 1 1 2
M  V30 2 1 2 3
M  V30 3 1 3 4
M  V30 4 1 4 5
M  V30 5 1 5 6
M  V30 6 1 6 7
M  V30 7 1 7 8
M  V30 8 1 8 9
M  V30 9 2 9 10
M  V30 10 1 9 11
M  V30 11 1 11 12
M  V30 12 2 12 13
M  V30 13 1 13 14
M  V30 14 1 14 15
M  V30 15 1 15 16
M  V30 16 2 16 17
M  V30 17 1 17 18
M  V30 18 1 18 19
M  V30 19 2 19 20
M  V30 20 1 20 21
M  V30 21 1 20 22
M  V30 22 1 22 23
M  V30 23 1 17 24
M  V30 24 1 24 25
M  V30 25 2 25 26
M  V30 26 1 7 27
M  V30 27 2 27 28
M  V30 28 1 28 29
M  V30 29 2 29 30
M  V30 30 1 30 31
M  V30 31 2 31 32
M  V30 32 1 26 12
M  V30 33 1 32 27
M  V30 34 2 24 14
M  V30 35 2 23 18
M  V30 36 1 1 33
M  V30 37 1 1 34
M  V30 38 1 1 35
M  V30 39 1 3 36
M  V30 40 1 3 37
M  V30 41 1 4 38
M  V30 42 1 4 39
M  V30 43 1 6 40
M  V30 44 1 6 41
M  V30 45 1 7 42 CFG=3
M  V30 46 1 8 43
M  V30 47 1 11 44
M  V30 48 1 13 45
M  V30 49 1 15 46
M  V30 50 1 19 47
M  V30 51 1 21 48
M  V30 52 1 21 49
M  V30 53 1 21 50
M  V30 54 1 25 51
M  V30 55 1 28 52
M  V30 56 1 29 53
M  V30 57 1 30 54
M  V30 58 1 31 55
M  V30 59 1 32 56
M  V30 END BOND
M  V30 END CTAB
M  END
>  <Dataset>  (204) 
ChEMBL_Kinases

>  <Ligand_Instance>  (204) 
nan

>  <PDB_ID>  (204) 
nan

>  <Standardized_SMILES>  (204) 
COCCOC[C@@H](NC(=O)Nc1cc2[nH]nc(-c3cc(C)on3)c2cn1)c1ccccc1

>  <Name>  (204) 
nan

>  <Pocket>  (204) 
nan

>  <ATP_Site>  (204) 
nan

>  <Peripheral>  (204) 
nan

>  <Num_H_Atoms_ProtBoundConf>  (204) 
nan

>  <Num_Resolved_Atoms>  (204) 
nan

>  <Num_Not_Resolved_Atoms>  (204) 
nan

$$$$
CHEMBL3663741
     RDKit          3D

  0  0  0  0  0  0  0  0  0  0999 V3000
M  V30 BEGIN CTAB
M  V30 COUNTS 56 61 0 0 0
M  V30 BEGIN ATOM
M  V30 1 C 4.127221 -0.114377 7.177310 0
M  V30 2 C 3.765650 0.859541 6.078803 0
M  V30 3 O 2.984039 0.133151 5.128155 0
M  V30 4 C 2.485923 0.736642 3.985246 0
M  V30 5 O 2.863226 1.934139 4.017709 0
M  V30 6 C 1.683115 0.065377 2.971098 0
M  V30 7 N 1.265294 -1.205581 2.906176 0
M  V30 8 C 0.554900 -1.318792 1.767930 0
M  V30 9 C 0.521648 -0.112772 1.106603 0
M  V30 10 C 1.252017 0.794523 1.879913 0
M  V30 11 N 1.376868 2.137051 1.416422 0
M  V30 12 C 0.765304 2.515056 0.197997 0
M  V30 13 C 0.077005 1.646238 -0.523941 0
M  V30 14 C -0.568340 2.016961 -1.795684 0
M  V30 15 O -1.299851 1.265846 -2.458182 0
M  V30 16 C -0.378288 3.371536 -2.394948 0
M  V30 17 C 0.922217 3.916108 -1.841811 0
M  V30 18 C 0.870134 3.917562 -0.328678 0
M  V30 19 C -0.126523 0.239545 -0.160014 0 CFG=2
M  V30 20 C -1.582375 -0.128559 -0.067053 0
M  V30 21 C -2.553470 0.725286 0.394497 0
M  V30 22 C -3.702867 -0.029281 0.299403 0
M  V30 23 C -3.410223 -1.265580 -0.195395 0
M  V30 24 S -4.491900 -2.668396 -0.536524 0
M  V30 25 C -3.554897 -4.047553 -1.185760 0
M  V30 26 N -2.900172 -5.123653 -0.710122 0
M  V30 27 C -2.368429 -5.827898 -1.728322 0
M  V30 28 C -1.624319 -6.989986 -1.691586 0
M  V30 29 C -1.177023 -7.543267 -2.872632 0
M  V30 30 C -1.502873 -6.894437 -4.046888 0
M  V30 31 C -2.248620 -5.730961 -4.073748 0
M  V30 32 C -2.705790 -5.162284 -2.893735 0
M  V30 33 N -3.437740 -4.065590 -2.545087 0
M  V30 34 O -2.105506 -1.283499 -0.405169 0
M  V30 35 H 5.205752 -0.435689 7.085685 0
M  V30 36 H 3.555632 -1.060015 7.122129 0
M  V30 37 H 3.952105 0.321078 8.193283 0
M  V30 38 H 3.143365 1.673191 6.521597 0
M  V30 39 H 4.637815 1.287256 5.581424 0
M  V30 40 H 1.480412 -1.933048 3.633111 0
M  V30 41 H 0.109911 -2.264432 1.494015 0
M  V30 42 H 1.911966 2.805664 1.980933 0
M  V30 43 H -0.380297 3.375889 -3.487572 0
M  V30 44 H -1.179099 4.001405 -1.941033 0
M  V30 45 H 1.140939 4.935503 -2.191617 0
M  V30 46 H 1.740676 3.223171 -2.143811 0
M  V30 47 H 1.823865 4.322742 0.067244 0
M  V30 48 H 0.050548 4.531661 0.055574 0
M  V30 49 H 0.343565 -0.377394 -0.953676 0
M  V30 50 H -2.525971 1.724278 0.753043 0
M  V30 51 H -4.741480 0.189311 0.540588 0
M  V30 52 H -1.390265 -7.466925 -0.759565 0
M  V30 53 H -0.589322 -8.449609 -2.938447 0
M  V30 54 H -1.175567 -7.287031 -5.012156 0
M  V30 55 H -2.497822 -5.231224 -5.001737 0
M  V30 56 H -3.768577 -3.453743 -3.348152 0
M  V30 END ATOM
M  V30 BEGIN BOND
M  V30 1 1 1 2
M  V30 2 1 2 3
M  V30 3 1 3 4
M  V30 4 2 4 5
M  V30 5 1 4 6
M  V30 6 1 6 7
M  V30 7 1 7 8
M  V30 8 2 8 9
M  V30 9 1 9 10
M  V30 10 1 10 11
M  V30 11 1 11 12
M  V30 12 2 12 13
M  V30 13 1 13 14
M  V30 14 2 14 15
M  V30 15 1 14 16
M  V30 16 1 16 17
M  V30 17 1 17 18
M  V30 18 1 13 19
M  V30 19 1 19 20
M  V30 20 2 20 21
M  V30 21 1 21 22
M  V30 22 2 22 23
M  V30 23 1 23 24
M  V30 24 1 24 25
M  V30 25 2 25 26
M  V30 26 1 26 27
M  V30 27 2 27 28
M  V30 28 1 28 29
M  V30 29 2 29 30
M  V30 30 1 30 31
M  V30 31 2 31 32
M  V30 32 1 32 33
M  V30 33 1 23 34
M  V30 34 2 10 6
M  V30 35 1 18 12
M  V30 36 1 34 20
M  V30 37 1 19 9
M  V30 38 1 33 25
M  V30 39 1 32 27
M  V30 40 1 1 35
M  V30 41 1 1 36
M  V30 42 1 1 37
M  V30 43 1 2 38
M  V30 44 1 2 39
M  V30 45 1 7 40
M  V30 46 1 8 41
M  V30 47 1 11 42
M  V30 48 1 16 43
M  V30 49 1 16 44
M  V30 50 1 17 45
M  V30 51 1 17 46
M  V30 52 1 18 47
M  V30 53 1 18 48
M  V30 54 1 19 49 CFG=3
M  V30 55 1 21 50
M  V30 56 1 22 51
M  V30 57 1 28 52
M  V30 58 1 29 53
M  V30 59 1 30 54
M  V30 60 1 31 55
M  V30 61 1 33 56
M  V30 END BOND
M  V30 END CTAB
M  END
>  <Dataset>  (205) 
ChEMBL_Kinases

>  <Ligand_Instance>  (205) 
nan

>  <PDB_ID>  (205) 
nan

>  <Standardized_SMILES>  (205) 
CCOC(=O)c1[nH]cc2c1NC1=C(C(=O)CCC1)[C@@H]2c1ccc(Sc2nc3ccccc3[nH]2)o1

>  <Name>  (205) 
nan

>  <Pocket>  (205) 
nan

>  <ATP_Site>  (205) 
nan

>  <Peripheral>  (205) 
nan

>  <Num_H_Atoms_ProtBoundConf>  (205) 
nan

>  <Num_Resolved_Atoms>  (205) 
nan

>  <Num_Not_Resolved_Atoms>  (205) 
nan

$$$$
CHEMBL3663733
     RDKit          3D

  0  0  0  0  0  0  0  0  0  0999 V3000
M  V30 BEGIN CTAB
M  V30 COUNTS 56 61 0 0 0
M  V30 BEGIN ATOM
M  V30 1 C 1.960583 -1.726404 4.624461 0
M  V30 2 C 2.372388 -0.285439 4.685237 0
M  V30 3 C 2.538746 0.354808 3.367702 0
M  V30 4 N 3.647768 0.693095 2.656768 0
M  V30 5 C 3.316624 1.267849 1.486370 0
M  V30 6 C 1.941476 1.297405 1.449504 0
M  V30 7 C 1.428667 0.733113 2.612607 0
M  V30 8 N 0.017024 0.641367 2.820252 0
M  V30 9 C -0.923093 1.105171 1.882705 0
M  V30 10 C -0.400669 1.630922 0.798493 0
M  V30 11 C -1.389856 2.118018 -0.186116 0
M  V30 12 O -1.090696 2.296591 -1.414257 0
M  V30 13 C -2.805314 2.441621 0.154132 0
M  V30 14 C -2.959524 2.383592 1.677433 0
M  V30 15 C -2.398636 1.021259 2.074169 0
M  V30 16 C 0.998401 1.817244 0.402015 0
M  V30 17 C 1.238619 1.191441 -0.924590 0
M  V30 18 C 2.007675 1.738096 -1.911778 0
M  V30 19 C 2.158435 1.051325 -3.114492 0
M  V30 20 C 1.516214 -0.185774 -3.282039 0
M  V30 21 C 0.723015 -0.748764 -2.262453 0
M  V30 22 O 0.270037 -1.931010 -2.775531 0
M  V30 23 C -0.518485 -2.863763 -2.155633 0
M  V30 24 N -0.712620 -3.868380 -3.059139 0
M  V30 25 C -1.490267 -4.828264 -2.501252 0
M  V30 26 C -2.042093 -6.053402 -2.848231 0
M  V30 27 C -2.819522 -6.789703 -1.987475 0
M  V30 28 C -3.079199 -6.318848 -0.721972 0
M  V30 29 C -2.572000 -5.103717 -0.281822 0
M  V30 30 C -1.802146 -4.427550 -1.206517 0
M  V30 31 N -1.187420 -3.242879 -1.067489 0
M  V30 32 C 0.616955 -0.017975 -1.101614 0
M  V30 33 H 2.391305 -2.273419 5.486653 0
M  V30 34 H 0.858182 -1.865886 4.680476 0
M  V30 35 H 2.371736 -2.189745 3.713205 0
M  V30 36 H 3.317163 -0.221164 5.275996 0
M  V30 37 H 1.621775 0.313581 5.264862 0
M  V30 38 H 4.594941 0.478797 3.079673 0
M  V30 39 H 4.051156 1.613373 0.767673 0
M  V30 40 H -0.345630 0.205604 3.720229 0
M  V30 41 H -3.518524 1.708820 -0.270477 0
M  V30 42 H -3.029660 3.458320 -0.192607 0
M  V30 43 H -2.403131 3.225774 2.132890 0
M  V30 44 H -4.033030 2.479420 1.918930 0
M  V30 45 H -2.627217 0.747615 3.115001 0
M  V30 46 H -2.775345 0.293036 1.323289 0
M  V30 47 H 1.156841 2.910412 0.257217 0
M  V30 48 H 2.479206 2.700883 -1.720337 0
M  V30 49 H 2.785399 1.576546 -3.818228 0
M  V30 50 H 1.770325 -0.535558 -4.283582 0
M  V30 51 H -1.811779 -6.394843 -3.867441 0
M  V30 52 H -3.223238 -7.753597 -2.333483 0
M  V30 53 H -3.699175 -6.889453 -0.013831 0
M  V30 54 H -2.740954 -4.680609 0.698339 0
M  V30 55 H -1.129921 -2.570139 -0.287811 0
M  V30 56 H 0.001991 -0.534678 -0.413239 0
M  V30 END ATOM
M  V30 BEGIN BOND
M  V30 1 1 1 2
M  V30 2 1 2 3
M  V30 3 1 3 4
M  V30 4 1 4 5
M  V30 5 2 5 6
M  V30 6 1 6 7
M  V30 7 1 7 8
M  V30 8 1 8 9
M  V30 9 2 9 10
M  V30 10 1 10 11
M  V30 11 2 11 12
M  V30 12 1 11 13
M  V30 13 1 13 14
M  V30 14 1 14 15
M  V30 15 1 10 16
M  V30 16 1 16 17
M  V30 17 2 17 18
M  V30 18 1 18 19
M  V30 19 2 19 20
M  V30 20 1 20 21
M  V30 21 1 21 22
M  V30 22 1 22 23
M  V30 23 2 23 24
M  V30 24 1 24 25
M  V30 25 2 25 26
M  V30 26 1 26 27
M  V30 27 2 27 28
M  V30 28 1 28 29
M  V30 29 2 29 30
M  V30 30 1 30 31
M  V30 31 2 21 32
M  V30 32 2 7 3
M  V30 33 1 15 9
M  V30 34 1 32 17
M  V30 35 1 16 6
M  V30 36 1 31 23
M  V30 37 1 30 25
M  V30 38 1 1 33
M  V30 39 1 1 34
M  V30 40 1 1 35
M  V30 41 1 2 36
M  V30 42 1 2 37
M  V30 43 1 4 38
M  V30 44 1 5 39
M  V30 45 1 8 40
M  V30 46 1 13 41
M  V30 47 1 13 42
M  V30 48 1 14 43
M  V30 49 1 14 44
M  V30 50 1 15 45
M  V30 51 1 15 46
M  V30 52 1 16 47
M  V30 53 1 18 48
M  V30 54 1 19 49
M  V30 55 1 20 50
M  V30 56 1 26 51
M  V30 57 1 27 52
M  V30 58 1 28 53
M  V30 59 1 29 54
M  V30 60 1 31 55
M  V30 61 1 32 56
M  V30 END BOND
M  V30 END CTAB
M  END
>  <Dataset>  (206) 
ChEMBL_Kinases

>  <Ligand_Instance>  (206) 
nan

>  <PDB_ID>  (206) 
nan

>  <Standardized_SMILES>  (206) 
CCc1[nH]cc2c1NC1=C(C(=O)CCC1)C2c1cccc(Oc2nc3ccccc3[nH]2)c1

>  <Name>  (206) 
nan

>  <Pocket>  (206) 
nan

>  <ATP_Site>  (206) 
nan

>  <Peripheral>  (206) 
nan

>  <Num_H_Atoms_ProtBoundConf>  (206) 
nan

>  <Num_Resolved_Atoms>  (206) 
nan

>  <Num_Not_Resolved_Atoms>  (206) 
nan

$$$$
CHEMBL3663734
     RDKit          3D

  0  0  0  0  0  0  0  0  0  0999 V3000
M  V30 BEGIN CTAB
M  V30 COUNTS 56 61 0 0 0
M  V30 BEGIN ATOM
M  V30 1 C 0.903766 -2.557775 3.843153 0
M  V30 2 C 2.275134 -1.877231 3.766636 0
M  V30 3 C 2.471948 -1.354703 2.396109 0
M  V30 4 N 3.211458 -1.807365 1.380858 0
M  V30 5 C 3.110574 -1.027041 0.285599 0
M  V30 6 C 2.244541 -0.001620 0.623659 0
M  V30 7 C 1.852753 -0.213374 1.937253 0
M  V30 8 N 0.957341 0.730446 2.488546 0
M  V30 9 C 0.461513 1.849783 1.769087 0
M  V30 10 C 0.862799 2.009936 0.519891 0
M  V30 11 C 0.329335 3.171663 -0.181596 0
M  V30 12 O 0.218865 3.249291 -1.432636 0
M  V30 13 C -0.157242 4.421850 0.474460 0
M  V30 14 C 0.045566 4.248100 1.960763 0
M  V30 15 C -0.475499 2.859004 2.309476 0
M  V30 16 C 1.788172 1.144279 -0.242463 0
M  V30 17 C 1.051162 0.595535 -1.438324 0
M  V30 18 C 1.646899 0.287556 -2.650983 0
M  V30 19 C 0.871325 -0.215219 -3.684823 0
M  V30 20 C -0.486978 -0.425028 -3.556632 0
M  V30 21 C -1.063132 -0.112805 -2.342344 0
M  V30 22 S -2.828407 -0.328880 -2.002599 0
M  V30 23 C -3.042294 -1.999358 -1.341565 0
M  V30 24 N -4.169861 -2.612194 -0.941866 0
M  V30 25 C -3.832613 -3.862486 -0.519926 0
M  V30 26 C -4.542191 -4.935901 -0.008137 0
M  V30 27 C -3.904302 -6.117144 0.343055 0
M  V30 28 C -2.544764 -6.272037 0.198584 0
M  V30 29 C -1.817446 -5.213948 -0.310020 0
M  V30 30 C -2.451713 -4.038412 -0.659715 0
M  V30 31 N -1.997333 -2.857690 -1.173373 0
M  V30 32 C -0.310069 0.396504 -1.277540 0
M  V30 33 H 0.724567 -2.943087 4.847256 0
M  V30 34 H 0.090873 -1.906989 3.479039 0
M  V30 35 H 1.001785 -3.469482 3.183942 0
M  V30 36 H 3.001949 -2.660115 4.052109 0
M  V30 37 H 2.299954 -1.103400 4.548578 0
M  V30 38 H 3.802735 -2.669707 1.428178 0
M  V30 39 H 3.609271 -1.181764 -0.657283 0
M  V30 40 H 0.631304 0.614368 3.478909 0
M  V30 41 H -1.222541 4.617777 0.278348 0
M  V30 42 H 0.457984 5.256921 0.072829 0
M  V30 43 H 1.116138 4.376291 2.221287 0
M  V30 44 H -0.532155 5.024754 2.511825 0
M  V30 45 H -0.626122 2.751117 3.392645 0
M  V30 46 H -1.486043 2.788922 1.840303 0
M  V30 47 H 2.645928 1.767765 -0.561083 0
M  V30 48 H 2.703644 0.456854 -2.735272 0
M  V30 49 H 1.352337 -0.452354 -4.628414 0
M  V30 50 H -1.123210 -0.814277 -4.339611 0
M  V30 51 H -5.604061 -4.848816 0.117983 0
M  V30 52 H -4.431875 -6.973547 0.745666 0
M  V30 53 H -1.980031 -7.160133 0.450220 0
M  V30 54 H -0.731859 -5.311655 -0.435552 0
M  V30 55 H -0.973387 -2.735546 -1.372783 0
M  V30 56 H -0.782989 0.636502 -0.328862 0
M  V30 END ATOM
M  V30 BEGIN BOND
M  V30 1 1 1 2
M  V30 2 1 2 3
M  V30 3 1 3 4
M  V30 4 1 4 5
M  V30 5 2 5 6
M  V30 6 1 6 7
M  V30 7 1 7 8
M  V30 8 1 8 9
M  V30 9 2 9 10
M  V30 10 1 10 11
M  V30 11 2 11 12
M  V30 12 1 11 13
M  V30 13 1 13 14
M  V30 14 1 14 15
M  V30 15 1 10 16
M  V30 16 1 16 17
M  V30 17 2 17 18
M  V30 18 1 18 19
M  V30 19 2 19 20
M  V30 20 1 20 21
M  V30 21 1 21 22
M  V30 22 1 22 23
M  V30 23 2 23 24
M  V30 24 1 24 25
M  V30 25 2 25 26
M  V30 26 1 26 27
M  V30 27 2 27 28
M  V30 28 1 28 29
M  V30 29 2 29 30
M  V30 30 1 30 31
M  V30 31 2 21 32
M  V30 32 2 7 3
M  V30 33 1 15 9
M  V30 34 1 32 17
M  V30 35 1 16 6
M  V30 36 1 31 23
M  V30 37 1 30 25
M  V30 38 1 1 33
M  V30 39 1 1 34
M  V30 40 1 1 35
M  V30 41 1 2 36
M  V30 42 1 2 37
M  V30 43 1 4 38
M  V30 44 1 5 39
M  V30 45 1 8 40
M  V30 46 1 13 41
M  V30 47 1 13 42
M  V30 48 1 14 43
M  V30 49 1 14 44
M  V30 50 1 15 45
M  V30 51 1 15 46
M  V30 52 1 16 47
M  V30 53 1 18 48
M  V30 54 1 19 49
M  V30 55 1 20 50
M  V30 56 1 26 51
M  V30 57 1 27 52
M  V30 58 1 28 53
M  V30 59 1 29 54
M  V30 60 1 31 55
M  V30 61 1 32 56
M  V30 END BOND
M  V30 END CTAB
M  END
>  <Dataset>  (207) 
ChEMBL_Kinases

>  <Ligand_Instance>  (207) 
nan

>  <PDB_ID>  (207) 
nan

>  <Standardized_SMILES>  (207) 
CCc1[nH]cc2c1NC1=C(C(=O)CCC1)C2c1cccc(Sc2nc3ccccc3[nH]2)c1

>  <Name>  (207) 
nan

>  <Pocket>  (207) 
nan

>  <ATP_Site>  (207) 
nan

>  <Peripheral>  (207) 
nan

>  <Num_H_Atoms_ProtBoundConf>  (207) 
nan

>  <Num_Resolved_Atoms>  (207) 
nan

>  <Num_Not_Resolved_Atoms>  (207) 
nan

$$$$
CHEMBL3663735
     RDKit          3D

  0  0  0  0  0  0  0  0  0  0999 V3000
M  V30 BEGIN CTAB
M  V30 COUNTS 49 54 0 0 0
M  V30 BEGIN ATOM
M  V30 1 O 3.419278 -1.457950 2.366994 0
M  V30 2 C 3.339825 -2.589411 1.859978 0
M  V30 3 C 4.382739 -3.609758 2.229782 0
M  V30 4 C 4.183422 -4.865472 1.418693 0
M  V30 5 C 3.856380 -4.526183 -0.038269 0
M  V30 6 C 2.522968 -3.867056 0.015334 0
M  V30 7 C 2.268569 -2.931726 0.929530 0
M  V30 8 C 0.959025 -2.209800 1.065479 0
M  V30 9 C 1.141063 -0.742475 0.988887 0
M  V30 10 C 2.069926 -0.073847 0.241742 0
M  V30 11 C 2.169287 1.303027 0.230028 0
M  V30 12 C 1.316976 2.082301 0.988373 0
M  V30 13 C 0.356704 1.470473 1.764933 0
M  V30 14 O -0.568743 2.147247 2.579499 0
M  V30 15 C -1.779513 2.482671 1.946365 0
M  V30 16 N -2.099548 2.211576 0.667931 0
M  V30 17 C -3.313209 2.650915 0.351745 0
M  V30 18 C -4.103331 2.637726 -0.778173 0
M  V30 19 C -5.366200 3.184946 -0.828986 0
M  V30 20 C -5.865814 3.781530 0.324813 0
M  V30 21 C -5.065671 3.786531 1.443255 0
M  V30 22 C -3.799083 3.240077 1.501557 0
M  V30 23 N -2.852859 3.122985 2.444315 0
M  V30 24 C 0.301572 0.089233 1.739181 0
M  V30 25 C 0.005449 -2.691420 0.039773 0
M  V30 26 C -1.292208 -2.221292 -0.099305 0
M  V30 27 N -1.839339 -2.903261 -1.140750 0
M  V30 28 N -0.929973 -3.752986 -1.624216 0
M  V30 29 C 0.206404 -3.657780 -0.936423 0
M  V30 30 N 1.506964 -4.233803 -0.914082 0
M  V30 31 H 4.177259 -3.866061 3.298755 0
M  V30 32 H 5.403556 -3.214809 2.189147 0
M  V30 33 H 5.051372 -5.520004 1.515926 0
M  V30 34 H 3.280962 -5.402989 1.802531 0
M  V30 35 H 3.723301 -5.498792 -0.552977 0
M  V30 36 H 4.616811 -3.886960 -0.502436 0
M  V30 37 H 0.508168 -2.432680 2.057058 0
M  V30 38 H 2.744253 -0.687012 -0.358064 0
M  V30 39 H 2.901355 1.820527 -0.359311 0
M  V30 40 H 1.313333 3.163260 1.047928 0
M  V30 41 H -3.673128 2.162669 -1.652312 0
M  V30 42 H -5.953434 3.155382 -1.729806 0
M  V30 43 H -6.846875 4.231025 0.360664 0
M  V30 44 H -5.477083 4.259847 2.337920 0
M  V30 45 H -2.931915 3.475183 3.423067 0
M  V30 46 H -0.459680 -0.410072 2.354046 0
M  V30 47 H -1.852145 -1.458952 0.465386 0
M  V30 48 H -2.767047 -2.875332 -1.584277 0
M  V30 49 H 1.702779 -4.978698 -1.645625 0
M  V30 END ATOM
M  V30 BEGIN BOND
M  V30 1 2 1 2
M  V30 2 1 2 3
M  V30 3 1 3 4
M  V30 4 1 4 5
M  V30 5 1 5 6
M  V30 6 2 6 7
M  V30 7 1 7 8
M  V30 8 1 8 9
M  V30 9 2 9 10
M  V30 10 1 10 11
M  V30 11 2 11 12
M  V30 12 1 12 13
M  V30 13 1 13 14
M  V30 14 1 14 15
M  V30 15 2 15 16
M  V30 16 1 16 17
M  V30 17 2 17 18
M  V30 18 1 18 19
M  V30 19 2 19 20
M  V30 20 1 20 21
M  V30 21 2 21 22
M  V30 22 1 22 23
M  V30 23 2 13 24
M  V30 24 1 8 25
M  V30 25 2 25 26
M  V30 26 1 26 27
M  V30 27 1 27 28
M  V30 28 2 28 29
M  V30 29 1 29 30
M  V30 30 1 7 2
M  V30 31 1 24 9
M  V30 32 1 29 25
M  V30 33 1 30 6
M  V30 34 1 23 15
M  V30 35 1 22 17
M  V30 36 1 3 31
M  V30 37 1 3 32
M  V30 38 1 4 33
M  V30 39 1 4 34
M  V30 40 1 5 35
M  V30 41 1 5 36
M  V30 42 1 8 37
M  V30 43 1 10 38
M  V30 44 1 11 39
M  V30 45 1 12 40
M  V30 46 1 18 41
M  V30 47 1 19 42
M  V30 48 1 20 43
M  V30 49 1 21 44
M  V30 50 1 23 45
M  V30 51 1 24 46
M  V30 52 1 26 47
M  V30 53 1 27 48
M  V30 54 1 30 49
M  V30 END BOND
M  V30 END CTAB
M  END
>  <Dataset>  (208) 
ChEMBL_Kinases

>  <Ligand_Instance>  (208) 
nan

>  <PDB_ID>  (208) 
nan

>  <Standardized_SMILES>  (208) 
O=C1CCCC2=C1C(c1cccc(Oc3nc4ccccc4[nH]3)c1)c1c[nH]nc1N2

>  <Name>  (208) 
nan

>  <Pocket>  (208) 
nan

>  <ATP_Site>  (208) 
nan

>  <Peripheral>  (208) 
nan

>  <Num_H_Atoms_ProtBoundConf>  (208) 
nan

>  <Num_Resolved_Atoms>  (208) 
nan

>  <Num_Not_Resolved_Atoms>  (208) 
nan

$$$$
CHEMBL3663736
     RDKit          3D

  0  0  0  0  0  0  0  0  0  0999 V3000
M  V30 BEGIN CTAB
M  V30 COUNTS 48 53 0 0 0
M  V30 BEGIN ATOM
M  V30 1 O 1.839965 -0.038820 -1.103183 0
M  V30 2 C 1.030713 -0.990635 -1.197683 0
M  V30 3 C -0.184984 -0.836601 -2.030104 0
M  V30 4 N -0.528579 -2.053897 -2.680090 0
M  V30 5 C -0.493744 -3.240467 -1.903140 0
M  V30 6 C 0.528729 -3.291205 -0.859273 0
M  V30 7 C 1.267364 -2.252024 -0.498832 0
M  V30 8 C 2.322751 -2.219089 0.547400 0
M  V30 9 C 2.077829 -1.149087 1.543274 0
M  V30 10 C 3.061869 -0.437335 2.200088 0
M  V30 11 C 2.812621 0.546192 3.115631 0
M  V30 12 C 1.514182 0.875797 3.428435 0
M  V30 13 C 0.478577 0.205782 2.810666 0
M  V30 14 O -0.876244 0.429436 3.025248 0
M  V30 15 C -1.518705 1.369374 2.228716 0
M  V30 16 N -1.151362 2.186312 1.225160 0
M  V30 17 C -2.217127 2.904418 0.809943 0
M  V30 18 C -2.293455 3.854138 -0.187438 0
M  V30 19 C -3.520931 4.455981 -0.422995 0
M  V30 20 C -4.617279 4.083342 0.347063 0
M  V30 21 C -4.503073 3.120452 1.345882 0
M  V30 22 C -3.275106 2.499107 1.602292 0
M  V30 23 N -2.843487 1.563755 2.464764 0
M  V30 24 C 0.765874 -0.794461 1.879402 0
M  V30 25 C 2.424974 -3.558447 1.140014 0
M  V30 26 C 3.306577 -3.914395 2.154320 0
M  V30 27 N 3.113140 -5.230255 2.441846 0
M  V30 28 N 2.146928 -5.682710 1.638497 0
M  V30 29 C 1.711538 -4.693842 0.840051 0
M  V30 30 N 0.743707 -4.530598 -0.190195 0
M  V30 31 H -0.049733 -0.057177 -2.805229 0
M  V30 32 H -1.062306 -0.492073 -1.428875 0
M  V30 33 H -0.116149 -2.128902 -3.629720 0
M  V30 34 H -0.265518 -4.087284 -2.614221 0
M  V30 35 H -1.473602 -3.541118 -1.451615 0
M  V30 36 H 3.292226 -2.048647 -0.002777 0
M  V30 37 H 4.090639 -0.705747 1.945490 0
M  V30 38 H 3.613056 1.073446 3.601848 0
M  V30 39 H 1.230725 1.632230 4.133026 0
M  V30 40 H -1.408818 4.109217 -0.759669 0
M  V30 41 H -3.588475 5.200426 -1.202171 0
M  V30 42 H -5.558687 4.567974 0.141591 0
M  V30 43 H -5.370740 2.830625 1.949840 0
M  V30 44 H -3.526834 1.146678 3.143798 0
M  V30 45 H -0.024575 -1.345294 1.371207 0
M  V30 46 H 4.048583 -3.333453 2.685826 0
M  V30 47 H 3.623161 -5.800288 3.161878 0
M  V30 48 H 0.167813 -5.368041 -0.461262 0
M  V30 END ATOM
M  V30 BEGIN BOND
M  V30 1 2 1 2
M  V30 2 1 2 3
M  V30 3 1 3 4
M  V30 4 1 4 5
M  V30 5 1 5 6
M  V30 6 2 6 7
M  V30 7 1 7 8
M  V30 8 1 8 9
M  V30 9 2 9 10
M  V30 10 1 10 11
M  V30 11 2 11 12
M  V30 12 1 12 13
M  V30 13 1 13 14
M  V30 14 1 14 15
M  V30 15 2 15 16
M  V30 16 1 16 17
M  V30 17 2 17 18
M  V30 18 1 18 19
M  V30 19 2 19 20
M  V30 20 1 20 21
M  V30 21 2 21 22
M  V30 22 1 22 23
M  V30 23 2 13 24
M  V30 24 1 8 25
M  V30 25 2 25 26
M  V30 26 1 26 27
M  V30 27 1 27 28
M  V30 28 2 28 29
M  V30 29 1 29 30
M  V30 30 1 7 2
M  V30 31 1 24 9
M  V30 32 1 29 25
M  V30 33 1 30 6
M  V30 34 1 23 15
M  V30 35 1 22 17
M  V30 36 1 3 31
M  V30 37 1 3 32
M  V30 38 1 4 33
M  V30 39 1 5 34
M  V30 40 1 5 35
M  V30 41 1 8 36
M  V30 42 1 10 37
M  V30 43 1 11 38
M  V30 44 1 12 39
M  V30 45 1 18 40
M  V30 46 1 19 41
M  V30 47 1 20 42
M  V30 48 1 21 43
M  V30 49 1 23 44
M  V30 50 1 24 45
M  V30 51 1 26 46
M  V30 52 1 27 47
M  V30 53 1 30 48
M  V30 END BOND
M  V30 END CTAB
M  END
>  <Dataset>  (209) 
ChEMBL_Kinases

>  <Ligand_Instance>  (209) 
nan

>  <PDB_ID>  (209) 
nan

>  <Standardized_SMILES>  (209) 
O=C1CNCC2=C1C(c1cccc(Oc3nc4ccccc4[nH]3)c1)c1c[nH]nc1N2

>  <Name>  (209) 
nan

>  <Pocket>  (209) 
nan

>  <ATP_Site>  (209) 
nan

>  <Peripheral>  (209) 
nan

>  <Num_H_Atoms_ProtBoundConf>  (209) 
nan

>  <Num_Resolved_Atoms>  (209) 
nan

>  <Num_Not_Resolved_Atoms>  (209) 
nan

$$$$
CHEMBL3663737
     RDKit          3D

  0  0  0  0  0  0  0  0  0  0999 V3000
M  V30 BEGIN CTAB
M  V30 COUNTS 62 67 0 0 0
M  V30 BEGIN ATOM
M  V30 1 C 3.093150 -1.124996 3.733449 0
M  V30 2 C 3.855769 -0.084778 2.972231 0
M  V30 3 C 3.357783 0.034374 1.570632 0
M  V30 4 N 3.966699 -0.452060 0.461763 0
M  V30 5 C 3.208428 -0.140435 -0.591118 0
M  V30 6 C 2.095206 0.555131 -0.166514 0
M  V30 7 C 2.187029 0.667708 1.204661 0
M  V30 8 N 1.136941 1.356563 1.872730 0
M  V30 9 C 0.029266 1.908049 1.131863 0
M  V30 10 C -0.020504 1.777193 -0.183719 0
M  V30 11 C -1.190333 2.375437 -0.835992 0
M  V30 12 O -1.594916 1.930518 -1.942535 0
M  V30 13 C -1.826317 3.515108 -0.090252 0
M  V30 14 C -2.192085 2.977458 1.274682 0
M  V30 15 C -2.921957 4.061491 2.038639 0
M  V30 16 C -3.129156 1.784083 1.096630 0
M  V30 17 C -0.946756 2.580599 2.002726 0
M  V30 18 C 0.999656 1.087195 -1.007971 0
M  V30 19 C 0.303156 -0.020984 -1.727280 0
M  V30 20 C 0.751460 -0.370076 -2.994847 0
M  V30 21 C 0.200223 -1.372585 -3.764694 0
M  V30 22 C -0.858388 -2.047423 -3.209280 0
M  V30 23 C -1.317148 -1.709091 -1.942716 0
M  V30 24 O -2.401190 -2.468905 -1.485760 0
M  V30 25 C -2.176358 -3.657899 -0.762754 0
M  V30 26 N -3.064505 -4.530569 -0.237646 0
M  V30 27 C -2.385277 -5.527036 0.370660 0
M  V30 28 C -2.714384 -6.674332 1.065066 0
M  V30 29 C -1.761422 -7.524147 1.585596 0
M  V30 30 C -0.412508 -7.262142 1.433595 0
M  V30 31 C -0.034608 -6.110218 0.736588 0
M  V30 32 C -1.033686 -5.292670 0.235414 0
M  V30 33 N -0.940859 -4.144157 -0.461184 0
M  V30 34 C -0.761080 -0.705022 -1.178034 0
M  V30 35 H 2.478307 -0.683850 4.537111 0
M  V30 36 H 2.473027 -1.722415 3.028904 0
M  V30 37 H 3.774412 -1.870956 4.224028 0
M  V30 38 H 4.923362 -0.382173 2.955210 0
M  V30 39 H 3.830939 0.913391 3.481312 0
M  V30 40 H 4.884765 -0.981945 0.472299 0
M  V30 41 H 3.512175 -0.438403 -1.602715 0
M  V30 42 H 1.255137 1.413589 2.909708 0
M  V30 43 H -1.142437 4.359128 -0.009458 0
M  V30 44 H -2.781614 3.755570 -0.596054 0
M  V30 45 H -2.503196 5.069983 1.758114 0
M  V30 46 H -4.001304 4.108105 1.786610 0
M  V30 47 H -2.849703 3.924457 3.130882 0
M  V30 48 H -2.828501 1.167550 0.225280 0
M  V30 49 H -4.162633 2.164937 0.861537 0
M  V30 50 H -3.192219 1.191222 2.038748 0
M  V30 51 H -0.463968 3.506518 2.382083 0
M  V30 52 H -1.176232 1.969427 2.908415 0
M  V30 53 H 1.402145 1.780449 -1.791358 0
M  V30 54 H 1.592737 0.168054 -3.433010 0
M  V30 55 H 0.568340 -1.619044 -4.739442 0
M  V30 56 H -1.315596 -2.848016 -3.796906 0
M  V30 57 H -3.777594 -6.883459 1.186343 0
M  V30 58 H -2.031787 -8.434641 2.136536 0
M  V30 59 H 0.390508 -7.872596 1.808302 0
M  V30 60 H 1.017022 -5.838681 0.577070 0
M  V30 61 H -0.049451 -3.664424 -0.747789 0
M  V30 62 H -1.129153 -0.465399 -0.212681 0
M  V30 END ATOM
M  V30 BEGIN BOND
M  V30 1 1 1 2
M  V30 2 1 2 3
M  V30 3 1 3 4
M  V30 4 1 4 5
M  V30 5 2 5 6
M  V30 6 1 6 7
M  V30 7 1 7 8
M  V30 8 1 8 9
M  V30 9 2 9 10
M  V30 10 1 10 11
M  V30 11 2 11 12
M  V30 12 1 11 13
M  V30 13 1 13 14
M  V30 14 1 14 15
M  V30 15 1 14 16
M  V30 16 1 14 17
M  V30 17 1 10 18
M  V30 18 1 18 19
M  V30 19 2 19 20
M  V30 20 1 20 21
M  V30 21 2 21 22
M  V30 22 1 22 23
M  V30 23 1 23 24
M  V30 24 1 24 25
M  V30 25 2 25 26
M  V30 26 1 26 27
M  V30 27 2 27 28
M  V30 28 1 28 29
M  V30 29 2 29 30
M  V30 30 1 30 31
M  V30 31 2 31 32
M  V30 32 1 32 33
M  V30 33 2 23 34
M  V30 34 2 7 3
M  V30 35 1 17 9
M  V30 36 1 34 19
M  V30 37 1 18 6
M  V30 38 1 33 25
M  V30 39 1 32 27
M  V30 40 1 1 35
M  V30 41 1 1 36
M  V30 42 1 1 37
M  V30 43 1 2 38
M  V30 44 1 2 39
M  V30 45 1 4 40
M  V30 46 1 5 41
M  V30 47 1 8 42
M  V30 48 1 13 43
M  V30 49 1 13 44
M  V30 50 1 15 45
M  V30 51 1 15 46
M  V30 52 1 15 47
M  V30 53 1 16 48
M  V30 54 1 16 49
M  V30 55 1 16 50
M  V30 56 1 17 51
M  V30 57 1 17 52
M  V30 58 1 18 53
M  V30 59 1 20 54
M  V30 60 1 21 55
M  V30 61 1 22 56
M  V30 62 1 28 57
M  V30 63 1 29 58
M  V30 64 1 30 59
M  V30 65 1 31 60
M  V30 66 1 33 61
M  V30 67 1 34 62
M  V30 END BOND
M  V30 END CTAB
M  END
>  <Dataset>  (210) 
ChEMBL_Kinases

>  <Ligand_Instance>  (210) 
nan

>  <PDB_ID>  (210) 
nan

>  <Standardized_SMILES>  (210) 
CCc1[nH]cc2c1NC1=C(C(=O)CC(C)(C)C1)C2c1cccc(Oc2nc3ccccc3[nH]2)c1

>  <Name>  (210) 
nan

>  <Pocket>  (210) 
nan

>  <ATP_Site>  (210) 
nan

>  <Peripheral>  (210) 
nan

>  <Num_H_Atoms_ProtBoundConf>  (210) 
nan

>  <Num_Resolved_Atoms>  (210) 
nan

>  <Num_Not_Resolved_Atoms>  (210) 
nan

$$$$
CHEMBL3663738
     RDKit          3D

  0  0  0  0  0  0  0  0  0  0999 V3000
M  V30 BEGIN CTAB
M  V30 COUNTS 62 67 0 0 0
M  V30 BEGIN ATOM
M  V30 1 C 2.817085 -1.280988 3.823424 0
M  V30 2 C 3.662918 -0.194595 3.191137 0
M  V30 3 C 3.310446 -0.002894 1.750827 0
M  V30 4 N 3.972560 -0.404040 0.644310 0
M  V30 5 C 3.267134 -0.002477 -0.452166 0
M  V30 6 C 2.125759 0.672538 -0.010278 0
M  V30 7 C 2.164108 0.665735 1.377594 0
M  V30 8 N 1.059178 1.322543 2.018755 0
M  V30 9 C 0.008824 1.931172 1.257786 0
M  V30 10 C 0.053101 1.889797 -0.063383 0
M  V30 11 C -1.079723 2.547851 -0.729991 0
M  V30 12 O -1.434218 2.238151 -1.897502 0
M  V30 13 C -1.797706 3.614592 0.056059 0
M  V30 14 C -2.235315 2.965818 1.352160 0
M  V30 15 C -3.018648 4.007482 2.125774 0
M  V30 16 C -3.087369 1.754151 1.060659 0
M  V30 17 C -1.015419 2.544090 2.106111 0
M  V30 18 C 1.099303 1.264848 -0.884317 0
M  V30 19 C 0.458924 0.227798 -1.738291 0
M  V30 20 C 0.969378 -0.072435 -2.981615 0
M  V30 21 C 0.425034 -1.013649 -3.806266 0
M  V30 22 C -0.701511 -1.708726 -3.377245 0
M  V30 23 C -1.206540 -1.401742 -2.130274 0
M  V30 24 S -2.669202 -2.285447 -1.536523 0
M  V30 25 C -2.135893 -3.762670 -0.642139 0
M  V30 26 N -1.852395 -3.919030 0.670979 0
M  V30 27 C -1.489899 -5.215176 0.880431 0
M  V30 28 C -1.104252 -5.938705 1.980072 0
M  V30 29 C -0.781701 -7.293856 1.894649 0
M  V30 30 C -0.883407 -7.837671 0.619555 0
M  V30 31 C -1.268379 -7.151569 -0.527194 0
M  V30 32 C -1.573309 -5.807440 -0.361434 0
M  V30 33 N -1.970477 -4.934013 -1.323457 0
M  V30 34 C -0.657826 -0.447586 -1.289868 0
M  V30 35 H 2.177892 -0.818241 4.602116 0
M  V30 36 H 2.240306 -1.762422 3.019050 0
M  V30 37 H 3.437450 -2.070773 4.293155 0
M  V30 38 H 4.720549 -0.509367 3.272948 0
M  V30 39 H 3.563288 0.770699 3.717747 0
M  V30 40 H 4.870149 -0.931037 0.647066 0
M  V30 41 H 3.594297 -0.206216 -1.478187 0
M  V30 42 H 1.117450 1.300419 3.065019 0
M  V30 43 H -1.087979 4.428119 0.247715 0
M  V30 44 H -2.695445 3.926785 -0.510141 0
M  V30 45 H -2.587412 5.038737 1.960309 0
M  V30 46 H -4.066340 4.087211 1.754904 0
M  V30 47 H -3.068287 3.826377 3.201089 0
M  V30 48 H -2.971752 1.452468 0.010098 0
M  V30 49 H -4.177587 1.963153 1.201120 0
M  V30 50 H -2.838818 0.938507 1.791971 0
M  V30 51 H -0.542848 3.440072 2.604495 0
M  V30 52 H -1.333777 1.837666 2.921289 0
M  V30 53 H 1.560434 2.040350 -1.555429 0
M  V30 54 H 1.857938 0.449354 -3.365102 0
M  V30 55 H 0.822674 -1.257163 -4.791011 0
M  V30 56 H -1.149172 -2.462799 -4.021324 0
M  V30 57 H -1.047653 -5.446036 2.943932 0
M  V30 58 H -0.477310 -7.891010 2.726855 0
M  V30 59 H -0.641143 -8.902587 0.489621 0
M  V30 60 H -1.313860 -7.672749 -1.472911 0
M  V30 61 H -2.109984 -5.129695 -2.336024 0
M  V30 62 H -1.084805 -0.233918 -0.315003 0
M  V30 END ATOM
M  V30 BEGIN BOND
M  V30 1 1 1 2
M  V30 2 1 2 3
M  V30 3 1 3 4
M  V30 4 1 4 5
M  V30 5 2 5 6
M  V30 6 1 6 7
M  V30 7 1 7 8
M  V30 8 1 8 9
M  V30 9 2 9 10
M  V30 10 1 10 11
M  V30 11 2 11 12
M  V30 12 1 11 13
M  V30 13 1 13 14
M  V30 14 1 14 15
M  V30 15 1 14 16
M  V30 16 1 14 17
M  V30 17 1 10 18
M  V30 18 1 18 19
M  V30 19 2 19 20
M  V30 20 1 20 21
M  V30 21 2 21 22
M  V30 22 1 22 23
M  V30 23 1 23 24
M  V30 24 1 24 25
M  V30 25 2 25 26
M  V30 26 1 26 27
M  V30 27 2 27 28
M  V30 28 1 28 29
M  V30 29 2 29 30
M  V30 30 1 30 31
M  V30 31 2 31 32
M  V30 32 1 32 33
M  V30 33 2 23 34
M  V30 34 2 7 3
M  V30 35 1 17 9
M  V30 36 1 34 19
M  V30 37 1 18 6
M  V30 38 1 33 25
M  V30 39 1 32 27
M  V30 40 1 1 35
M  V30 41 1 1 36
M  V30 42 1 1 37
M  V30 43 1 2 38
M  V30 44 1 2 39
M  V30 45 1 4 40
M  V30 46 1 5 41
M  V30 47 1 8 42
M  V30 48 1 13 43
M  V30 49 1 13 44
M  V30 50 1 15 45
M  V30 51 1 15 46
M  V30 52 1 15 47
M  V30 53 1 16 48
M  V30 54 1 16 49
M  V30 55 1 16 50
M  V30 56 1 17 51
M  V30 57 1 17 52
M  V30 58 1 18 53
M  V30 59 1 20 54
M  V30 60 1 21 55
M  V30 61 1 22 56
M  V30 62 1 28 57
M  V30 63 1 29 58
M  V30 64 1 30 59
M  V30 65 1 31 60
M  V30 66 1 33 61
M  V30 67 1 34 62
M  V30 END BOND
M  V30 END CTAB
M  END
>  <Dataset>  (211) 
ChEMBL_Kinases

>  <Ligand_Instance>  (211) 
nan

>  <PDB_ID>  (211) 
nan

>  <Standardized_SMILES>  (211) 
CCc1[nH]cc2c1NC1=C(C(=O)CC(C)(C)C1)C2c1cccc(Sc2nc3ccccc3[nH]2)c1

>  <Name>  (211) 
nan

>  <Pocket>  (211) 
nan

>  <ATP_Site>  (211) 
nan

>  <Peripheral>  (211) 
nan

>  <Num_H_Atoms_ProtBoundConf>  (211) 
nan

>  <Num_Resolved_Atoms>  (211) 
nan

>  <Num_Not_Resolved_Atoms>  (211) 
nan

$$$$
CHEMBL3663739
     RDKit          3D

  0  0  0  0  0  0  0  0  0  0999 V3000
M  V30 BEGIN CTAB
M  V30 COUNTS 55 60 0 0 0
M  V30 BEGIN ATOM
M  V30 1 C 0.869277 -1.529081 5.463579 0
M  V30 2 C 2.145414 -1.419972 4.658174 0
M  V30 3 C 1.899926 -1.123560 3.231072 0
M  V30 4 N 1.972013 -1.965188 2.179078 0
M  V30 5 C 1.672570 -1.282957 1.064374 0
M  V30 6 C 1.388333 0.055325 1.352550 0
M  V30 7 C 1.545007 0.098504 2.716359 0
M  V30 8 N 1.315828 1.374008 3.334575 0
M  V30 9 C 0.949516 2.520696 2.582151 0
M  V30 10 C 0.822008 2.384142 1.274364 0
M  V30 11 C 0.442237 3.591886 0.530815 0
M  V30 12 O -0.130850 3.579996 -0.593293 0
M  V30 13 C 0.733578 4.948440 1.103610 0
M  V30 14 N 1.351998 4.843374 2.403090 0
M  V30 15 C 0.714499 3.837821 3.231741 0
M  V30 16 C 1.013481 1.164595 0.453122 0
M  V30 17 C -0.318798 0.894827 -0.190311 0
M  V30 18 C -1.531478 1.265345 0.365776 0
M  V30 19 C -2.718480 0.991638 -0.272927 0
M  V30 20 C -2.719253 0.329442 -1.503972 0
M  V30 21 C -1.501088 -0.048941 -2.073987 0
M  V30 22 S -1.475936 -0.896514 -3.649875 0
M  V30 23 C -1.555806 -2.668456 -3.411929 0
M  V30 24 N -0.432871 -3.416362 -3.273637 0
M  V30 25 C -0.788682 -4.724225 -3.107723 0
M  V30 26 C -0.050746 -5.875816 -2.927451 0
M  V30 27 C -0.763474 -7.053441 -2.791104 0
M  V30 28 C -2.145061 -7.082145 -2.832432 0
M  V30 29 C -2.864266 -5.905125 -3.015715 0
M  V30 30 C -2.169344 -4.703206 -3.155840 0
M  V30 31 N -2.642478 -3.457507 -3.340512 0
M  V30 32 C -0.300749 0.232371 -1.419629 0
M  V30 33 H 0.772027 -2.553790 5.920427 0
M  V30 34 H 0.893166 -0.744717 6.247035 0
M  V30 35 H -0.048665 -1.396488 4.857452 0
M  V30 36 H 2.718974 -2.359036 4.791213 0
M  V30 37 H 2.799916 -0.598293 5.037533 0
M  V30 38 H 2.226846 -2.965522 2.311249 0
M  V30 39 H 1.684163 -1.820233 0.112566 0
M  V30 40 H 1.416792 1.482066 4.368075 0
M  V30 41 H -0.173797 5.560044 1.185580 0
M  V30 42 H 1.468982 5.429041 0.422987 0
M  V30 43 H 2.345250 4.543238 2.307605 0
M  V30 44 H -0.347841 4.065749 3.399804 0
M  V30 45 H 1.248700 3.889641 4.224271 0
M  V30 46 H 1.770302 1.315192 -0.343538 0
M  V30 47 H -1.433942 1.771259 1.316145 0
M  V30 48 H -3.643951 1.305717 0.209776 0
M  V30 49 H -3.666253 0.118142 -2.000814 0
M  V30 50 H 1.022324 -5.849336 -2.896416 0
M  V30 51 H -0.221827 -7.977687 -2.647877 0
M  V30 52 H -2.687009 -8.021478 -2.722784 0
M  V30 53 H -3.948323 -5.870669 -3.056253 0
M  V30 54 H -3.611582 -3.139833 -3.415450 0
M  V30 55 H 0.634504 -0.083859 -1.905432 0
M  V30 END ATOM
M  V30 BEGIN BOND
M  V30 1 1 1 2
M  V30 2 1 2 3
M  V30 3 1 3 4
M  V30 4 1 4 5
M  V30 5 2 5 6
M  V30 6 1 6 7
M  V30 7 1 7 8
M  V30 8 1 8 9
M  V30 9 2 9 10
M  V30 10 1 10 11
M  V30 11 2 11 12
M  V30 12 1 11 13
M  V30 13 1 13 14
M  V30 14 1 14 15
M  V30 15 1 10 16
M  V30 16 1 16 17
M  V30 17 2 17 18
M  V30 18 1 18 19
M  V30 19 2 19 20
M  V30 20 1 20 21
M  V30 21 1 21 22
M  V30 22 1 22 23
M  V30 23 2 23 24
M  V30 24 1 24 25
M  V30 25 2 25 26
M  V30 26 1 26 27
M  V30 27 2 27 28
M  V30 28 1 28 29
M  V30 29 2 29 30
M  V30 30 1 30 31
M  V30 31 2 21 32
M  V30 32 2 7 3
M  V30 33 1 15 9
M  V30 34 1 32 17
M  V30 35 1 16 6
M  V30 36 1 31 23
M  V30 37 1 30 25
M  V30 38 1 1 33
M  V30 39 1 1 34
M  V30 40 1 1 35
M  V30 41 1 2 36
M  V30 42 1 2 37
M  V30 43 1 4 38
M  V30 44 1 5 39
M  V30 45 1 8 40
M  V30 46 1 13 41
M  V30 47 1 13 42
M  V30 48 1 14 43
M  V30 49 1 15 44
M  V30 50 1 15 45
M  V30 51 1 16 46
M  V30 52 1 18 47
M  V30 53 1 19 48
M  V30 54 1 20 49
M  V30 55 1 26 50
M  V30 56 1 27 51
M  V30 57 1 28 52
M  V30 58 1 29 53
M  V30 59 1 31 54
M  V30 60 1 32 55
M  V30 END BOND
M  V30 END CTAB
M  END
>  <Dataset>  (212) 
ChEMBL_Kinases

>  <Ligand_Instance>  (212) 
nan

>  <PDB_ID>  (212) 
nan

>  <Standardized_SMILES>  (212) 
CCc1[nH]cc2c1NC1=C(C(=O)CNC1)C2c1cccc(Sc2nc3ccccc3[nH]2)c1

>  <Name>  (212) 
nan

>  <Pocket>  (212) 
nan

>  <ATP_Site>  (212) 
nan

>  <Peripheral>  (212) 
nan

>  <Num_H_Atoms_ProtBoundConf>  (212) 
nan

>  <Num_Resolved_Atoms>  (212) 
nan

>  <Num_Not_Resolved_Atoms>  (212) 
nan

$$$$
CHEMBL3663740
     RDKit          3D

  0  0  0  0  0  0  0  0  0  0999 V3000
M  V30 BEGIN CTAB
M  V30 COUNTS 55 60 0 0 0
M  V30 BEGIN ATOM
M  V30 1 C 2.282779 -1.585895 0.216762 0
M  V30 2 C 3.112719 -0.703320 1.090230 0
M  V30 3 C 4.475413 -1.394113 1.246897 0
M  V30 4 C 2.476856 -0.610795 2.482204 0
M  V30 5 C 1.147002 0.030659 2.264599 0
M  V30 6 O 0.090233 -0.493570 2.702358 0
M  V30 7 C 1.103781 1.303666 1.517975 0
M  V30 8 C 2.155301 1.536039 0.753162 0
M  V30 9 C 3.325438 0.678861 0.578741 0
M  V30 10 N 2.170080 2.750092 0.009642 0
M  V30 11 C 1.108314 3.703703 0.062803 0
M  V30 12 N 0.789114 4.895347 -0.468589 0
M  V30 13 N -0.384051 5.309738 -0.022767 0
M  V30 14 C -0.853939 4.388636 0.813495 0
M  V30 15 C 0.062047 3.359890 0.891999 0
M  V30 16 C -0.094185 2.138918 1.722455 0
M  V30 17 C -1.365215 1.444513 1.329060 0
M  V30 18 C -2.571886 1.711348 1.944747 0
M  V30 19 C -3.751743 1.080229 1.592702 0
M  V30 20 C -3.679220 0.138195 0.565255 0
M  V30 21 C -2.491402 -0.153587 -0.071889 0
M  V30 22 O -2.588215 -1.112679 -1.071134 0
M  V30 23 C -2.421911 -2.464247 -0.797650 0
M  V30 24 N -2.163563 -3.271845 0.249320 0
M  V30 25 C -2.125313 -4.554826 -0.155256 0
M  V30 26 C -1.892536 -5.693123 0.590992 0
M  V30 27 C -1.904316 -6.918693 -0.064346 0
M  V30 28 C -2.146317 -6.948171 -1.423682 0
M  V30 29 C -2.375704 -5.795066 -2.143741 0
M  V30 30 C -2.371672 -4.544345 -1.519527 0
M  V30 31 N -2.553703 -3.249749 -1.908048 0
M  V30 32 C -1.345799 0.505209 0.319173 0
M  V30 33 H 1.646206 -2.226973 0.884269 0
M  V30 34 H 1.577775 -1.032392 -0.431581 0
M  V30 35 H 2.906750 -2.272892 -0.365763 0
M  V30 36 H 4.655422 -2.035738 0.378207 0
M  V30 37 H 5.272986 -0.643724 1.420710 0
M  V30 38 H 4.395099 -2.051162 2.142817 0
M  V30 39 H 2.364718 -1.588771 2.958660 0
M  V30 40 H 3.121752 0.048478 3.080494 0
M  V30 41 H 3.696110 0.683373 -0.468647 0
M  V30 42 H 4.177722 1.113861 1.170620 0
M  V30 43 H 2.966289 3.012106 -0.621652 0
M  V30 44 H -0.806456 6.228742 -0.327925 0
M  V30 45 H -1.827424 4.553073 1.292207 0
M  V30 46 H -0.153846 2.409611 2.799145 0
M  V30 47 H -2.575101 2.456355 2.742905 0
M  V30 48 H -4.684063 1.307734 2.091118 0
M  V30 49 H -4.636094 -0.341851 0.313812 0
M  V30 50 H -1.706433 -5.629919 1.657743 0
M  V30 51 H -1.732114 -7.840243 0.449953 0
M  V30 52 H -2.170574 -7.875990 -2.006327 0
M  V30 53 H -2.564488 -5.822256 -3.207366 0
M  V30 54 H -2.749115 -3.104807 -2.924322 0
M  V30 55 H -0.448425 0.231429 -0.219770 0
M  V30 END ATOM
M  V30 BEGIN BOND
M  V30 1 1 1 2
M  V30 2 1 2 3
M  V30 3 1 2 4
M  V30 4 1 4 5
M  V30 5 2 5 6
M  V30 6 1 5 7
M  V30 7 2 7 8
M  V30 8 1 8 9
M  V30 9 1 8 10
M  V30 10 1 10 11
M  V30 11 2 11 12
M  V30 12 1 12 13
M  V30 13 1 13 14
M  V30 14 2 14 15
M  V30 15 1 15 16
M  V30 16 1 16 17
M  V30 17 2 17 18
M  V30 18 1 18 19
M  V30 19 2 19 20
M  V30 20 1 20 21
M  V30 21 1 21 22
M  V30 22 1 22 23
M  V30 23 2 23 24
M  V30 24 1 24 25
M  V30 25 2 25 26
M  V30 26 1 26 27
M  V30 27 2 27 28
M  V30 28 1 28 29
M  V30 29 2 29 30
M  V30 30 1 30 31
M  V30 31 2 21 32
M  V30 32 1 9 2
M  V30 33 1 15 11
M  V30 34 1 32 17
M  V30 35 1 16 7
M  V30 36 1 31 23
M  V30 37 1 30 25
M  V30 38 1 1 33
M  V30 39 1 1 34
M  V30 40 1 1 35
M  V30 41 1 3 36
M  V30 42 1 3 37
M  V30 43 1 3 38
M  V30 44 1 4 39
M  V30 45 1 4 40
M  V30 46 1 9 41
M  V30 47 1 9 42
M  V30 48 1 10 43
M  V30 49 1 13 44
M  V30 50 1 14 45
M  V30 51 1 16 46
M  V30 52 1 18 47
M  V30 53 1 19 48
M  V30 54 1 20 49
M  V30 55 1 26 50
M  V30 56 1 27 51
M  V30 57 1 28 52
M  V30 58 1 29 53
M  V30 59 1 31 54
M  V30 60 1 32 55
M  V30 END BOND
M  V30 END CTAB
M  END
>  <Dataset>  (213) 
ChEMBL_Kinases

>  <Ligand_Instance>  (213) 
nan

>  <PDB_ID>  (213) 
nan

>  <Standardized_SMILES>  (213) 
CC1(C)CC(=O)C2=C(C1)Nc1n[nH]cc1C2c1cccc(Oc2nc3ccccc3[nH]2)c1

>  <Name>  (213) 
nan

>  <Pocket>  (213) 
nan

>  <ATP_Site>  (213) 
nan

>  <Peripheral>  (213) 
nan

>  <Num_H_Atoms_ProtBoundConf>  (213) 
nan

>  <Num_Resolved_Atoms>  (213) 
nan

>  <Num_Not_Resolved_Atoms>  (213) 
nan

$$$$
CHEMBL3663138
     RDKit          3D

  0  0  0  0  0  0  0  0  0  0999 V3000
M  V30 BEGIN CTAB
M  V30 COUNTS 52 55 0 0 0
M  V30 BEGIN ATOM
M  V30 1 C 9.514204 -4.697429 0.282869 0
M  V30 2 C 8.259219 -3.952948 -0.040192 0
M  V30 3 C 7.375844 -3.595460 0.952034 0
M  V30 4 C 6.294549 -2.915683 0.389207 0
M  V30 5 C 5.174445 -2.395321 1.161663 0
M  V30 6 N 4.976966 -2.467764 2.502375 0
M  V30 7 N 3.839583 -1.872798 2.815097 0
M  V30 8 C 3.237743 -1.384452 1.713424 0
M  V30 9 C 2.045321 -0.684550 1.480002 0
M  V30 10 C 1.685978 -0.305270 0.178515 0
M  V30 11 N 0.444554 0.386702 0.215793 0
M  V30 12 C -0.880365 -0.186339 0.108970 0
M  V30 13 O -0.817321 -1.436623 -0.041056 0
M  V30 14 N -2.028336 0.642863 0.178900 0
M  V30 15 C -3.287722 -0.032629 0.065135 0 CFG=2
M  V30 16 C -4.165071 0.500758 -1.059898 0
M  V30 17 O -4.399139 1.808978 -0.799170 0
M  V30 18 C -5.169595 2.491968 -1.695112 0
M  V30 19 C -6.572906 1.973595 -1.834888 0
M  V30 20 F -7.157165 2.063668 -0.565973 0
M  V30 21 F -6.677297 0.685290 -2.283497 0
M  V30 22 C -4.049680 0.030054 1.365455 0
M  V30 23 C -4.077458 1.270422 1.984011 0
M  V30 24 C -4.741738 1.472399 3.187120 0
M  V30 25 C -5.377327 0.370610 3.740071 0
M  V30 26 C -5.361235 -0.869414 3.140722 0
M  V30 27 C -4.692912 -1.046577 1.943149 0
M  V30 28 N 2.526324 -0.635446 -0.852238 0
M  V30 29 C 3.667496 -1.310876 -0.590073 0
M  V30 30 C 4.090807 -1.717580 0.651346 0
M  V30 31 N 6.594938 -2.903682 -0.925508 0
M  V30 32 O 7.730501 -3.506971 -1.149279 0
M  V30 33 H 9.942202 -4.248845 1.226858 0
M  V30 34 H 9.352339 -5.765642 0.444155 0
M  V30 35 H 10.247058 -4.437332 -0.505563 0
M  V30 36 H 7.468380 -3.793934 2.023610 0
M  V30 37 H 3.469907 -1.799973 3.799551 0
M  V30 38 H 1.493120 -0.499301 2.386477 0
M  V30 39 H 0.510634 1.429621 0.341640 0
M  V30 40 H -1.911960 1.669069 0.305815 0
M  V30 41 H -3.114280 -1.105714 -0.122951 0
M  V30 42 H -5.015929 -0.174993 -1.127534 0
M  V30 43 H -3.521091 0.447774 -1.978048 0
M  V30 44 H -5.239376 3.546071 -1.322871 0
M  V30 45 H -4.660814 2.569784 -2.697149 0
M  V30 46 H -7.190496 2.663384 -2.482228 0
M  V30 47 H -3.575474 2.125628 1.540510 0
M  V30 48 H -4.761451 2.450832 3.671795 0
M  V30 49 H -5.909193 0.469235 4.673538 0
M  V30 50 H -5.867220 -1.699862 3.603494 0
M  V30 51 H -4.642205 -1.980897 1.427329 0
M  V30 52 H 4.286987 -1.540941 -1.443710 0
M  V30 END ATOM
M  V30 BEGIN BOND
M  V30 1 1 1 2
M  V30 2 2 2 3
M  V30 3 1 3 4
M  V30 4 1 4 5
M  V30 5 2 5 6
M  V30 6 1 6 7
M  V30 7 1 7 8
M  V30 8 2 8 9
M  V30 9 1 9 10
M  V30 10 1 10 11
M  V30 11 1 11 12
M  V30 12 2 12 13
M  V30 13 1 12 14
M  V30 14 1 14 15
M  V30 15 1 15 16
M  V30 16 1 16 17
M  V30 17 1 17 18
M  V30 18 1 18 19
M  V30 19 1 19 20
M  V30 20 1 19 21
M  V30 21 1 15 22
M  V30 22 2 22 23
M  V30 23 1 23 24
M  V30 24 2 24 25
M  V30 25 1 25 26
M  V30 26 2 26 27
M  V30 27 2 10 28
M  V30 28 1 28 29
M  V30 29 2 29 30
M  V30 30 2 4 31
M  V30 31 1 31 32
M  V30 32 1 32 2
M  V30 33 1 30 5
M  V30 34 1 30 8
M  V30 35 1 27 22
M  V30 36 1 1 33
M  V30 37 1 1 34
M  V30 38 1 1 35
M  V30 39 1 3 36
M  V30 40 1 7 37
M  V30 41 1 9 38
M  V30 42 1 11 39
M  V30 43 1 14 40
M  V30 44 1 15 41 CFG=3
M  V30 45 1 16 42
M  V30 46 1 16 43
M  V30 47 1 18 44
M  V30 48 1 18 45
M  V30 49 1 19 46
M  V30 50 1 23 47
M  V30 51 1 24 48
M  V30 52 1 25 49
M  V30 53 1 26 50
M  V30 54 1 27 51
M  V30 55 1 29 52
M  V30 END BOND
M  V30 END CTAB
M  END
>  <Dataset>  (214) 
ChEMBL_Kinases

>  <Ligand_Instance>  (214) 
nan

>  <PDB_ID>  (214) 
nan

>  <Standardized_SMILES>  (214) 
Cc1cc(-c2n[nH]c3cc(NC(=O)N[C@H](COCC(F)F)c4ccccc4)ncc23)no1

>  <Name>  (214) 
nan

>  <Pocket>  (214) 
nan

>  <ATP_Site>  (214) 
nan

>  <Peripheral>  (214) 
nan

>  <Num_H_Atoms_ProtBoundConf>  (214) 
nan

>  <Num_Resolved_Atoms>  (214) 
nan

>  <Num_Not_Resolved_Atoms>  (214) 
nan

$$$$
CHEMBL3663792
     RDKit          3D

  0  0  0  0  0  0  0  0  0  0999 V3000
M  V30 BEGIN CTAB
M  V30 COUNTS 54 58 0 0 0
M  V30 BEGIN ATOM
M  V30 1 Cl 2.809891 -3.948334 1.542111 0
M  V30 2 C 3.049372 -2.214350 1.597788 0
M  V30 3 C 4.252663 -1.688176 1.180228 0
M  V30 4 N 4.589725 -0.415183 1.159095 0
M  V30 5 C 3.700784 0.534955 1.581664 0
M  V30 6 N 3.892072 1.925541 1.645063 0
M  V30 7 C 3.152181 3.106803 1.935623 0
M  V30 8 C 2.132991 3.311941 0.870014 0
M  V30 9 C 2.634857 3.986209 -0.254523 0
M  V30 10 C 1.892970 4.309090 -1.372218 0
M  V30 11 C 0.563105 3.953528 -1.407325 0
M  V30 12 C 0.054723 3.293314 -0.315222 0
M  V30 13 C 0.801849 2.978261 0.789642 0
M  V30 14 C 2.477843 0.057620 2.011168 0
M  V30 15 C 2.099393 -1.283496 2.042191 0
M  V30 16 C 0.860914 -1.858090 2.471703 0
M  V30 17 C 0.782840 -2.215913 3.824256 0
M  V30 18 C -0.361330 -2.786431 4.358703 0
M  V30 19 N -1.448182 -3.012435 3.562900 0
M  V30 20 C -1.415217 -2.683680 2.259489 0
M  V30 21 N -2.293117 -2.773339 1.235243 0
M  V30 22 C -1.760788 -2.288326 0.080609 0
M  V30 23 C -2.459244 -2.242123 -1.248238 0
M  V30 24 C -3.878530 -1.808029 -1.154038 0
M  V30 25 C -4.864936 -2.777272 -1.734096 0
M  V30 26 N -4.613920 -4.141163 -1.432070 0
M  V30 27 C -3.251828 -4.549518 -1.360837 0
M  V30 28 C -2.343017 -3.544778 -1.970634 0
M  V30 29 C -0.460558 -1.862410 0.390848 0
M  V30 30 C -0.275670 -2.116923 1.732131 0
M  V30 31 H 5.065678 -2.317600 0.814308 0
M  V30 32 H 4.912097 2.103389 1.390286 0
M  V30 33 H 3.840702 3.973832 1.957924 0
M  V30 34 H 2.616173 3.004653 2.918421 0
M  V30 35 H 3.673205 4.312583 -0.327670 0
M  V30 36 H 2.307486 4.829310 -2.222371 0
M  V30 37 H -0.075539 4.173416 -2.248392 0
M  V30 38 H -0.992585 2.971993 -0.254305 0
M  V30 39 H 0.435468 2.475654 1.654842 0
M  V30 40 H 1.636446 0.623199 2.391473 0
M  V30 41 H 1.624035 -2.052617 4.489271 0
M  V30 42 H -0.405632 -3.059400 5.416134 0
M  V30 43 H -3.226751 -3.172782 1.413501 0
M  V30 44 H -1.817219 -1.522275 -1.851002 0
M  V30 45 H -3.992890 -0.848185 -1.702714 0
M  V30 46 H -4.176566 -1.574225 -0.090450 0
M  V30 47 H -5.870489 -2.513260 -1.321448 0
M  V30 48 H -4.990089 -2.661084 -2.842902 0
M  V30 49 H -5.155709 -4.559178 -0.659451 0
M  V30 50 H -3.110389 -5.498893 -1.963893 0
M  V30 51 H -3.013168 -4.796996 -0.302114 0
M  V30 52 H -2.680994 -3.381516 -3.022208 0
M  V30 53 H -1.269176 -3.857319 -1.936730 0
M  V30 54 H 0.235028 -1.423442 -0.313080 0
M  V30 END ATOM
M  V30 BEGIN BOND
M  V30 1 1 1 2
M  V30 2 2 2 3
M  V30 3 1 3 4
M  V30 4 2 4 5
M  V30 5 1 5 6
M  V30 6 1 6 7
M  V30 7 1 7 8
M  V30 8 2 8 9
M  V30 9 1 9 10
M  V30 10 2 10 11
M  V30 11 1 11 12
M  V30 12 2 12 13
M  V30 13 1 5 14
M  V30 14 2 14 15
M  V30 15 1 15 16
M  V30 16 2 16 17
M  V30 17 1 17 18
M  V30 18 2 18 19
M  V30 19 1 19 20
M  V30 20 1 20 21
M  V30 21 1 21 22
M  V30 22 1 22 23
M  V30 23 1 23 24
M  V30 24 1 24 25
M  V30 25 1 25 26
M  V30 26 1 26 27
M  V30 27 1 27 28
M  V30 28 2 22 29
M  V30 29 1 29 30
M  V30 30 1 15 2
M  V30 31 1 30 16
M  V30 32 1 13 8
M  V30 33 2 30 20
M  V30 34 1 28 23
M  V30 35 1 3 31
M  V30 36 1 6 32
M  V30 37 1 7 33
M  V30 38 1 7 34
M  V30 39 1 9 35
M  V30 40 1 10 36
M  V30 41 1 11 37
M  V30 42 1 12 38
M  V30 43 1 13 39
M  V30 44 1 14 40
M  V30 45 1 17 41
M  V30 46 1 18 42
M  V30 47 1 21 43
M  V30 48 1 23 44
M  V30 49 1 24 45
M  V30 50 1 24 46
M  V30 51 1 25 47
M  V30 52 1 25 48
M  V30 53 1 26 49
M  V30 54 1 27 50
M  V30 55 1 27 51
M  V30 56 1 28 52
M  V30 57 1 28 53
M  V30 58 1 29 54
M  V30 END BOND
M  V30 END CTAB
M  END
>  <Dataset>  (215) 
ChEMBL_Kinases

>  <Ligand_Instance>  (215) 
nan

>  <PDB_ID>  (215) 
nan

>  <Standardized_SMILES>  (215) 
Clc1cnc(NCc2ccccc2)cc1-c1ccnc2[nH]c(C3CCNCC3)cc12

>  <Name>  (215) 
nan

>  <Pocket>  (215) 
nan

>  <ATP_Site>  (215) 
nan

>  <Peripheral>  (215) 
nan

>  <Num_H_Atoms_ProtBoundConf>  (215) 
nan

>  <Num_Resolved_Atoms>  (215) 
nan

>  <Num_Not_Resolved_Atoms>  (215) 
nan

$$$$
CHEMBL3663791
     RDKit          3D

  0  0  0  0  0  0  0  0  0  0999 V3000
M  V30 BEGIN CTAB
M  V30 COUNTS 55 59 0 0 0
M  V30 BEGIN ATOM
M  V30 1 F -0.315656 -1.218854 4.738381 0
M  V30 2 C 0.700627 -0.912608 3.898662 0
M  V30 3 C 1.855004 -1.662019 3.951215 0
M  V30 4 C 2.944008 -1.439553 3.148361 0
M  V30 5 C 2.906150 -0.397561 2.213518 0
M  V30 6 N 3.966131 -0.059356 1.337496 0
M  V30 7 C 4.202588 0.906628 0.290617 0
M  V30 8 C 3.348353 0.694686 -0.906422 0
M  V30 9 C 3.912925 -0.262375 -1.761251 0
M  V30 10 C 3.336371 -0.638399 -2.946578 0
M  V30 11 C 2.147026 -0.075510 -3.355985 0
M  V30 12 C 1.595547 0.860795 -2.519429 0
M  V30 13 C 2.166224 1.245943 -1.327056 0
M  V30 14 C 1.756191 0.332847 2.176293 0
M  V30 15 C 0.647194 0.122323 2.979020 0
M  V30 16 C -0.589161 0.874364 2.969096 0
M  V30 17 C -0.801573 1.992626 3.754221 0
M  V30 18 C -2.033610 2.617391 3.645162 0
M  V30 19 N -3.000173 2.177777 2.819946 0
M  V30 20 C -2.817001 1.091931 2.046226 0
M  V30 21 N -3.614284 0.470517 1.159651 0
M  V30 22 C -2.934732 -0.586813 0.652798 0
M  V30 23 C -3.328251 -1.618521 -0.361555 0
M  V30 24 C -3.382808 -2.972191 0.312587 0
M  V30 25 C -3.672597 -4.029824 -0.712610 0
M  V30 26 N -2.812146 -3.945979 -1.875107 0
M  V30 27 C -1.742111 -2.996565 -1.646499 0
M  V30 28 C -2.381732 -1.621834 -1.542825 0
M  V30 29 C -1.681495 -0.614884 1.246983 0
M  V30 30 C -1.603711 0.447290 2.130251 0
M  V30 31 H 1.993801 -2.489958 4.634221 0
M  V30 32 H 3.850210 -2.034068 3.195265 0
M  V30 33 H 4.788718 -0.705020 1.522336 0
M  V30 34 H 5.277283 0.885341 0.038288 0
M  V30 35 H 4.033246 1.957550 0.678904 0
M  V30 36 H 4.852448 -0.801714 -1.581822 0
M  V30 37 H 3.753559 -1.377215 -3.626313 0
M  V30 38 H 1.599309 -0.288511 -4.262261 0
M  V30 39 H 0.655929 1.399475 -2.700060 0
M  V30 40 H 1.788579 1.978551 -0.639230 0
M  V30 41 H 1.555290 1.171804 1.526872 0
M  V30 42 H -0.002330 2.311521 4.401085 0
M  V30 43 H -2.145216 3.499574 4.292062 0
M  V30 44 H -4.586144 0.700078 0.864183 0
M  V30 45 H -4.364688 -1.421402 -0.714398 0
M  V30 46 H -4.280621 -2.928017 0.984441 0
M  V30 47 H -2.499623 -3.198728 0.907795 0
M  V30 48 H -4.723452 -4.029168 -1.047307 0
M  V30 49 H -3.496944 -5.030863 -0.253877 0
M  V30 50 H -3.333472 -3.605185 -2.724420 0
M  V30 51 H -1.220286 -3.203815 -0.694881 0
M  V30 52 H -1.065873 -2.979533 -2.507364 0
M  V30 53 H -2.840063 -1.288412 -2.473320 0
M  V30 54 H -1.535068 -0.916183 -1.299653 0
M  V30 55 H -0.882810 -1.329311 1.071535 0
M  V30 END ATOM
M  V30 BEGIN BOND
M  V30 1 1 1 2
M  V30 2 2 2 3
M  V30 3 1 3 4
M  V30 4 2 4 5
M  V30 5 1 5 6
M  V30 6 1 6 7
M  V30 7 1 7 8
M  V30 8 2 8 9
M  V30 9 1 9 10
M  V30 10 2 10 11
M  V30 11 1 11 12
M  V30 12 2 12 13
M  V30 13 1 5 14
M  V30 14 2 14 15
M  V30 15 1 15 16
M  V30 16 2 16 17
M  V30 17 1 17 18
M  V30 18 2 18 19
M  V30 19 1 19 20
M  V30 20 1 20 21
M  V30 21 1 21 22
M  V30 22 1 22 23
M  V30 23 1 23 24
M  V30 24 1 24 25
M  V30 25 1 25 26
M  V30 26 1 26 27
M  V30 27 1 27 28
M  V30 28 2 22 29
M  V30 29 1 29 30
M  V30 30 1 15 2
M  V30 31 1 30 16
M  V30 32 1 13 8
M  V30 33 2 30 20
M  V30 34 1 28 23
M  V30 35 1 3 31
M  V30 36 1 4 32
M  V30 37 1 6 33
M  V30 38 1 7 34
M  V30 39 1 7 35
M  V30 40 1 9 36
M  V30 41 1 10 37
M  V30 42 1 11 38
M  V30 43 1 12 39
M  V30 44 1 13 40
M  V30 45 1 14 41
M  V30 46 1 17 42
M  V30 47 1 18 43
M  V30 48 1 21 44
M  V30 49 1 23 45
M  V30 50 1 24 46
M  V30 51 1 24 47
M  V30 52 1 25 48
M  V30 53 1 25 49
M  V30 54 1 26 50
M  V30 55 1 27 51
M  V30 56 1 27 52
M  V30 57 1 28 53
M  V30 58 1 28 54
M  V30 59 1 29 55
M  V30 END BOND
M  V30 END CTAB
M  END
>  <Dataset>  (216) 
ChEMBL_Kinases

>  <Ligand_Instance>  (216) 
nan

>  <PDB_ID>  (216) 
nan

>  <Standardized_SMILES>  (216) 
Fc1ccc(NCc2ccccc2)cc1-c1ccnc2[nH]c(C3CCNCC3)cc12

>  <Name>  (216) 
nan

>  <Pocket>  (216) 
nan

>  <ATP_Site>  (216) 
nan

>  <Peripheral>  (216) 
nan

>  <Num_H_Atoms_ProtBoundConf>  (216) 
nan

>  <Num_Resolved_Atoms>  (216) 
nan

>  <Num_Not_Resolved_Atoms>  (216) 
nan

$$$$
CHEMBL3663790
     RDKit          3D

  0  0  0  0  0  0  0  0  0  0999 V3000
M  V30 BEGIN CTAB
M  V30 COUNTS 55 59 0 0 0
M  V30 BEGIN ATOM
M  V30 1 O 1.460380 -5.110745 0.260669 0
M  V30 2 S 2.244462 -4.561058 -0.914790 0
M  V30 3 O 2.862733 -5.755624 -1.580590 0
M  V30 4 N 3.453369 -3.462497 -0.392172 0
M  V30 5 C 3.412121 -2.235043 0.280145 0
M  V30 6 C 4.263978 -2.009625 1.366800 0
M  V30 7 C 4.329061 -0.865003 2.123602 0
M  V30 8 C 3.459751 0.127326 1.745154 0
M  V30 9 Cl 3.466411 1.631206 2.651643 0
M  V30 10 C 2.572172 0.030372 0.695153 0
M  V30 11 C 1.663682 1.106478 0.322794 0
M  V30 12 C 1.964052 2.103341 -0.581382 0
M  V30 13 C 1.003960 3.067618 -0.843398 0
M  V30 14 N -0.199818 3.053044 -0.242691 0
M  V30 15 C -0.490427 2.075238 0.642230 0
M  V30 16 N -1.601618 1.845682 1.361106 0
M  V30 17 C -1.485648 0.760893 2.127931 0
M  V30 18 C -2.417274 0.085851 3.089410 0
M  V30 19 C -3.467937 -0.659854 2.309142 0
M  V30 20 C -4.360519 0.239365 1.527542 0
M  V30 21 N -4.839040 1.367509 2.278101 0
M  V30 22 C -4.497129 1.310280 3.672462 0
M  V30 23 C -3.067961 1.072184 3.986270 0
M  V30 24 C -0.197297 0.305087 1.843017 0
M  V30 25 C 0.426058 1.100474 0.933581 0
M  V30 26 C 2.592610 -1.161816 0.005398 0
M  V30 27 C 1.186117 -3.800274 -2.067240 0
M  V30 28 C -0.015300 -3.141813 -1.824127 0
M  V30 29 C -0.742949 -2.587438 -2.851303 0
M  V30 30 C -0.327765 -2.650968 -4.173791 0
M  V30 31 C 0.850981 -3.294970 -4.427564 0
M  V30 32 C 1.572135 -3.844113 -3.411529 0
M  V30 33 H 4.465162 -3.722729 -0.601566 0
M  V30 34 H 4.945041 -2.832164 1.636367 0
M  V30 35 H 5.026528 -0.798407 2.942884 0
M  V30 36 H 2.948865 2.050603 -1.023755 0
M  V30 37 H 1.290106 3.831980 -1.564025 0
M  V30 38 H -2.447035 2.444000 1.326563 0
M  V30 39 H -1.842606 -0.685740 3.668955 0
M  V30 40 H -4.114973 -1.185607 3.057456 0
M  V30 41 H -3.006286 -1.463628 1.679671 0
M  V30 42 H -3.807599 0.620134 0.650188 0
M  V30 43 H -5.222519 -0.330676 1.087905 0
M  V30 44 H -4.783738 2.279403 1.825582 0
M  V30 45 H -4.781843 2.297005 4.115266 0
M  V30 46 H -5.146485 0.576530 4.233886 0
M  V30 47 H -3.004316 0.691379 5.046477 0
M  V30 48 H -2.465512 2.024079 4.024515 0
M  V30 49 H 0.242284 -0.575626 2.296566 0
M  V30 50 H 1.910303 -1.261385 -0.821710 0
M  V30 51 H -0.288157 -3.123792 -0.775769 0
M  V30 52 H -1.675922 -2.089632 -2.559775 0
M  V30 53 H -1.006327 -2.169490 -4.863736 0
M  V30 54 H 1.148945 -3.328830 -5.464785 0
M  V30 55 H 2.487819 -4.329446 -3.721484 0
M  V30 END ATOM
M  V30 BEGIN BOND
M  V30 1 2 1 2
M  V30 2 2 2 3
M  V30 3 1 2 4
M  V30 4 1 4 5
M  V30 5 2 5 6
M  V30 6 1 6 7
M  V30 7 2 7 8
M  V30 8 1 8 9
M  V30 9 1 8 10
M  V30 10 1 10 11
M  V30 11 2 11 12
M  V30 12 1 12 13
M  V30 13 2 13 14
M  V30 14 1 14 15
M  V30 15 1 15 16
M  V30 16 1 16 17
M  V30 17 1 17 18
M  V30 18 1 18 19
M  V30 19 1 19 20
M  V30 20 1 20 21
M  V30 21 1 21 22
M  V30 22 1 22 23
M  V30 23 2 17 24
M  V30 24 1 24 25
M  V30 25 2 10 26
M  V30 26 1 2 27
M  V30 27 2 27 28
M  V30 28 1 28 29
M  V30 29 2 29 30
M  V30 30 1 30 31
M  V30 31 2 31 32
M  V30 32 1 26 5
M  V30 33 1 32 27
M  V30 34 1 25 11
M  V30 35 2 25 15
M  V30 36 1 23 18
M  V30 37 1 4 33
M  V30 38 1 6 34
M  V30 39 1 7 35
M  V30 40 1 12 36
M  V30 41 1 13 37
M  V30 42 1 16 38
M  V30 43 1 18 39
M  V30 44 1 19 40
M  V30 45 1 19 41
M  V30 46 1 20 42
M  V30 47 1 20 43
M  V30 48 1 21 44
M  V30 49 1 22 45
M  V30 50 1 22 46
M  V30 51 1 23 47
M  V30 52 1 23 48
M  V30 53 1 24 49
M  V30 54 1 26 50
M  V30 55 1 28 51
M  V30 56 1 29 52
M  V30 57 1 30 53
M  V30 58 1 31 54
M  V30 59 1 32 55
M  V30 END BOND
M  V30 END CTAB
M  END
>  <Dataset>  (217) 
ChEMBL_Kinases

>  <Ligand_Instance>  (217) 
nan

>  <PDB_ID>  (217) 
nan

>  <Standardized_SMILES>  (217) 
O=S(=O)(Nc1ccc(Cl)c(-c2ccnc3[nH]c(C4CCNCC4)cc23)c1)c1ccccc1

>  <Name>  (217) 
nan

>  <Pocket>  (217) 
nan

>  <ATP_Site>  (217) 
nan

>  <Peripheral>  (217) 
nan

>  <Num_H_Atoms_ProtBoundConf>  (217) 
nan

>  <Num_Resolved_Atoms>  (217) 
nan

>  <Num_Not_Resolved_Atoms>  (217) 
nan

$$$$
CHEMBL3663789
     RDKit          3D

  0  0  0  0  0  0  0  0  0  0999 V3000
M  V30 BEGIN CTAB
M  V30 COUNTS 58 62 0 0 0
M  V30 BEGIN ATOM
M  V30 1 Cl -1.208019 -1.316913 5.717443 0
M  V30 2 C 0.016656 -0.461925 4.809433 0
M  V30 3 C 1.270934 -0.206483 5.285977 0
M  V30 4 C 2.240784 0.465741 4.584667 0
M  V30 5 C 1.960196 0.930921 3.300242 0
M  V30 6 N 2.908314 1.670429 2.543236 0
M  V30 7 C 2.932334 2.248747 1.248566 0
M  V30 8 C 3.079543 1.359910 0.074630 0
M  V30 9 C 1.966812 0.360229 -0.005980 0
M  V30 10 C 1.962315 -0.188536 -1.421723 0
M  V30 11 C 3.235575 0.193940 -2.165887 0
M  V30 12 O 3.354801 1.570504 -2.309692 0
M  V30 13 C 2.919211 2.247311 -1.175675 0
M  V30 14 N 0.716836 0.663972 2.853774 0
M  V30 15 C -0.223952 0.009625 3.542014 0
M  V30 16 C -1.532427 -0.221130 2.937913 0
M  V30 17 C -2.601970 0.355138 3.605584 0
M  V30 18 C -3.886499 0.211369 3.070408 0
M  V30 19 N -4.103423 -0.475407 1.919837 0
M  V30 20 C -3.079400 -1.041765 1.258292 0
M  V30 21 N -2.978571 -1.778842 0.126759 0
M  V30 22 C -1.680406 -2.119566 -0.090633 0
M  V30 23 C -1.061131 -2.922310 -1.185967 0
M  V30 24 C -1.656466 -4.300464 -1.266098 0
M  V30 25 C -2.937052 -4.425543 -2.001903 0
M  V30 26 N -3.270285 -3.439435 -2.933057 0
M  V30 27 C -2.507281 -2.266654 -3.052285 0
M  V30 28 C -1.119350 -2.279243 -2.527139 0
M  V30 29 C -0.969983 -1.564341 0.951713 0
M  V30 30 C -1.837529 -0.900943 1.779493 0
M  V30 31 H 1.546921 -0.547641 6.292338 0
M  V30 32 H 3.216956 0.632679 5.026113 0
M  V30 33 H 3.822115 1.820311 3.075797 0
M  V30 34 H 3.727010 3.032403 1.178413 0
M  V30 35 H 1.972970 2.842473 1.082727 0
M  V30 36 H 4.077717 0.874623 -0.002870 0
M  V30 37 H 2.075444 -0.458574 0.733284 0
M  V30 38 H 1.009285 0.878851 0.128383 0
M  V30 39 H 1.921907 -1.300741 -1.444965 0
M  V30 40 H 1.116997 0.211884 -2.011431 0
M  V30 41 H 3.163162 -0.250435 -3.176034 0
M  V30 42 H 4.134936 -0.268706 -1.698980 0
M  V30 43 H 1.819681 2.427456 -1.254723 0
M  V30 44 H 3.465382 3.201387 -1.071692 0
M  V30 45 H -2.541476 0.925862 4.536541 0
M  V30 46 H -4.737097 0.653647 3.577033 0
M  V30 47 H -3.756593 -2.060202 -0.503798 0
M  V30 48 H 0.047432 -3.078006 -0.993961 0
M  V30 49 H -1.844262 -4.586849 -0.187942 0
M  V30 50 H -0.891103 -5.031901 -1.594061 0
M  V30 51 H -3.807945 -4.524707 -1.286045 0
M  V30 52 H -2.916478 -5.408763 -2.525890 0
M  V30 53 H -4.285259 -3.195651 -2.966922 0
M  V30 54 H -2.411007 -2.064826 -4.161603 0
M  V30 55 H -3.009750 -1.333995 -2.661486 0
M  V30 56 H -0.454334 -2.900198 -3.190642 0
M  V30 57 H -0.725179 -1.243228 -2.551839 0
M  V30 58 H 0.096609 -1.663343 1.067579 0
M  V30 END ATOM
M  V30 BEGIN BOND
M  V30 1 1 1 2
M  V30 2 2 2 3
M  V30 3 1 3 4
M  V30 4 2 4 5
M  V30 5 1 5 6
M  V30 6 1 6 7
M  V30 7 1 7 8
M  V30 8 1 8 9
M  V30 9 1 9 10
M  V30 10 1 10 11
M  V30 11 1 11 12
M  V30 12 1 12 13
M  V30 13 1 5 14
M  V30 14 2 14 15
M  V30 15 1 15 16
M  V30 16 2 16 17
M  V30 17 1 17 18
M  V30 18 2 18 19
M  V30 19 1 19 20
M  V30 20 1 20 21
M  V30 21 1 21 22
M  V30 22 1 22 23
M  V30 23 1 23 24
M  V30 24 1 24 25
M  V30 25 1 25 26
M  V30 26 1 26 27
M  V30 27 1 27 28
M  V30 28 2 22 29
M  V30 29 1 29 30
M  V30 30 1 15 2
M  V30 31 1 30 16
M  V30 32 1 13 8
M  V30 33 2 30 20
M  V30 34 1 28 23
M  V30 35 1 3 31
M  V30 36 1 4 32
M  V30 37 1 6 33
M  V30 38 1 7 34
M  V30 39 1 7 35
M  V30 40 1 8 36
M  V30 41 1 9 37
M  V30 42 1 9 38
M  V30 43 1 10 39
M  V30 44 1 10 40
M  V30 45 1 11 41
M  V30 46 1 11 42
M  V30 47 1 13 43
M  V30 48 1 13 44
M  V30 49 1 17 45
M  V30 50 1 18 46
M  V30 51 1 21 47
M  V30 52 1 23 48
M  V30 53 1 24 49
M  V30 54 1 24 50
M  V30 55 1 25 51
M  V30 56 1 25 52
M  V30 57 1 26 53
M  V30 58 1 27 54
M  V30 59 1 27 55
M  V30 60 1 28 56
M  V30 61 1 28 57
M  V30 62 1 29 58
M  V30 END BOND
M  V30 END CTAB
M  END
>  <Dataset>  (218) 
ChEMBL_Kinases

>  <Ligand_Instance>  (218) 
nan

>  <PDB_ID>  (218) 
nan

>  <Standardized_SMILES>  (218) 
Clc1ccc(NCC2CCCOC2)nc1-c1ccnc2[nH]c(C3CCNCC3)cc12

>  <Name>  (218) 
nan

>  <Pocket>  (218) 
nan

>  <ATP_Site>  (218) 
nan

>  <Peripheral>  (218) 
nan

>  <Num_H_Atoms_ProtBoundConf>  (218) 
nan

>  <Num_Resolved_Atoms>  (218) 
nan

>  <Num_Not_Resolved_Atoms>  (218) 
nan

$$$$
CHEMBL3663788
     RDKit          3D

  0  0  0  0  0  0  0  0  0  0999 V3000
M  V30 BEGIN CTAB
M  V30 COUNTS 58 62 0 0 0
M  V30 BEGIN ATOM
M  V30 1 Cl -0.403723 -2.344708 5.349542 0
M  V30 2 C 0.606913 -1.181827 4.544432 0
M  V30 3 C 1.967304 -1.063528 4.769022 0
M  V30 4 C 2.697262 -0.122152 4.081624 0
M  V30 5 C 2.074309 0.696878 3.174738 0
M  V30 6 N 2.562235 1.791209 2.400511 0
M  V30 7 C 3.349087 2.113078 1.244626 0
M  V30 8 C 2.976851 1.390047 -0.000182 0
M  V30 9 C 1.560368 1.622576 -0.476640 0
M  V30 10 C 1.395518 0.749004 -1.729656 0
M  V30 11 O 2.633811 0.275022 -2.177134 0
M  V30 12 C 3.538791 1.276818 -2.428550 0
M  V30 13 C 3.857826 1.955853 -1.127882 0
M  V30 14 N 0.741449 0.534852 2.991212 0
M  V30 15 C -0.029197 -0.361106 3.626063 0
M  V30 16 C -1.425781 -0.380152 3.203378 0
M  V30 17 C -2.441195 0.280925 3.899934 0
M  V30 18 C -3.725770 0.297827 3.340953 0
M  V30 19 N -4.042356 -0.305626 2.148592 0
M  V30 20 C -3.076171 -0.952729 1.458579 0
M  V30 21 N -3.019896 -1.695617 0.324949 0
M  V30 22 C -1.782645 -2.194111 0.111716 0
M  V30 23 C -1.328578 -3.102731 -0.958775 0
M  V30 24 C -2.029111 -4.444422 -0.883558 0
M  V30 25 C -3.368491 -4.455569 -1.517292 0
M  V30 26 N -3.452170 -3.869399 -2.802379 0
M  V30 27 C -2.747956 -2.645686 -2.983401 0
M  V30 28 C -1.387963 -2.591606 -2.347899 0
M  V30 29 C -1.047386 -1.722556 1.176947 0
M  V30 30 C -1.836603 -0.951745 2.019827 0
M  V30 31 H 2.456465 -1.705995 5.467011 0
M  V30 32 H 3.749542 0.059142 4.179839 0
M  V30 33 H 2.183154 2.667514 2.876206 0
M  V30 34 H 4.432229 1.975431 1.444881 0
M  V30 35 H 3.253282 3.204640 1.024100 0
M  V30 36 H 3.207673 0.293504 0.060344 0
M  V30 37 H 0.782327 1.299451 0.231547 0
M  V30 38 H 1.449877 2.696126 -0.716689 0
M  V30 39 H 0.751620 -0.131166 -1.536928 0
M  V30 40 H 0.868860 1.349630 -2.503163 0
M  V30 41 H 4.443447 0.796218 -2.859616 0
M  V30 42 H 3.098024 1.983885 -3.173032 0
M  V30 43 H 3.517691 3.025021 -1.209863 0
M  V30 44 H 4.910799 1.974318 -0.866695 0
M  V30 45 H -2.204294 0.747859 4.832041 0
M  V30 46 H -4.452997 0.833429 3.903864 0
M  V30 47 H -3.839754 -1.837477 -0.276526 0
M  V30 48 H -0.248253 -3.362921 -0.751680 0
M  V30 49 H -2.167583 -4.778604 0.176210 0
M  V30 50 H -1.375854 -5.193470 -1.362828 0
M  V30 51 H -4.187753 -4.140006 -0.795459 0
M  V30 52 H -3.619026 -5.551667 -1.666923 0
M  V30 53 H -4.475277 -3.660747 -2.994711 0
M  V30 54 H -2.550780 -2.563005 -4.080531 0
M  V30 55 H -3.357606 -1.742252 -2.757122 0
M  V30 56 H -0.763483 -3.310068 -2.963367 0
M  V30 57 H -0.938541 -1.621149 -2.512431 0
M  V30 58 H 0.004089 -1.944315 1.285488 0
M  V30 END ATOM
M  V30 BEGIN BOND
M  V30 1 1 1 2
M  V30 2 2 2 3
M  V30 3 1 3 4
M  V30 4 2 4 5
M  V30 5 1 5 6
M  V30 6 1 6 7
M  V30 7 1 7 8
M  V30 8 1 8 9
M  V30 9 1 9 10
M  V30 10 1 10 11
M  V30 11 1 11 12
M  V30 12 1 12 13
M  V30 13 1 5 14
M  V30 14 2 14 15
M  V30 15 1 15 16
M  V30 16 2 16 17
M  V30 17 1 17 18
M  V30 18 2 18 19
M  V30 19 1 19 20
M  V30 20 1 20 21
M  V30 21 1 21 22
M  V30 22 1 22 23
M  V30 23 1 23 24
M  V30 24 1 24 25
M  V30 25 1 25 26
M  V30 26 1 26 27
M  V30 27 1 27 28
M  V30 28 2 22 29
M  V30 29 1 29 30
M  V30 30 1 15 2
M  V30 31 1 30 16
M  V30 32 1 13 8
M  V30 33 2 30 20
M  V30 34 1 28 23
M  V30 35 1 3 31
M  V30 36 1 4 32
M  V30 37 1 6 33
M  V30 38 1 7 34
M  V30 39 1 7 35
M  V30 40 1 8 36
M  V30 41 1 9 37
M  V30 42 1 9 38
M  V30 43 1 10 39
M  V30 44 1 10 40
M  V30 45 1 12 41
M  V30 46 1 12 42
M  V30 47 1 13 43
M  V30 48 1 13 44
M  V30 49 1 17 45
M  V30 50 1 18 46
M  V30 51 1 21 47
M  V30 52 1 23 48
M  V30 53 1 24 49
M  V30 54 1 24 50
M  V30 55 1 25 51
M  V30 56 1 25 52
M  V30 57 1 26 53
M  V30 58 1 27 54
M  V30 59 1 27 55
M  V30 60 1 28 56
M  V30 61 1 28 57
M  V30 62 1 29 58
M  V30 END BOND
M  V30 END CTAB
M  END
>  <Dataset>  (219) 
ChEMBL_Kinases

>  <Ligand_Instance>  (219) 
nan

>  <PDB_ID>  (219) 
nan

>  <Standardized_SMILES>  (219) 
Clc1ccc(NCC2CCOCC2)nc1-c1ccnc2[nH]c(C3CCNCC3)cc12

>  <Name>  (219) 
nan

>  <Pocket>  (219) 
nan

>  <ATP_Site>  (219) 
nan

>  <Peripheral>  (219) 
nan

>  <Num_H_Atoms_ProtBoundConf>  (219) 
nan

>  <Num_Resolved_Atoms>  (219) 
nan

>  <Num_Not_Resolved_Atoms>  (219) 
nan

$$$$
CHEMBL3663787
     RDKit          3D

  0  0  0  0  0  0  0  0  0  0999 V3000
M  V30 BEGIN CTAB
M  V30 COUNTS 60 64 0 0 0
M  V30 BEGIN ATOM
M  V30 1 C 0.094613 -0.994846 2.964257 0
M  V30 2 C 1.211879 -0.004981 3.100889 0
M  V30 3 N 0.882356 1.285574 2.573265 0
M  V30 4 C 2.018321 2.130026 2.814840 0
M  V30 5 C 3.274081 1.626136 2.157167 0
M  V30 6 C 4.252355 0.799767 2.660083 0
M  V30 7 C 5.322378 0.457563 1.881542 0
M  V30 8 C 5.484959 0.909155 0.572581 0
M  V30 9 C 4.513693 1.736608 0.057499 0
M  V30 10 C 3.435233 2.080257 0.844777 0
M  V30 11 C -0.340736 1.667446 1.917831 0
M  V30 12 C -0.577055 2.940291 1.485132 0
M  V30 13 C -1.735132 3.328002 0.850869 0
M  V30 14 C -2.730800 2.394871 0.627242 0
M  V30 15 Cl -4.244636 2.784093 -0.171669 0
M  V30 16 C -2.442368 1.130393 1.081610 0
M  V30 17 C -3.493217 0.127831 0.840714 0
M  V30 18 C -4.823537 0.203797 1.218823 0
M  V30 19 C -5.670611 -0.838776 0.906923 0
M  V30 20 N -5.265951 -1.939235 0.246403 0
M  V30 21 C -3.993952 -2.077523 -0.148407 0
M  V30 22 N -3.278389 -3.009689 -0.803476 0
M  V30 23 C -1.987798 -2.674347 -0.963282 0
M  V30 24 C -0.888234 -3.392213 -1.607865 0
M  V30 25 C -1.056171 -3.639377 -3.077253 0
M  V30 26 C 0.274697 -4.144095 -3.595456 0
M  V30 27 N 1.242617 -4.301230 -2.553688 0
M  V30 28 C 0.832927 -5.089644 -1.436544 0
M  V30 29 C -0.597291 -4.757314 -0.994157 0
M  V30 30 C -1.919287 -1.432845 -0.352018 0
M  V30 31 C -3.137292 -1.037885 0.159441 0
M  V30 32 N -1.301661 0.788708 1.696455 0
M  V30 33 H 0.423538 -1.963237 3.442046 0
M  V30 34 H -0.791849 -0.621928 3.506689 0
M  V30 35 H -0.152276 -1.256827 1.923165 0
M  V30 36 H 2.131509 -0.398079 2.577697 0
M  V30 37 H 1.455852 0.059066 4.194036 0
M  V30 38 H 1.810190 3.159294 2.477621 0
M  V30 39 H 2.172107 2.180913 3.925679 0
M  V30 40 H 4.063669 0.492720 3.669087 0
M  V30 41 H 6.065069 -0.184449 2.297550 0
M  V30 42 H 6.348109 0.619101 -0.023720 0
M  V30 43 H 4.610264 2.108406 -0.964770 0
M  V30 44 H 2.708830 2.742849 0.355477 0
M  V30 45 H 0.125614 3.739988 1.607330 0
M  V30 46 H -1.910637 4.339685 0.513170 0
M  V30 47 H -5.091528 1.108974 1.744978 0
M  V30 48 H -6.681570 -0.651153 1.260224 0
M  V30 49 H -3.699705 -3.908960 -1.151684 0
M  V30 50 H 0.060231 -2.794735 -1.501249 0
M  V30 51 H -1.424758 -2.765916 -3.647591 0
M  V30 52 H -1.763430 -4.506096 -3.220454 0
M  V30 53 H 0.672196 -3.321118 -4.260795 0
M  V30 54 H 0.186502 -5.063220 -4.213265 0
M  V30 55 H 1.804276 -3.461847 -2.337873 0
M  V30 56 H 0.983199 -6.156350 -1.615366 0
M  V30 57 H 1.470275 -4.804332 -0.564623 0
M  V30 58 H -1.290244 -5.470078 -1.480920 0
M  V30 59 H -0.708602 -4.758767 0.103812 0
M  V30 60 H -0.976147 -0.865383 -0.305911 0
M  V30 END ATOM
M  V30 BEGIN BOND
M  V30 1 1 1 2
M  V30 2 1 2 3
M  V30 3 1 3 4
M  V30 4 1 4 5
M  V30 5 2 5 6
M  V30 6 1 6 7
M  V30 7 2 7 8
M  V30 8 1 8 9
M  V30 9 2 9 10
M  V30 10 1 3 11
M  V30 11 2 11 12
M  V30 12 1 12 13
M  V30 13 2 13 14
M  V30 14 1 14 15
M  V30 15 1 14 16
M  V30 16 1 16 17
M  V30 17 2 17 18
M  V30 18 1 18 19
M  V30 19 2 19 20
M  V30 20 1 20 21
M  V30 21 1 21 22
M  V30 22 1 22 23
M  V30 23 1 23 24
M  V30 24 1 24 25
M  V30 25 1 25 26
M  V30 26 1 26 27
M  V30 27 1 27 28
M  V30 28 1 28 29
M  V30 29 2 23 30
M  V30 30 1 30 31
M  V30 31 2 16 32
M  V30 32 1 10 5
M  V30 33 1 32 11
M  V30 34 1 31 17
M  V30 35 2 31 21
M  V30 36 1 29 24
M  V30 37 1 1 33
M  V30 38 1 1 34
M  V30 39 1 1 35
M  V30 40 1 2 36
M  V30 41 1 2 37
M  V30 42 1 4 38
M  V30 43 1 4 39
M  V30 44 1 6 40
M  V30 45 1 7 41
M  V30 46 1 8 42
M  V30 47 1 9 43
M  V30 48 1 10 44
M  V30 49 1 12 45
M  V30 50 1 13 46
M  V30 51 1 18 47
M  V30 52 1 19 48
M  V30 53 1 22 49
M  V30 54 1 24 50
M  V30 55 1 25 51
M  V30 56 1 25 52
M  V30 57 1 26 53
M  V30 58 1 26 54
M  V30 59 1 27 55
M  V30 60 1 28 56
M  V30 61 1 28 57
M  V30 62 1 29 58
M  V30 63 1 29 59
M  V30 64 1 30 60
M  V30 END BOND
M  V30 END CTAB
M  END
>  <Dataset>  (220) 
ChEMBL_Kinases

>  <Ligand_Instance>  (220) 
nan

>  <PDB_ID>  (220) 
nan

>  <Standardized_SMILES>  (220) 
CCN(Cc1ccccc1)c1ccc(Cl)c(-c2ccnc3[nH]c(C4CCNCC4)cc23)n1

>  <Name>  (220) 
nan

>  <Pocket>  (220) 
nan

>  <ATP_Site>  (220) 
nan

>  <Peripheral>  (220) 
nan

>  <Num_H_Atoms_ProtBoundConf>  (220) 
nan

>  <Num_Resolved_Atoms>  (220) 
nan

>  <Num_Not_Resolved_Atoms>  (220) 
nan

$$$$
CHEMBL3663786
     RDKit          3D

  0  0  0  0  0  0  0  0  0  0999 V3000
M  V30 BEGIN CTAB
M  V30 COUNTS 57 61 0 0 0
M  V30 BEGIN ATOM
M  V30 1 C 1.575692 -1.294629 0.816396 0
M  V30 2 N 1.872150 -0.091791 0.041801 0
M  V30 3 C 3.258138 -0.118075 -0.271727 0
M  V30 4 C 4.059000 -0.121440 0.971312 0
M  V30 5 C 4.579751 -1.164712 1.730180 0
M  V30 6 C 5.301849 -0.905109 2.868431 0
M  V30 7 C 5.553416 0.362812 3.324266 0
M  V30 8 C 5.039965 1.417542 2.577139 0
M  V30 9 C 4.308594 1.174274 1.425198 0
M  V30 10 C 0.955693 0.945031 -0.367480 0
M  V30 11 C 1.510397 2.073615 -0.931775 0
M  V30 12 C 0.634919 3.072141 -1.320862 0
M  V30 13 C -0.712823 2.873744 -1.120507 0
M  V30 14 Cl -1.712077 4.171429 -1.684427 0
M  V30 15 C -1.275591 1.757310 -0.560288 0
M  V30 16 C -2.675849 1.477016 -0.358805 0
M  V30 17 C -3.726683 2.352625 -0.342170 0
M  V30 18 C -5.049686 2.107256 -0.080787 0
M  V30 19 N -5.372463 0.812024 0.203815 0
M  V30 20 C -4.393791 -0.131597 0.210897 0
M  V30 21 N -4.540416 -1.442821 0.452938 0
M  V30 22 C -3.359478 -2.039049 0.351452 0
M  V30 23 C -3.141474 -3.498186 0.566922 0
M  V30 24 C -3.023995 -4.243330 -0.747153 0
M  V30 25 C -1.807071 -3.833057 -1.521860 0
M  V30 26 N -0.635122 -3.893910 -0.709126 0
M  V30 27 C -0.811426 -4.410437 0.611681 0
M  V30 28 C -1.943952 -3.811047 1.388564 0
M  V30 29 C -2.470311 -1.040138 0.035687 0
M  V30 30 C -3.069736 0.189923 -0.064957 0
M  V30 31 N -0.355003 0.843216 -0.215045 0
M  V30 32 H 0.528948 -1.379048 1.114287 0
M  V30 33 H 1.915996 -2.217314 0.343700 0
M  V30 34 H 2.160770 -1.229885 1.784742 0
M  V30 35 H 3.504767 -1.113878 -0.769525 0
M  V30 36 H 3.616746 0.648090 -0.971076 0
M  V30 37 H 4.327938 -2.121350 1.288797 0
M  V30 38 H 5.622409 -1.851576 3.320423 0
M  V30 39 H 6.133250 0.443671 4.231289 0
M  V30 40 H 5.258732 2.400087 2.967651 0
M  V30 41 H 3.980297 2.082508 0.960298 0
M  V30 42 H 2.566537 2.280709 -1.107790 0
M  V30 43 H 1.040185 3.978886 -1.771562 0
M  V30 44 H -3.545920 3.388790 -0.534492 0
M  V30 45 H -5.819037 2.858570 -0.088118 0
M  V30 46 H -5.446891 -1.937117 0.689069 0
M  V30 47 H -4.042878 -3.936370 1.069626 0
M  V30 48 H -2.835852 -5.315984 -0.443601 0
M  V30 49 H -3.942570 -4.249190 -1.333840 0
M  V30 50 H -1.690504 -4.478058 -2.418308 0
M  V30 51 H -1.905914 -2.798253 -1.933565 0
M  V30 52 H -0.003466 -3.094296 -0.791037 0
M  V30 53 H -0.867259 -5.533238 0.582413 0
M  V30 54 H 0.141598 -4.212170 1.159576 0
M  V30 55 H -1.592489 -2.917399 1.983422 0
M  V30 56 H -2.187061 -4.559931 2.197359 0
M  V30 57 H -1.428936 -1.240635 -0.118359 0
M  V30 END ATOM
M  V30 BEGIN BOND
M  V30 1 1 1 2
M  V30 2 1 2 3
M  V30 3 1 3 4
M  V30 4 2 4 5
M  V30 5 1 5 6
M  V30 6 2 6 7
M  V30 7 1 7 8
M  V30 8 2 8 9
M  V30 9 1 2 10
M  V30 10 2 10 11
M  V30 11 1 11 12
M  V30 12 2 12 13
M  V30 13 1 13 14
M  V30 14 1 13 15
M  V30 15 1 15 16
M  V30 16 2 16 17
M  V30 17 1 17 18
M  V30 18 2 18 19
M  V30 19 1 19 20
M  V30 20 1 20 21
M  V30 21 1 21 22
M  V30 22 1 22 23
M  V30 23 1 23 24
M  V30 24 1 24 25
M  V30 25 1 25 26
M  V30 26 1 26 27
M  V30 27 1 27 28
M  V30 28 2 22 29
M  V30 29 1 29 30
M  V30 30 2 15 31
M  V30 31 1 9 4
M  V30 32 1 31 10
M  V30 33 1 30 16
M  V30 34 2 30 20
M  V30 35 1 28 23
M  V30 36 1 1 32
M  V30 37 1 1 33
M  V30 38 1 1 34
M  V30 39 1 3 35
M  V30 40 1 3 36
M  V30 41 1 5 37
M  V30 42 1 6 38
M  V30 43 1 7 39
M  V30 44 1 8 40
M  V30 45 1 9 41
M  V30 46 1 11 42
M  V30 47 1 12 43
M  V30 48 1 17 44
M  V30 49 1 18 45
M  V30 50 1 21 46
M  V30 51 1 23 47
M  V30 52 1 24 48
M  V30 53 1 24 49
M  V30 54 1 25 50
M  V30 55 1 25 51
M  V30 56 1 26 52
M  V30 57 1 27 53
M  V30 58 1 27 54
M  V30 59 1 28 55
M  V30 60 1 28 56
M  V30 61 1 29 57
M  V30 END BOND
M  V30 END CTAB
M  END
>  <Dataset>  (221) 
ChEMBL_Kinases

>  <Ligand_Instance>  (221) 
nan

>  <PDB_ID>  (221) 
nan

>  <Standardized_SMILES>  (221) 
CN(Cc1ccccc1)c1ccc(Cl)c(-c2ccnc3[nH]c(C4CCNCC4)cc23)n1

>  <Name>  (221) 
nan

>  <Pocket>  (221) 
nan

>  <ATP_Site>  (221) 
nan

>  <Peripheral>  (221) 
nan

>  <Num_H_Atoms_ProtBoundConf>  (221) 
nan

>  <Num_Resolved_Atoms>  (221) 
nan

>  <Num_Not_Resolved_Atoms>  (221) 
nan

$$$$
CHEMBL3663784
     RDKit          3D

  0  0  0  0  0  0  0  0  0  0999 V3000
M  V30 BEGIN CTAB
M  V30 COUNTS 49 53 0 0 0
M  V30 BEGIN ATOM
M  V30 1 Cl 3.320246 -3.348245 3.204066 0
M  V30 2 C 3.190361 -2.357355 1.772515 0
M  V30 3 C 3.779170 -2.537239 0.544934 0
M  V30 4 C 3.521048 -1.610866 -0.433134 0
M  V30 5 C 2.714264 -0.512010 -0.275392 0
M  V30 6 C 2.457193 0.479822 -1.315424 0
M  V30 7 C 2.984642 0.413624 -2.583792 0
M  V30 8 C 2.777849 1.345606 -3.607941 0
M  V30 9 C 1.940537 2.414353 -3.213332 0
M  V30 10 C 1.404057 2.502178 -1.954923 0
M  V30 11 C 1.662888 1.538872 -1.013791 0
M  V30 12 N 2.156332 -0.380495 0.951939 0
M  V30 13 C 2.377067 -1.268621 1.961107 0
M  V30 14 C 1.606768 -0.787977 3.132786 0
M  V30 15 C 2.159841 -0.477011 4.340132 0
M  V30 16 C 1.315254 -0.008428 5.317491 0
M  V30 17 N -0.029442 0.164562 5.159208 0
M  V30 18 C -0.620619 -0.132104 3.978951 0
M  V30 19 N -1.871526 -0.089052 3.504732 0
M  V30 20 C -1.929377 -0.508611 2.243890 0
M  V30 21 C -3.110100 -0.618109 1.302153 0
M  V30 22 C -2.739286 -0.416428 -0.120345 0
M  V30 23 C -2.519188 -1.746822 -0.794460 0
M  V30 24 N -3.843414 -2.373564 -0.808682 0
M  V30 25 C -4.065793 -2.851155 0.537409 0
M  V30 26 C -3.926044 -1.821653 1.582351 0
M  V30 27 C -0.616700 -0.830139 1.927591 0
M  V30 28 C 0.223473 -0.599074 3.006962 0
M  V30 29 H 4.401930 -3.410440 0.472243 0
M  V30 30 H 4.000269 -1.780700 -1.392406 0
M  V30 31 H 3.614079 -0.413922 -2.843304 0
M  V30 32 H 3.226851 1.225232 -4.579089 0
M  V30 33 H 1.790301 3.135732 -4.031521 0
M  V30 34 H 0.777122 3.382045 -1.783735 0
M  V30 35 H 1.232819 1.622411 -0.029423 0
M  V30 36 H 3.209910 -0.615004 4.460934 0
M  V30 37 H 1.721753 0.250014 6.293925 0
M  V30 38 H -2.723988 0.238092 4.051452 0
M  V30 39 H -3.754237 0.264931 1.620503 0
M  V30 40 H -1.865678 0.260074 -0.220507 0
M  V30 41 H -3.609054 0.065344 -0.643697 0
M  V30 42 H -2.070496 -1.670752 -1.802608 0
M  V30 43 H -1.875935 -2.445601 -0.226264 0
M  V30 44 H -4.586190 -1.728873 -1.145740 0
M  V30 45 H -3.403942 -3.724693 0.714429 0
M  V30 46 H -5.098867 -3.269970 0.562302 0
M  V30 47 H -3.492581 -2.335808 2.493458 0
M  V30 48 H -4.957460 -1.533236 1.950120 0
M  V30 49 H -0.263209 -1.206386 0.977528 0
M  V30 END ATOM
M  V30 BEGIN BOND
M  V30 1 1 1 2
M  V30 2 2 2 3
M  V30 3 1 3 4
M  V30 4 2 4 5
M  V30 5 1 5 6
M  V30 6 2 6 7
M  V30 7 1 7 8
M  V30 8 2 8 9
M  V30 9 1 9 10
M  V30 10 2 10 11
M  V30 11 1 5 12
M  V30 12 2 12 13
M  V30 13 1 13 14
M  V30 14 2 14 15
M  V30 15 1 15 16
M  V30 16 2 16 17
M  V30 17 1 17 18
M  V30 18 1 18 19
M  V30 19 1 19 20
M  V30 20 1 20 21
M  V30 21 1 21 22
M  V30 22 1 22 23
M  V30 23 1 23 24
M  V30 24 1 24 25
M  V30 25 1 25 26
M  V30 26 2 20 27
M  V30 27 1 27 28
M  V30 28 1 13 2
M  V30 29 1 28 14
M  V30 30 1 11 6
M  V30 31 2 28 18
M  V30 32 1 26 21
M  V30 33 1 3 29
M  V30 34 1 4 30
M  V30 35 1 7 31
M  V30 36 1 8 32
M  V30 37 1 9 33
M  V30 38 1 10 34
M  V30 39 1 11 35
M  V30 40 1 15 36
M  V30 41 1 16 37
M  V30 42 1 19 38
M  V30 43 1 21 39
M  V30 44 1 22 40
M  V30 45 1 22 41
M  V30 46 1 23 42
M  V30 47 1 23 43
M  V30 48 1 24 44
M  V30 49 1 25 45
M  V30 50 1 25 46
M  V30 51 1 26 47
M  V30 52 1 26 48
M  V30 53 1 27 49
M  V30 END BOND
M  V30 END CTAB
M  END
>  <Dataset>  (222) 
ChEMBL_Kinases

>  <Ligand_Instance>  (222) 
nan

>  <PDB_ID>  (222) 
nan

>  <Standardized_SMILES>  (222) 
Clc1ccc(-c2ccccc2)nc1-c1ccnc2[nH]c(C3CCNCC3)cc12

>  <Name>  (222) 
nan

>  <Pocket>  (222) 
nan

>  <ATP_Site>  (222) 
nan

>  <Peripheral>  (222) 
nan

>  <Num_H_Atoms_ProtBoundConf>  (222) 
nan

>  <Num_Resolved_Atoms>  (222) 
nan

>  <Num_Not_Resolved_Atoms>  (222) 
nan

$$$$
CHEMBL3663783
     RDKit          3D

  0  0  0  0  0  0  0  0  0  0999 V3000
M  V30 BEGIN CTAB
M  V30 COUNTS 59 63 0 0 0
M  V30 BEGIN ATOM
M  V30 1 Cl 0.068006 -1.896916 5.809385 0
M  V30 2 C 0.734897 -0.768030 4.671236 0
M  V30 3 C 2.087093 -0.485229 4.799909 0
M  V30 4 C 2.604590 0.418267 3.886511 0
M  V30 5 C 1.732402 0.954913 2.931313 0
M  V30 6 N 2.114302 1.887874 1.940112 0
M  V30 7 C 2.420653 2.293937 0.612513 0
M  V30 8 C 1.269758 2.294941 -0.356129 0
M  V30 9 C 0.610573 0.978617 -0.577875 0
M  V30 10 C 1.678227 -0.067545 -0.853602 0
M  V30 11 C 2.421829 0.408745 -2.073109 0
M  V30 12 N 1.955108 1.643946 -2.616597 0
M  V30 13 C 1.819536 2.731052 -1.709086 0
M  V30 14 N 0.418866 0.643642 2.847506 0
M  V30 15 C -0.102380 -0.228556 3.724572 0
M  V30 16 C -1.520705 -0.648790 3.646988 0
M  V30 17 C -2.488813 -0.384512 4.592764 0
M  V30 18 C -3.776284 -0.812559 4.368327 0
M  V30 19 N -4.141260 -1.488758 3.253562 0
M  V30 20 C -3.251206 -1.781333 2.289761 0
M  V30 21 N -3.287689 -2.446460 1.103566 0
M  V30 22 C -2.072115 -2.481675 0.520009 0
M  V30 23 C -1.739471 -3.159850 -0.736523 0
M  V30 24 C -1.686108 -2.264163 -1.950039 0
M  V30 25 C -1.791675 -3.201031 -3.153207 0
M  V30 26 N -0.816697 -4.250277 -3.010578 0
M  V30 27 C 0.172491 -3.993697 -2.008449 0
M  V30 28 C -0.464229 -3.969928 -0.633626 0
M  V30 29 C -1.244935 -1.796749 1.398779 0
M  V30 30 C -1.953930 -1.345807 2.519513 0
M  V30 31 H 2.720111 -0.922236 5.552753 0
M  V30 32 H 3.642686 0.731964 3.871507 0
M  V30 33 H 2.185698 2.702381 2.638850 0
M  V30 34 H 3.269973 1.649584 0.207370 0
M  V30 35 H 2.856354 3.308090 0.597636 0
M  V30 36 H 0.534951 3.028937 0.041575 0
M  V30 37 H 0.037317 1.088257 -1.549754 0
M  V30 38 H -0.144168 0.672531 0.144251 0
M  V30 39 H 1.179571 -1.037425 -0.968595 0
M  V30 40 H 2.351210 -0.179243 0.026648 0
M  V30 41 H 2.290844 -0.364641 -2.878025 0
M  V30 42 H 3.523416 0.434081 -1.891394 0
M  V30 43 H 1.283122 1.579281 -3.388562 0
M  V30 44 H 1.053358 3.434262 -2.152231 0
M  V30 45 H 2.745339 3.327538 -1.617100 0
M  V30 46 H -2.164199 0.157388 5.471450 0
M  V30 47 H -4.515871 -0.581566 5.139457 0
M  V30 48 H -4.166645 -2.862934 0.728735 0
M  V30 49 H -2.577077 -3.885346 -0.955069 0
M  V30 50 H -0.807854 -1.622797 -2.012579 0
M  V30 51 H -2.564357 -1.583612 -1.889066 0
M  V30 52 H -2.825976 -3.641873 -3.093209 0
M  V30 53 H -1.717236 -2.661277 -4.115084 0
M  V30 54 H -0.348635 -4.448129 -3.915238 0
M  V30 55 H 0.746762 -3.061076 -2.141399 0
M  V30 56 H 0.908398 -4.834157 -2.044599 0
M  V30 57 H -0.644336 -5.019922 -0.337070 0
M  V30 58 H 0.231528 -3.538942 0.119388 0
M  V30 59 H -0.186250 -1.668123 1.181398 0
M  V30 END ATOM
M  V30 BEGIN BOND
M  V30 1 1 1 2
M  V30 2 2 2 3
M  V30 3 1 3 4
M  V30 4 2 4 5
M  V30 5 1 5 6
M  V30 6 1 6 7
M  V30 7 1 7 8
M  V30 8 1 8 9
M  V30 9 1 9 10
M  V30 10 1 10 11
M  V30 11 1 11 12
M  V30 12 1 12 13
M  V30 13 1 5 14
M  V30 14 2 14 15
M  V30 15 1 15 16
M  V30 16 2 16 17
M  V30 17 1 17 18
M  V30 18 2 18 19
M  V30 19 1 19 20
M  V30 20 1 20 21
M  V30 21 1 21 22
M  V30 22 1 22 23
M  V30 23 1 23 24
M  V30 24 1 24 25
M  V30 25 1 25 26
M  V30 26 1 26 27
M  V30 27 1 27 28
M  V30 28 2 22 29
M  V30 29 1 29 30
M  V30 30 1 15 2
M  V30 31 1 30 16
M  V30 32 1 13 8
M  V30 33 2 30 20
M  V30 34 1 28 23
M  V30 35 1 3 31
M  V30 36 1 4 32
M  V30 37 1 6 33
M  V30 38 1 7 34
M  V30 39 1 7 35
M  V30 40 1 8 36
M  V30 41 1 9 37
M  V30 42 1 9 38
M  V30 43 1 10 39
M  V30 44 1 10 40
M  V30 45 1 11 41
M  V30 46 1 11 42
M  V30 47 1 12 43
M  V30 48 1 13 44
M  V30 49 1 13 45
M  V30 50 1 17 46
M  V30 51 1 18 47
M  V30 52 1 21 48
M  V30 53 1 23 49
M  V30 54 1 24 50
M  V30 55 1 24 51
M  V30 56 1 25 52
M  V30 57 1 25 53
M  V30 58 1 26 54
M  V30 59 1 27 55
M  V30 60 1 27 56
M  V30 61 1 28 57
M  V30 62 1 28 58
M  V30 63 1 29 59
M  V30 END BOND
M  V30 END CTAB
M  END
>  <Dataset>  (223) 
ChEMBL_Kinases

>  <Ligand_Instance>  (223) 
nan

>  <PDB_ID>  (223) 
nan

>  <Standardized_SMILES>  (223) 
Clc1ccc(NCC2CCCNC2)nc1-c1ccnc2[nH]c(C3CCNCC3)cc12

>  <Name>  (223) 
nan

>  <Pocket>  (223) 
nan

>  <ATP_Site>  (223) 
nan

>  <Peripheral>  (223) 
nan

>  <Num_H_Atoms_ProtBoundConf>  (223) 
nan

>  <Num_Resolved_Atoms>  (223) 
nan

>  <Num_Not_Resolved_Atoms>  (223) 
nan

$$$$
CHEMBL3663782
     RDKit          3D

  0  0  0  0  0  0  0  0  0  0999 V3000
M  V30 BEGIN CTAB
M  V30 COUNTS 59 63 0 0 0
M  V30 BEGIN ATOM
M  V30 1 Cl -0.269821 -1.497259 5.811587 0
M  V30 2 C 0.438390 -0.378771 4.636854 0
M  V30 3 C 1.668819 0.091468 5.044888 0
M  V30 4 C 2.263000 0.982254 4.140076 0
M  V30 5 C 1.646633 1.336743 2.955111 0
M  V30 6 N 2.286395 2.236427 2.066697 0
M  V30 7 C 3.117649 2.420504 0.929416 0
M  V30 8 C 2.601668 1.876952 -0.371143 0
M  V30 9 C 2.357033 0.406943 -0.402731 0
M  V30 10 C 1.959260 0.089340 -1.855982 0
M  V30 11 N 0.595834 0.532606 -2.009664 0
M  V30 12 C 0.219583 1.539811 -1.056464 0
M  V30 13 C 1.319622 2.549656 -0.811767 0
M  V30 14 N 0.447026 0.836354 2.626072 0
M  V30 15 C -0.185291 -0.023037 3.442254 0
M  V30 16 C -1.471018 -0.695527 3.273659 0
M  V30 17 C -2.362606 -0.445402 4.296913 0
M  V30 18 C -3.626184 -1.034630 4.234293 0
M  V30 19 N -3.930862 -1.818908 3.191090 0
M  V30 20 C -3.083300 -2.074663 2.191384 0
M  V30 21 N -3.110415 -2.787674 1.073077 0
M  V30 22 C -1.933981 -2.702700 0.389696 0
M  V30 23 C -1.676699 -3.402162 -0.885782 0
M  V30 24 C -1.747346 -2.443284 -2.070362 0
M  V30 25 C -1.942688 -3.353520 -3.291200 0
M  V30 26 N -0.842378 -4.278590 -3.375578 0
M  V30 27 C 0.162671 -4.099980 -2.369476 0
M  V30 28 C -0.382231 -4.135956 -0.956492 0
M  V30 29 C -1.089290 -1.876457 1.119933 0
M  V30 30 C -1.819861 -1.508264 2.216398 0
M  V30 31 H 2.166792 -0.161731 5.951082 0
M  V30 32 H 3.229559 1.404023 4.373986 0
M  V30 33 H 1.914347 3.107420 2.561756 0
M  V30 34 H 4.119976 1.947653 1.091463 0
M  V30 35 H 3.324154 3.491758 0.785930 0
M  V30 36 H 3.364898 2.113043 -1.143432 0
M  V30 37 H 1.497167 0.048551 0.184588 0
M  V30 38 H 3.270470 -0.151876 -0.123923 0
M  V30 39 H 2.105171 -0.982852 -1.997635 0
M  V30 40 H 2.662093 0.694923 -2.485622 0
M  V30 41 H 0.343969 0.788019 -2.993177 0
M  V30 42 H -0.218715 1.127535 -0.123736 0
M  V30 43 H -0.631276 2.119472 -1.519227 0
M  V30 44 H 0.941779 3.258569 -0.048445 0
M  V30 45 H 1.429061 3.131947 -1.751151 0
M  V30 46 H -2.166542 0.177102 5.158737 0
M  V30 47 H -4.357480 -0.869788 5.011275 0
M  V30 48 H -3.962072 -3.339779 0.786556 0
M  V30 49 H -2.537207 -4.111588 -1.056454 0
M  V30 50 H -0.826045 -1.883421 -2.221497 0
M  V30 51 H -2.661963 -1.810078 -1.957542 0
M  V30 52 H -2.866560 -3.953409 -3.111821 0
M  V30 53 H -2.136782 -2.767199 -4.192425 0
M  V30 54 H -0.374622 -4.092594 -4.299696 0
M  V30 55 H 0.752488 -3.170530 -2.500940 0
M  V30 56 H 0.870675 -4.947755 -2.468732 0
M  V30 57 H -0.507733 -5.207628 -0.664279 0
M  V30 58 H 0.410546 -3.717104 -0.293304 0
M  V30 59 H -0.096891 -1.599892 0.874458 0
M  V30 END ATOM
M  V30 BEGIN BOND
M  V30 1 1 1 2
M  V30 2 2 2 3
M  V30 3 1 3 4
M  V30 4 2 4 5
M  V30 5 1 5 6
M  V30 6 1 6 7
M  V30 7 1 7 8
M  V30 8 1 8 9
M  V30 9 1 9 10
M  V30 10 1 10 11
M  V30 11 1 11 12
M  V30 12 1 12 13
M  V30 13 1 5 14
M  V30 14 2 14 15
M  V30 15 1 15 16
M  V30 16 2 16 17
M  V30 17 1 17 18
M  V30 18 2 18 19
M  V30 19 1 19 20
M  V30 20 1 20 21
M  V30 21 1 21 22
M  V30 22 1 22 23
M  V30 23 1 23 24
M  V30 24 1 24 25
M  V30 25 1 25 26
M  V30 26 1 26 27
M  V30 27 1 27 28
M  V30 28 2 22 29
M  V30 29 1 29 30
M  V30 30 1 15 2
M  V30 31 1 30 16
M  V30 32 1 13 8
M  V30 33 2 30 20
M  V30 34 1 28 23
M  V30 35 1 3 31
M  V30 36 1 4 32
M  V30 37 1 6 33
M  V30 38 1 7 34
M  V30 39 1 7 35
M  V30 40 1 8 36
M  V30 41 1 9 37
M  V30 42 1 9 38
M  V30 43 1 10 39
M  V30 44 1 10 40
M  V30 45 1 11 41
M  V30 46 1 12 42
M  V30 47 1 12 43
M  V30 48 1 13 44
M  V30 49 1 13 45
M  V30 50 1 17 46
M  V30 51 1 18 47
M  V30 52 1 21 48
M  V30 53 1 23 49
M  V30 54 1 24 50
M  V30 55 1 24 51
M  V30 56 1 25 52
M  V30 57 1 25 53
M  V30 58 1 26 54
M  V30 59 1 27 55
M  V30 60 1 27 56
M  V30 61 1 28 57
M  V30 62 1 28 58
M  V30 63 1 29 59
M  V30 END BOND
M  V30 END CTAB
M  END
>  <Dataset>  (224) 
ChEMBL_Kinases

>  <Ligand_Instance>  (224) 
nan

>  <PDB_ID>  (224) 
nan

>  <Standardized_SMILES>  (224) 
Clc1ccc(NCC2CCNCC2)nc1-c1ccnc2[nH]c(C3CCNCC3)cc12

>  <Name>  (224) 
nan

>  <Pocket>  (224) 
nan

>  <ATP_Site>  (224) 
nan

>  <Peripheral>  (224) 
nan

>  <Num_H_Atoms_ProtBoundConf>  (224) 
nan

>  <Num_Resolved_Atoms>  (224) 
nan

>  <Num_Not_Resolved_Atoms>  (224) 
nan

$$$$
CHEMBL3663781
     RDKit          3D

  0  0  0  0  0  0  0  0  0  0999 V3000
M  V30 BEGIN CTAB
M  V30 COUNTS 53 57 0 0 0
M  V30 BEGIN ATOM
M  V30 1 Cl 3.310894 -3.120565 0.774032 0
M  V30 2 C 2.929782 -1.562870 1.464649 0
M  V30 3 C 3.705015 -1.060151 2.514291 0
M  V30 4 C 3.339816 0.179694 3.010169 0
M  V30 5 C 2.248151 0.879472 2.475183 0
M  V30 6 N 2.083969 2.120115 3.145301 0
M  V30 7 C 3.066985 3.029705 2.543647 0
M  V30 8 C 2.873036 3.141680 1.086392 0
M  V30 9 C 3.537937 2.263534 0.223974 0
M  V30 10 C 3.445649 2.260454 -1.149454 0
M  V30 11 N 2.650100 3.177618 -1.731865 0
M  V30 12 C 1.988018 4.046847 -0.938527 0
M  V30 13 C 2.068138 4.062411 0.414014 0
M  V30 14 N 1.553619 0.326365 1.466637 0
M  V30 15 C 1.851463 -0.867968 0.939767 0
M  V30 16 C 1.034146 -1.399064 -0.141456 0
M  V30 17 C 1.730305 -1.695412 -1.303384 0
M  V30 18 C 1.093995 -2.196674 -2.397278 0
M  V30 19 N -0.226598 -2.423491 -2.392564 0
M  V30 20 C -0.946692 -2.145477 -1.268335 0
M  V30 21 N -2.245041 -2.252884 -0.919829 0
M  V30 22 C -2.443337 -1.839707 0.340317 0
M  V30 23 C -3.750808 -1.834862 1.089295 0
M  V30 24 C -4.907138 -1.891514 0.166962 0
M  V30 25 C -5.386775 -3.262972 -0.208454 0
M  V30 26 N -4.451071 -4.323644 -0.114937 0
M  V30 27 C -3.502709 -4.273061 0.940817 0
M  V30 28 C -3.796965 -3.148657 1.905727 0
M  V30 29 C -1.217556 -1.429851 0.875049 0
M  V30 30 C -0.322913 -1.639429 -0.158949 0
M  V30 31 H 4.552074 -1.619140 2.914527 0
M  V30 32 H 3.987818 0.522874 3.834570 0
M  V30 33 H 1.413534 2.380061 3.915659 0
M  V30 34 H 3.033683 4.026436 3.033170 0
M  V30 35 H 4.062296 2.573286 2.724182 0
M  V30 36 H 4.216380 1.479448 0.586152 0
M  V30 37 H 3.963562 1.579959 -1.806847 0
M  V30 38 H 1.346652 4.785753 -1.416352 0
M  V30 39 H 1.538937 4.753236 1.059479 0
M  V30 40 H 2.790460 -1.547958 -1.397799 0
M  V30 41 H 1.574172 -2.454854 -3.350216 0
M  V30 42 H -2.911407 -2.619016 -1.625983 0
M  V30 43 H -3.759928 -1.045753 1.849758 0
M  V30 44 H -4.779666 -1.232389 -0.736083 0
M  V30 45 H -5.777871 -1.402920 0.708618 0
M  V30 46 H -5.784937 -3.247531 -1.251534 0
M  V30 47 H -6.292611 -3.559454 0.404786 0
M  V30 48 H -4.091456 -4.699672 -1.014712 0
M  V30 49 H -3.542445 -5.236405 1.506352 0
M  V30 50 H -2.452620 -4.120730 0.595150 0
M  V30 51 H -3.016439 -3.158183 2.688022 0
M  V30 52 H -4.793324 -3.252424 2.335174 0
M  V30 53 H -1.004212 -1.038244 1.860340 0
M  V30 END ATOM
M  V30 BEGIN BOND
M  V30 1 1 1 2
M  V30 2 2 2 3
M  V30 3 1 3 4
M  V30 4 2 4 5
M  V30 5 1 5 6
M  V30 6 1 6 7
M  V30 7 1 7 8
M  V30 8 2 8 9
M  V30 9 1 9 10
M  V30 10 2 10 11
M  V30 11 1 11 12
M  V30 12 2 12 13
M  V30 13 1 5 14
M  V30 14 2 14 15
M  V30 15 1 15 16
M  V30 16 2 16 17
M  V30 17 1 17 18
M  V30 18 2 18 19
M  V30 19 1 19 20
M  V30 20 1 20 21
M  V30 21 1 21 22
M  V30 22 1 22 23
M  V30 23 1 23 24
M  V30 24 1 24 25
M  V30 25 1 25 26
M  V30 26 1 26 27
M  V30 27 1 27 28
M  V30 28 2 22 29
M  V30 29 1 29 30
M  V30 30 1 15 2
M  V30 31 1 30 16
M  V30 32 1 13 8
M  V30 33 2 30 20
M  V30 34 1 28 23
M  V30 35 1 3 31
M  V30 36 1 4 32
M  V30 37 1 6 33
M  V30 38 1 7 34
M  V30 39 1 7 35
M  V30 40 1 9 36
M  V30 41 1 10 37
M  V30 42 1 12 38
M  V30 43 1 13 39
M  V30 44 1 17 40
M  V30 45 1 18 41
M  V30 46 1 21 42
M  V30 47 1 23 43
M  V30 48 1 24 44
M  V30 49 1 24 45
M  V30 50 1 25 46
M  V30 51 1 25 47
M  V30 52 1 26 48
M  V30 53 1 27 49
M  V30 54 1 27 50
M  V30 55 1 28 51
M  V30 56 1 28 52
M  V30 57 1 29 53
M  V30 END BOND
M  V30 END CTAB
M  END
>  <Dataset>  (225) 
ChEMBL_Kinases

>  <Ligand_Instance>  (225) 
nan

>  <PDB_ID>  (225) 
nan

>  <Standardized_SMILES>  (225) 
Clc1ccc(NCc2ccncc2)nc1-c1ccnc2[nH]c(C3CCNCC3)cc12

>  <Name>  (225) 
nan

>  <Pocket>  (225) 
nan

>  <ATP_Site>  (225) 
nan

>  <Peripheral>  (225) 
nan

>  <Num_H_Atoms_ProtBoundConf>  (225) 
nan

>  <Num_Resolved_Atoms>  (225) 
nan

>  <Num_Not_Resolved_Atoms>  (225) 
nan

$$$$
CHEMBL3663780
     RDKit          3D

  0  0  0  0  0  0  0  0  0  0999 V3000
M  V30 BEGIN CTAB
M  V30 COUNTS 54 58 0 0 0
M  V30 BEGIN ATOM
M  V30 1 F 1.082140 -5.084662 0.571189 0
M  V30 2 C 1.885069 -4.028944 0.264724 0
M  V30 3 C 2.955010 -3.636888 1.050934 0
M  V30 4 C 3.754772 -2.554984 0.705089 0
M  V30 5 C 3.447794 -1.872624 -0.461611 0
M  V30 6 C 4.317627 -0.696866 -0.827757 0
M  V30 7 N 3.892593 0.451748 -0.093234 0
M  V30 8 C 2.987394 1.442618 0.343076 0
M  V30 9 C 2.829723 2.794381 0.125731 0
M  V30 10 C 1.795394 3.407878 0.788035 0
M  V30 11 C 0.972227 2.670993 1.624227 0
M  V30 12 Cl -0.275393 3.730560 2.339423 0
M  V30 13 C 1.130713 1.303858 1.839535 0
M  V30 14 C 0.045764 0.875511 2.705192 0
M  V30 15 C 0.155981 1.288461 4.030285 0
M  V30 16 C -0.802299 0.905750 4.936289 0
M  V30 17 N -1.851861 0.127125 4.537788 0
M  V30 18 C -1.980927 -0.284991 3.253201 0
M  V30 19 N -2.878785 -1.010631 2.542454 0
M  V30 20 C -2.508823 -1.075490 1.253149 0
M  V30 21 C -3.384525 -1.801456 0.269183 0
M  V30 22 C -4.171114 -0.778287 -0.540572 0
M  V30 23 C -4.534363 -1.400413 -1.876384 0
M  V30 24 N -3.314787 -1.499474 -2.633470 0
M  V30 25 C -2.249301 -2.130589 -1.937079 0
M  V30 26 C -2.646714 -2.727670 -0.630778 0
M  V30 27 C -1.347275 -0.391032 1.094856 0
M  V30 28 C -1.031518 0.093120 2.347313 0
M  V30 29 N 2.164946 0.761894 1.159326 0
M  V30 30 C 2.401635 -2.201939 -1.294164 0
M  V30 31 C 1.648638 -3.289737 -0.885776 0
M  V30 32 F 0.589747 -3.660231 -1.678502 0
M  V30 33 H 3.147936 -4.222206 1.968173 0
M  V30 34 H 4.582603 -2.271129 1.338781 0
M  V30 35 H 4.265199 -0.496330 -1.916693 0
M  V30 36 H 5.333217 -1.004701 -0.579079 0
M  V30 37 H 4.692974 0.844920 0.498044 0
M  V30 38 H 3.574564 3.144769 -0.567450 0
M  V30 39 H 1.728600 4.465784 0.557760 0
M  V30 40 H 0.951650 1.907865 4.460077 0
M  V30 41 H -0.740152 1.207043 5.989405 0
M  V30 42 H -3.707117 -1.399513 3.050236 0
M  V30 43 H -4.151961 -2.390063 0.835515 0
M  V30 44 H -5.091727 -0.508334 -0.003662 0
M  V30 45 H -3.593448 0.109622 -0.759990 0
M  V30 46 H -5.110079 -2.323422 -1.768502 0
M  V30 47 H -5.161906 -0.644115 -2.402694 0
M  V30 48 H -3.068931 -0.548601 -2.964344 0
M  V30 49 H -1.362792 -1.460178 -1.769475 0
M  V30 50 H -1.837763 -2.977598 -2.556135 0
M  V30 51 H -1.755867 -3.167986 -0.123916 0
M  V30 52 H -3.314996 -3.634499 -0.817266 0
M  V30 53 H -0.818356 -0.279246 0.185429 0
M  V30 54 H 2.249828 -1.602523 -2.167185 0
M  V30 END ATOM
M  V30 BEGIN BOND
M  V30 1 1 1 2
M  V30 2 2 2 3
M  V30 3 1 3 4
M  V30 4 2 4 5
M  V30 5 1 5 6
M  V30 6 1 6 7
M  V30 7 1 7 8
M  V30 8 2 8 9
M  V30 9 1 9 10
M  V30 10 2 10 11
M  V30 11 1 11 12
M  V30 12 1 11 13
M  V30 13 1 13 14
M  V30 14 2 14 15
M  V30 15 1 15 16
M  V30 16 2 16 17
M  V30 17 1 17 18
M  V30 18 1 18 19
M  V30 19 1 19 20
M  V30 20 1 20 21
M  V30 21 1 21 22
M  V30 22 1 22 23
M  V30 23 1 23 24
M  V30 24 1 24 25
M  V30 25 1 25 26
M  V30 26 2 20 27
M  V30 27 1 27 28
M  V30 28 2 13 29
M  V30 29 1 5 30
M  V30 30 2 30 31
M  V30 31 1 31 32
M  V30 32 1 31 2
M  V30 33 1 29 8
M  V30 34 1 28 14
M  V30 35 2 28 18
M  V30 36 1 26 21
M  V30 37 1 3 33
M  V30 38 1 4 34
M  V30 39 1 6 35
M  V30 40 1 6 36
M  V30 41 1 7 37
M  V30 42 1 9 38
M  V30 43 1 10 39
M  V30 44 1 15 40
M  V30 45 1 16 41
M  V30 46 1 19 42
M  V30 47 1 21 43
M  V30 48 1 22 44
M  V30 49 1 22 45
M  V30 50 1 23 46
M  V30 51 1 23 47
M  V30 52 1 24 48
M  V30 53 1 25 49
M  V30 54 1 25 50
M  V30 55 1 26 51
M  V30 56 1 26 52
M  V30 57 1 27 53
M  V30 58 1 30 54
M  V30 END BOND
M  V30 END CTAB
M  END
>  <Dataset>  (226) 
ChEMBL_Kinases

>  <Ligand_Instance>  (226) 
nan

>  <PDB_ID>  (226) 
nan

>  <Standardized_SMILES>  (226) 
Fc1ccc(CNc2ccc(Cl)c(-c3ccnc4[nH]c(C5CCNCC5)cc34)n2)cc1F

>  <Name>  (226) 
nan

>  <Pocket>  (226) 
nan

>  <ATP_Site>  (226) 
nan

>  <Peripheral>  (226) 
nan

>  <Num_H_Atoms_ProtBoundConf>  (226) 
nan

>  <Num_Resolved_Atoms>  (226) 
nan

>  <Num_Not_Resolved_Atoms>  (226) 
nan

$$$$
CHEMBL3663779
     RDKit          3D

  0  0  0  0  0  0  0  0  0  0999 V3000
M  V30 BEGIN CTAB
M  V30 COUNTS 54 58 0 0 0
M  V30 BEGIN ATOM
M  V30 1 F 2.497698 1.841181 2.991602 0
M  V30 2 C 3.417324 0.830104 3.139899 0
M  V30 3 C 3.122252 0.035204 4.214929 0
M  V30 4 C 4.081496 -0.953503 4.416955 0
M  V30 5 C 5.177480 -1.061519 3.602322 0
M  V30 6 C 5.357727 -0.170780 2.529956 0
M  V30 7 C 4.450114 0.853013 2.235951 0
M  V30 8 C 4.922163 1.532297 1.013574 0
M  V30 9 N 4.032436 2.493813 0.399344 0
M  V30 10 C 2.607793 2.213268 0.214981 0
M  V30 11 C 1.827075 3.356285 0.450031 0
M  V30 12 C 0.511128 2.916770 0.715269 0
M  V30 13 C 0.168586 1.556211 0.721976 0
M  V30 14 Cl -1.544239 1.698682 1.198951 0
M  V30 15 C 1.081243 0.487260 0.464305 0
M  V30 16 C 0.299630 -0.700687 0.546901 0
M  V30 17 C 1.188026 -1.394916 1.359117 0
M  V30 18 C 0.905058 -2.769294 1.725006 0
M  V30 19 N -0.233836 -3.305587 1.269667 0
M  V30 20 C -1.077745 -2.557641 0.485027 0
M  V30 21 N -2.318748 -2.703203 -0.039934 0
M  V30 22 C -2.763180 -1.611052 -0.678789 0
M  V30 23 C -4.123594 -1.423125 -1.271538 0
M  V30 24 C -5.187491 -2.220154 -0.557072 0
M  V30 25 C -5.913972 -3.157499 -1.486794 0
M  V30 26 N -4.991126 -3.965745 -2.269214 0
M  V30 27 C -3.872405 -3.261769 -2.813526 0
M  V30 28 C -4.167435 -1.781275 -2.741740 0
M  V30 29 C -1.785021 -0.655158 -0.609915 0
M  V30 30 C -0.834647 -1.270847 0.102949 0
M  V30 31 N 2.366892 0.870127 0.188605 0
M  V30 32 H 2.262842 0.115389 4.823357 0
M  V30 33 H 3.938919 -1.649191 5.222660 0
M  V30 34 H 5.868014 -1.859970 3.876810 0
M  V30 35 H 6.301529 -0.427460 2.045029 0
M  V30 36 H 5.840428 2.090689 1.349222 0
M  V30 37 H 5.178892 0.777169 0.279064 0
M  V30 38 H 4.429160 3.421487 0.082879 0
M  V30 39 H 2.254403 4.305597 0.376816 0
M  V30 40 H -0.060422 3.845906 0.870963 0
M  V30 41 H 2.181343 -1.251395 1.861652 0
M  V30 42 H 1.502628 -3.452967 2.316180 0
M  V30 43 H -2.862926 -3.646439 0.084902 0
M  V30 44 H -4.374615 -0.318661 -1.246146 0
M  V30 45 H -5.978433 -1.556668 -0.111758 0
M  V30 46 H -4.835085 -2.832185 0.281530 0
M  V30 47 H -6.472922 -3.862159 -0.847149 0
M  V30 48 H -6.656493 -2.641976 -2.103898 0
M  V30 49 H -4.725447 -4.842048 -1.750276 0
M  V30 50 H -3.744605 -3.591819 -3.845686 0
M  V30 51 H -2.939209 -3.423585 -2.219394 0
M  V30 52 H -3.450407 -1.171353 -3.325663 0
M  V30 53 H -5.202719 -1.594346 -3.068287 0
M  V30 54 H -1.764604 0.322071 -1.062901 0
M  V30 END ATOM
M  V30 BEGIN BOND
M  V30 1 1 1 2
M  V30 2 2 2 3
M  V30 3 1 3 4
M  V30 4 2 4 5
M  V30 5 1 5 6
M  V30 6 2 6 7
M  V30 7 1 7 8
M  V30 8 1 8 9
M  V30 9 1 9 10
M  V30 10 2 10 11
M  V30 11 1 11 12
M  V30 12 2 12 13
M  V30 13 1 13 14
M  V30 14 1 13 15
M  V30 15 1 15 16
M  V30 16 2 16 17
M  V30 17 1 17 18
M  V30 18 2 18 19
M  V30 19 1 19 20
M  V30 20 1 20 21
M  V30 21 1 21 22
M  V30 22 1 22 23
M  V30 23 1 23 24
M  V30 24 1 24 25
M  V30 25 1 25 26
M  V30 26 1 26 27
M  V30 27 1 27 28
M  V30 28 2 22 29
M  V30 29 1 29 30
M  V30 30 2 15 31
M  V30 31 1 7 2
M  V30 32 1 31 10
M  V30 33 1 30 16
M  V30 34 2 30 20
M  V30 35 1 28 23
M  V30 36 1 3 32
M  V30 37 1 4 33
M  V30 38 1 5 34
M  V30 39 1 6 35
M  V30 40 1 8 36
M  V30 41 1 8 37
M  V30 42 1 9 38
M  V30 43 1 11 39
M  V30 44 1 12 40
M  V30 45 1 17 41
M  V30 46 1 18 42
M  V30 47 1 21 43
M  V30 48 1 23 44
M  V30 49 1 24 45
M  V30 50 1 24 46
M  V30 51 1 25 47
M  V30 52 1 25 48
M  V30 53 1 26 49
M  V30 54 1 27 50
M  V30 55 1 27 51
M  V30 56 1 28 52
M  V30 57 1 28 53
M  V30 58 1 29 54
M  V30 END BOND
M  V30 END CTAB
M  END
>  <Dataset>  (227) 
ChEMBL_Kinases

>  <Ligand_Instance>  (227) 
nan

>  <PDB_ID>  (227) 
nan

>  <Standardized_SMILES>  (227) 
Fc1ccccc1CNc1ccc(Cl)c(-c2ccnc3[nH]c(C4CCNCC4)cc23)n1

>  <Name>  (227) 
nan

>  <Pocket>  (227) 
nan

>  <ATP_Site>  (227) 
nan

>  <Peripheral>  (227) 
nan

>  <Num_H_Atoms_ProtBoundConf>  (227) 
nan

>  <Num_Resolved_Atoms>  (227) 
nan

>  <Num_Not_Resolved_Atoms>  (227) 
nan

$$$$
CHEMBL3663778
     RDKit          3D

  0  0  0  0  0  0  0  0  0  0999 V3000
M  V30 BEGIN CTAB
M  V30 COUNTS 53 57 0 0 0
M  V30 BEGIN ATOM
M  V30 1 F 4.178794 -2.324758 3.818279 0
M  V30 2 C 3.725229 -2.138639 2.531267 0
M  V30 3 C 2.744775 -3.077680 2.185689 0
M  V30 4 N 2.219987 -2.987755 0.953851 0
M  V30 5 C 2.598368 -2.051273 0.071927 0
M  V30 6 C 3.560176 -1.112026 0.379980 0
M  V30 7 C 4.049405 0.015460 -0.518409 0
M  V30 8 N 3.361542 1.214148 -0.187708 0
M  V30 9 C 2.284633 2.107459 0.047082 0
M  V30 10 C 1.952404 3.355186 -0.393629 0
M  V30 11 C 0.851542 3.956423 0.161779 0
M  V30 12 C 0.118621 3.327236 1.115517 0
M  V30 13 Cl -1.285469 4.001162 1.891456 0
M  V30 14 C 0.425340 2.086113 1.563082 0
M  V30 15 C -0.207209 1.117394 2.499903 0
M  V30 16 C -0.147212 1.038145 3.899873 0
M  V30 17 C -0.728766 -0.078102 4.434898 0
M  V30 18 N -1.328200 -1.058304 3.742723 0
M  V30 19 C -1.411325 -1.019389 2.403720 0
M  V30 20 N -1.977385 -1.789012 1.459257 0
M  V30 21 C -1.847238 -1.298424 0.224045 0
M  V30 22 C -2.306122 -1.660360 -1.136134 0
M  V30 23 C -3.799547 -1.359358 -1.193909 0
M  V30 24 C -4.543815 -2.345361 -0.370517 0
M  V30 25 N -4.110062 -3.719540 -0.522513 0
M  V30 26 C -3.259487 -3.932384 -1.655362 0
M  V30 27 C -2.015743 -3.036566 -1.606147 0
M  V30 28 C -1.130090 -0.127516 0.455202 0
M  V30 29 C -0.847913 0.068582 1.815862 0
M  V30 30 N 1.532353 1.483444 1.005517 0
M  V30 31 C 4.140246 -1.161872 1.650586 0
M  V30 32 H 2.396118 -3.849444 2.842348 0
M  V30 33 H 2.230331 -1.913268 -0.937877 0
M  V30 34 H 3.876389 -0.258451 -1.569637 0
M  V30 35 H 5.147334 0.110070 -0.324176 0
M  V30 36 H 4.094484 1.962946 0.059917 0
M  V30 37 H 2.629113 3.700776 -1.149109 0
M  V30 38 H 0.602390 4.929279 -0.196309 0
M  V30 39 H 0.357025 1.884015 4.296561 0
M  V30 40 H -0.637606 -0.075788 5.535372 0
M  V30 41 H -2.483263 -2.708050 1.632256 0
M  V30 42 H -1.887819 -0.933322 -1.915655 0
M  V30 43 H -3.906859 -0.360119 -0.681479 0
M  V30 44 H -4.149843 -1.298880 -2.225297 0
M  V30 45 H -5.629413 -2.330853 -0.697333 0
M  V30 46 H -4.527454 -2.038794 0.690305 0
M  V30 47 H -3.824481 -4.188520 0.343492 0
M  V30 48 H -3.821035 -3.720851 -2.587588 0
M  V30 49 H -2.891052 -4.955896 -1.654057 0
M  V30 50 H -1.710871 -2.974074 -2.709286 0
M  V30 51 H -1.170352 -3.553640 -1.141966 0
M  V30 52 H -0.815825 0.573905 -0.337051 0
M  V30 53 H 4.910917 -0.507457 2.067006 0
M  V30 END ATOM
M  V30 BEGIN BOND
M  V30 1 1 1 2
M  V30 2 2 2 3
M  V30 3 1 3 4
M  V30 4 2 4 5
M  V30 5 1 5 6
M  V30 6 1 6 7
M  V30 7 1 7 8
M  V30 8 1 8 9
M  V30 9 2 9 10
M  V30 10 1 10 11
M  V30 11 2 11 12
M  V30 12 1 12 13
M  V30 13 1 12 14
M  V30 14 1 14 15
M  V30 15 2 15 16
M  V30 16 1 16 17
M  V30 17 2 17 18
M  V30 18 1 18 19
M  V30 19 1 19 20
M  V30 20 1 20 21
M  V30 21 1 21 22
M  V30 22 1 22 23
M  V30 23 1 23 24
M  V30 24 1 24 25
M  V30 25 1 25 26
M  V30 26 1 26 27
M  V30 27 2 21 28
M  V30 28 1 28 29
M  V30 29 2 14 30
M  V30 30 2 6 31
M  V30 31 1 31 2
M  V30 32 1 30 9
M  V30 33 1 29 15
M  V30 34 2 29 19
M  V30 35 1 27 22
M  V30 36 1 3 32
M  V30 37 1 5 33
M  V30 38 1 7 34
M  V30 39 1 7 35
M  V30 40 1 8 36
M  V30 41 1 10 37
M  V30 42 1 11 38
M  V30 43 1 16 39
M  V30 44 1 17 40
M  V30 45 1 20 41
M  V30 46 1 22 42
M  V30 47 1 23 43
M  V30 48 1 23 44
M  V30 49 1 24 45
M  V30 50 1 24 46
M  V30 51 1 25 47
M  V30 52 1 26 48
M  V30 53 1 26 49
M  V30 54 1 27 50
M  V30 55 1 27 51
M  V30 56 1 28 52
M  V30 57 1 31 53
M  V30 END BOND
M  V30 END CTAB
M  END
>  <Dataset>  (228) 
ChEMBL_Kinases

>  <Ligand_Instance>  (228) 
nan

>  <PDB_ID>  (228) 
nan

>  <Standardized_SMILES>  (228) 
Fc1cncc(CNc2ccc(Cl)c(-c3ccnc4[nH]c(C5CCNCC5)cc34)n2)c1

>  <Name>  (228) 
nan

>  <Pocket>  (228) 
nan

>  <ATP_Site>  (228) 
nan

>  <Peripheral>  (228) 
nan

>  <Num_H_Atoms_ProtBoundConf>  (228) 
nan

>  <Num_Resolved_Atoms>  (228) 
nan

>  <Num_Not_Resolved_Atoms>  (228) 
nan

$$$$
CHEMBL3663777
     RDKit          3D

  0  0  0  0  0  0  0  0  0  0999 V3000
M  V30 BEGIN CTAB
M  V30 COUNTS 54 58 0 0 0
M  V30 BEGIN ATOM
M  V30 1 F 1.794401 -2.971310 -0.147310 0
M  V30 2 C 2.436518 -2.222341 0.806222 0
M  V30 3 C 2.550068 -2.554261 2.142671 0
M  V30 4 C 3.200445 -1.784348 3.053462 0
M  V30 5 C 3.770162 -0.602152 2.566407 0
M  V30 6 F 4.411588 0.104375 3.564444 0
M  V30 7 C 3.668354 -0.247287 1.226647 0
M  V30 8 C 4.380907 1.028331 1.041929 0
M  V30 9 N 3.567365 2.097747 1.619073 0
M  V30 10 C 2.278578 2.455351 1.137362 0
M  V30 11 C 1.744693 3.655942 1.585511 0
M  V30 12 C 0.512015 4.025225 1.031503 0
M  V30 13 C -0.150387 3.245641 0.092727 0
M  V30 14 Cl -1.669785 3.560387 -0.673240 0
M  V30 15 C 0.440461 2.061485 -0.304485 0
M  V30 16 C -0.029821 1.012165 -1.196480 0
M  V30 17 C 0.406403 1.226436 -2.488365 0
M  V30 18 C 0.141827 0.166255 -3.367681 0
M  V30 19 N -0.482694 -0.998049 -3.071443 0
M  V30 20 C -0.898764 -1.181226 -1.825628 0
M  V30 21 N -1.597148 -2.097623 -1.094867 0
M  V30 22 C -1.821696 -1.752626 0.183474 0
M  V30 23 C -2.575106 -2.374688 1.273696 0
M  V30 24 C -4.063261 -1.983928 1.179812 0
M  V30 25 C -4.892581 -2.962061 0.422653 0
M  V30 26 N -4.199514 -3.942940 -0.308696 0
M  V30 27 C -3.228689 -4.647977 0.434242 0
M  V30 28 C -2.468412 -3.829833 1.459119 0
M  V30 29 C -1.206821 -0.490523 0.306808 0
M  V30 30 C -0.665310 -0.179829 -0.923118 0
M  V30 31 N 1.634946 1.704837 0.231139 0
M  V30 32 C 3.006529 -1.046282 0.342172 0
M  V30 33 H 2.099450 -3.466738 2.456675 0
M  V30 34 H 3.249225 -2.098031 4.090730 0
M  V30 35 H 5.384422 0.975521 1.457585 0
M  V30 36 H 4.544354 1.251800 -0.065737 0
M  V30 37 H 4.011066 2.586854 2.425639 0
M  V30 38 H 2.187446 4.333701 2.318700 0
M  V30 39 H 0.001675 4.937599 1.309021 0
M  V30 40 H 0.923318 2.110810 -2.850767 0
M  V30 41 H 0.458154 0.262765 -4.416639 0
M  V30 42 H -1.917694 -3.004087 -1.510955 0
M  V30 43 H -2.260357 -1.887210 2.238287 0
M  V30 44 H -4.078409 -0.998573 0.633210 0
M  V30 45 H -4.496822 -1.791429 2.190023 0
M  V30 46 H -5.622333 -3.493342 1.117505 0
M  V30 47 H -5.554365 -2.363272 -0.271125 0
M  V30 48 H -4.152762 -3.905961 -1.312842 0
M  V30 49 H -3.749868 -5.506544 0.917650 0
M  V30 50 H -2.477513 -5.167532 -0.235771 0
M  V30 51 H -1.445413 -4.179974 1.631953 0
M  V30 52 H -3.016487 -4.047241 2.437943 0
M  V30 53 H -1.202642 0.096187 1.225800 0
M  V30 54 H 3.011242 -0.643649 -0.677945 0
M  V30 END ATOM
M  V30 BEGIN BOND
M  V30 1 1 1 2
M  V30 2 2 2 3
M  V30 3 1 3 4
M  V30 4 2 4 5
M  V30 5 1 5 6
M  V30 6 1 5 7
M  V30 7 1 7 8
M  V30 8 1 8 9
M  V30 9 1 9 10
M  V30 10 2 10 11
M  V30 11 1 11 12
M  V30 12 2 12 13
M  V30 13 1 13 14
M  V30 14 1 13 15
M  V30 15 1 15 16
M  V30 16 2 16 17
M  V30 17 1 17 18
M  V30 18 2 18 19
M  V30 19 1 19 20
M  V30 20 1 20 21
M  V30 21 1 21 22
M  V30 22 1 22 23
M  V30 23 1 23 24
M  V30 24 1 24 25
M  V30 25 1 25 26
M  V30 26 1 26 27
M  V30 27 1 27 28
M  V30 28 2 22 29
M  V30 29 1 29 30
M  V30 30 2 15 31
M  V30 31 2 7 32
M  V30 32 1 32 2
M  V30 33 1 31 10
M  V30 34 1 30 16
M  V30 35 2 30 20
M  V30 36 1 28 23
M  V30 37 1 3 33
M  V30 38 1 4 34
M  V30 39 1 8 35
M  V30 40 1 8 36
M  V30 41 1 9 37
M  V30 42 1 11 38
M  V30 43 1 12 39
M  V30 44 1 17 40
M  V30 45 1 18 41
M  V30 46 1 21 42
M  V30 47 1 23 43
M  V30 48 1 24 44
M  V30 49 1 24 45
M  V30 50 1 25 46
M  V30 51 1 25 47
M  V30 52 1 26 48
M  V30 53 1 27 49
M  V30 54 1 27 50
M  V30 55 1 28 51
M  V30 56 1 28 52
M  V30 57 1 29 53
M  V30 58 1 32 54
M  V30 END BOND
M  V30 END CTAB
M  END
>  <Dataset>  (229) 
ChEMBL_Kinases

>  <Ligand_Instance>  (229) 
nan

>  <PDB_ID>  (229) 
nan

>  <Standardized_SMILES>  (229) 
Fc1ccc(F)c(CNc2ccc(Cl)c(-c3ccnc4[nH]c(C5CCNCC5)cc34)n2)c1

>  <Name>  (229) 
nan

>  <Pocket>  (229) 
nan

>  <ATP_Site>  (229) 
nan

>  <Peripheral>  (229) 
nan

>  <Num_H_Atoms_ProtBoundConf>  (229) 
nan

>  <Num_Resolved_Atoms>  (229) 
nan

>  <Num_Not_Resolved_Atoms>  (229) 
nan

$$$$
CHEMBL3663758
     RDKit          3D

  0  0  0  0  0  0  0  0  0  0999 V3000
M  V30 BEGIN CTAB
M  V30 COUNTS 60 64 0 0 0
M  V30 BEGIN ATOM
M  V30 1 C 2.453511 -3.119021 3.465666 0
M  V30 2 O 2.425078 -1.699367 3.463030 0
M  V30 3 C 1.463583 -0.982625 2.774786 0
M  V30 4 O 0.750553 -1.883024 2.246147 0
M  V30 5 N 1.630378 0.446344 2.913068 0
M  V30 6 C 2.664740 1.116057 3.675368 0
M  V30 7 C 3.579396 1.803907 2.687186 0
M  V30 8 C 2.987718 1.859445 1.317251 0
M  V30 9 C 1.525562 2.306671 1.343623 0
M  V30 10 C 0.991043 2.188406 -0.034304 0
M  V30 11 C 0.406473 1.138532 -0.721180 0
M  V30 12 C 0.115079 1.567190 -2.010745 0
M  V30 13 C -0.452253 0.918028 -3.068940 0
M  V30 14 C -0.894892 -0.483795 -2.872752 0
M  V30 15 N -1.763003 -0.500058 -1.873706 0
M  V30 16 C -2.344385 -1.653447 -1.467897 0
M  V30 17 N -3.297925 -1.779540 -0.421299 0
M  V30 18 C -4.063422 -2.798576 0.240078 0
M  V30 19 C -3.227100 -3.780408 0.972999 0
M  V30 20 C -2.746364 -5.016100 0.613883 0
M  V30 21 C -1.962972 -5.753036 1.470165 0
M  V30 22 C -1.606203 -5.317829 2.731139 0
M  V30 23 C -2.083527 -4.074740 3.106263 0
M  V30 24 C -2.875473 -3.323503 2.246964 0
M  V30 25 C -1.976474 -2.790129 -2.152389 0
M  V30 26 C -1.070596 -2.797693 -3.199173 0
M  V30 27 C -0.506191 -1.600188 -3.576551 0
M  V30 28 Cl 0.645340 -1.322099 -4.841725 0
M  V30 29 C -0.632182 1.575627 -4.289254 0
M  V30 30 C -0.202728 2.884527 -4.321505 0
M  V30 31 N 0.363101 3.543742 -3.273349 0
M  V30 32 C 0.538122 2.896138 -2.080182 0
M  V30 33 N 1.065133 3.252703 -0.871569 0
M  V30 34 C 0.721036 1.410755 2.250097 0
M  V30 35 H 3.537906 -3.419423 3.546472 0
M  V30 36 H 2.133930 -3.525800 2.461432 0
M  V30 37 H 1.943038 -3.580654 4.309470 0
M  V30 38 H 2.139811 1.869100 4.317083 0
M  V30 39 H 3.219138 0.382027 4.294306 0
M  V30 40 H 3.885529 2.810367 3.059391 0
M  V30 41 H 4.532053 1.217533 2.668501 0
M  V30 42 H 3.538723 2.601094 0.711823 0
M  V30 43 H 3.113937 0.873277 0.860048 0
M  V30 44 H 1.556652 3.335681 1.734401 0
M  V30 45 H 0.237318 0.176635 -0.271191 0
M  V30 46 H -3.481327 -0.806143 -0.026648 0
M  V30 47 H -4.775498 -2.329446 0.929986 0
M  V30 48 H -4.729575 -3.343852 -0.502901 0
M  V30 49 H -3.050530 -5.321403 -0.358290 0
M  V30 50 H -1.635671 -6.712061 1.090311 0
M  V30 51 H -0.990843 -5.912063 3.384048 0
M  V30 52 H -1.809460 -3.720130 4.097155 0
M  V30 53 H -3.183301 -2.357196 2.676971 0
M  V30 54 H -2.333360 -3.792208 -1.976369 0
M  V30 55 H -0.744842 -3.655927 -3.769511 0
M  V30 56 H -1.075308 1.065532 -5.115175 0
M  V30 57 H -0.313658 3.448455 -5.235478 0
M  V30 58 H 1.443953 4.229605 -0.720025 0
M  V30 59 H -0.020914 0.873526 1.641893 0
M  V30 60 H 0.198816 2.015614 3.015971 0
M  V30 END ATOM
M  V30 BEGIN BOND
M  V30 1 1 1 2
M  V30 2 1 2 3
M  V30 3 2 3 4
M  V30 4 1 3 5
M  V30 5 1 5 6
M  V30 6 1 6 7
M  V30 7 1 7 8
M  V30 8 1 8 9
M  V30 9 1 9 10
M  V30 10 2 10 11
M  V30 11 1 11 12
M  V30 12 2 12 13
M  V30 13 1 13 14
M  V30 14 2 14 15
M  V30 15 1 15 16
M  V30 16 1 16 17
M  V30 17 1 17 18
M  V30 18 1 18 19
M  V30 19 2 19 20
M  V30 20 1 20 21
M  V30 21 2 21 22
M  V30 22 1 22 23
M  V30 23 2 23 24
M  V30 24 2 16 25
M  V30 25 1 25 26
M  V30 26 2 26 27
M  V30 27 1 27 28
M  V30 28 1 13 29
M  V30 29 2 29 30
M  V30 30 1 30 31
M  V30 31 2 31 32
M  V30 32 1 32 33
M  V30 33 1 9 34
M  V30 34 1 34 5
M  V30 35 1 33 10
M  V30 36 1 32 12
M  V30 37 1 27 14
M  V30 38 1 24 19
M  V30 39 1 1 35
M  V30 40 1 1 36
M  V30 41 1 1 37
M  V30 42 1 6 38
M  V30 43 1 6 39
M  V30 44 1 7 40
M  V30 45 1 7 41
M  V30 46 1 8 42
M  V30 47 1 8 43
M  V30 48 1 9 44
M  V30 49 1 11 45
M  V30 50 1 17 46
M  V30 51 1 18 47
M  V30 52 1 18 48
M  V30 53 1 20 49
M  V30 54 1 21 50
M  V30 55 1 22 51
M  V30 56 1 23 52
M  V30 57 1 24 53
M  V30 58 1 25 54
M  V30 59 1 26 55
M  V30 60 1 29 56
M  V30 61 1 30 57
M  V30 62 1 33 58
M  V30 63 1 34 59
M  V30 64 1 34 60
M  V30 END BOND
M  V30 END CTAB
M  END
>  <Dataset>  (230) 
ChEMBL_Kinases

>  <Ligand_Instance>  (230) 
nan

>  <PDB_ID>  (230) 
nan

>  <Standardized_SMILES>  (230) 
COC(=O)N1CCCC(c2cc3c(-c4nc(NCc5ccccc5)ccc4Cl)ccnc3[nH]2)C1

>  <Name>  (230) 
nan

>  <Pocket>  (230) 
nan

>  <ATP_Site>  (230) 
nan

>  <Peripheral>  (230) 
nan

>  <Num_H_Atoms_ProtBoundConf>  (230) 
nan

>  <Num_Resolved_Atoms>  (230) 
nan

>  <Num_Not_Resolved_Atoms>  (230) 
nan

$$$$
CHEMBL3663759
     RDKit          3D

  0  0  0  0  0  0  0  0  0  0999 V3000
M  V30 BEGIN CTAB
M  V30 COUNTS 44 47 0 0 0
M  V30 BEGIN ATOM
M  V30 1 C 0.996962 -4.691598 -0.778045 0
M  V30 2 O 0.808559 -3.324935 -1.085100 0
M  V30 3 C 1.878675 -2.565753 -1.542566 0
M  V30 4 C 3.145264 -3.081059 -1.718779 0
M  V30 5 C 4.192505 -2.306053 -2.174755 0
M  V30 6 C 3.953518 -0.960576 -2.463974 0
M  V30 7 F 4.999019 -0.194529 -2.917181 0
M  V30 8 C 2.693209 -0.380454 -2.306040 0
M  V30 9 C 1.672831 -1.213544 -1.841617 0
M  V30 10 C 0.308502 -0.685264 -1.644909 0
M  V30 11 C -0.635380 -0.710466 -2.656086 0
M  V30 12 C -1.872600 -0.190806 -2.358640 0
M  V30 13 N -2.217422 0.327775 -1.178294 0
M  V30 14 C -1.325554 0.369061 -0.171512 0
M  V30 15 N -1.320977 0.801623 1.103147 0
M  V30 16 C -0.159816 0.618891 1.719759 0
M  V30 17 C 0.212689 0.967961 3.120500 0
M  V30 18 C -0.486662 0.057509 4.105512 0
M  V30 19 C -1.912202 0.431562 4.349465 0
M  V30 20 N -2.169111 1.834712 4.477492 0
M  V30 21 C -0.914840 2.502125 4.757779 0
M  V30 22 C -0.077919 2.379109 3.496172 0
M  V30 23 C 0.627492 0.017000 0.734008 0
M  V30 24 C -0.083813 -0.141505 -0.437783 0
M  V30 25 H 1.556845 -4.845969 0.154950 0
M  V30 26 H 0.048820 -5.242048 -0.708915 0
M  V30 27 H 1.586402 -5.159618 -1.609298 0
M  V30 28 H 3.341518 -4.122756 -1.497604 0
M  V30 29 H 5.185070 -2.734548 -2.306480 0
M  V30 30 H 2.509381 0.657133 -2.529167 0
M  V30 31 H -0.385662 -1.125618 -3.627151 0
M  V30 32 H -2.640711 -0.193350 -3.128702 0
M  V30 33 H -2.187302 1.222403 1.473830 0
M  V30 34 H 1.298380 0.709930 3.207340 0
M  V30 35 H 0.103092 -0.057533 5.037488 0
M  V30 36 H -0.495869 -0.964032 3.633993 0
M  V30 37 H -2.242437 -0.149941 5.241799 0
M  V30 38 H -2.524149 0.011777 3.504590 0
M  V30 39 H -2.562001 2.252495 3.605950 0
M  V30 40 H -0.404339 2.048890 5.631556 0
M  V30 41 H -1.032253 3.581954 4.941554 0
M  V30 42 H -0.627135 2.954769 2.723966 0
M  V30 43 H 0.890015 2.913959 3.672923 0
M  V30 44 H 1.667292 -0.289502 0.866415 0
M  V30 END ATOM
M  V30 BEGIN BOND
M  V30 1 1 1 2
M  V30 2 1 2 3
M  V30 3 2 3 4
M  V30 4 1 4 5
M  V30 5 2 5 6
M  V30 6 1 6 7
M  V30 7 1 6 8
M  V30 8 2 8 9
M  V30 9 1 9 10
M  V30 10 2 10 11
M  V30 11 1 11 12
M  V30 12 2 12 13
M  V30 13 1 13 14
M  V30 14 1 14 15
M  V30 15 1 15 16
M  V30 16 1 16 17
M  V30 17 1 17 18
M  V30 18 1 18 19
M  V30 19 1 19 20
M  V30 20 1 20 21
M  V30 21 1 21 22
M  V30 22 2 16 23
M  V30 23 1 23 24
M  V30 24 1 9 3
M  V30 25 1 24 10
M  V30 26 2 24 14
M  V30 27 1 22 17
M  V30 28 1 1 25
M  V30 29 1 1 26
M  V30 30 1 1 27
M  V30 31 1 4 28
M  V30 32 1 5 29
M  V30 33 1 8 30
M  V30 34 1 11 31
M  V30 35 1 12 32
M  V30 36 1 15 33
M  V30 37 1 17 34
M  V30 38 1 18 35
M  V30 39 1 18 36
M  V30 40 1 19 37
M  V30 41 1 19 38
M  V30 42 1 20 39
M  V30 43 1 21 40
M  V30 44 1 21 41
M  V30 45 1 22 42
M  V30 46 1 22 43
M  V30 47 1 23 44
M  V30 END BOND
M  V30 END CTAB
M  END
>  <Dataset>  (231) 
ChEMBL_Kinases

>  <Ligand_Instance>  (231) 
nan

>  <PDB_ID>  (231) 
nan

>  <Standardized_SMILES>  (231) 
COc1ccc(F)cc1-c1ccnc2[nH]c(C3CCNCC3)cc12

>  <Name>  (231) 
nan

>  <Pocket>  (231) 
nan

>  <ATP_Site>  (231) 
nan

>  <Peripheral>  (231) 
nan

>  <Num_H_Atoms_ProtBoundConf>  (231) 
nan

>  <Num_Resolved_Atoms>  (231) 
nan

>  <Num_Not_Resolved_Atoms>  (231) 
nan

$$$$
CHEMBL3663761
     RDKit          3D

  0  0  0  0  0  0  0  0  0  0999 V3000
M  V30 BEGIN CTAB
M  V30 COUNTS 44 47 0 0 0
M  V30 BEGIN ATOM
M  V30 1 C 0.296287 -4.687421 -0.747410 0
M  V30 2 O 0.256693 -3.294143 -1.068404 0
M  V30 3 C 1.384156 -2.684741 -1.604612 0
M  V30 4 C 2.553626 -3.409223 -1.834923 0
M  V30 5 C 3.705537 -2.850889 -2.367316 0
M  V30 6 Cl 5.143050 -3.813537 -2.633098 0
M  V30 7 C 3.638351 -1.511238 -2.665893 0
M  V30 8 C 2.525235 -0.730288 -2.468631 0
M  V30 9 C 1.394120 -1.324316 -1.934853 0
M  V30 10 C 0.126833 -0.619798 -1.665907 0
M  V30 11 C -0.864513 -0.544630 -2.636763 0
M  V30 12 C -2.021911 0.146841 -2.271854 0
M  V30 13 N -2.203664 0.723084 -1.053857 0
M  V30 14 C -1.239966 0.652334 -0.104326 0
M  V30 15 N -1.112216 1.100773 1.157669 0
M  V30 16 C 0.046443 0.777909 1.709611 0
M  V30 17 C 0.602744 1.053653 3.057621 0
M  V30 18 C -0.019404 0.153088 4.101035 0
M  V30 19 C -1.448411 0.557428 4.302319 0
M  V30 20 N -1.669995 1.970346 4.337543 0
M  V30 21 C -0.427935 2.657797 4.697359 0
M  V30 22 C 0.503651 2.467399 3.500997 0
M  V30 23 C 0.688906 0.066357 0.693461 0
M  V30 24 C -0.093175 -0.022299 -0.439828 0
M  V30 25 H 0.933243 -4.824426 0.164760 0
M  V30 26 H -0.703888 -5.054057 -0.496693 0
M  V30 27 H 0.723537 -5.300491 -1.545002 0
M  V30 28 H 2.584003 -4.462175 -1.592489 0
M  V30 29 H 4.534323 -1.047955 -3.086961 0
M  V30 30 H 2.457577 0.318365 -2.697140 0
M  V30 31 H -0.736653 -0.990450 -3.593976 0
M  V30 32 H -2.768082 0.179687 -3.061474 0
M  V30 33 H -1.878000 1.634465 1.578030 0
M  V30 34 H 1.692290 0.747369 3.051334 0
M  V30 35 H 0.565585 0.126126 5.034791 0
M  V30 36 H -0.054281 -0.903325 3.700898 0
M  V30 37 H -1.913619 0.036922 5.176101 0
M  V30 38 H -2.028919 0.146825 3.425067 0
M  V30 39 H -2.446925 2.222419 4.976342 0
M  V30 40 H -0.011181 2.269674 5.632486 0
M  V30 41 H -0.613770 3.744860 4.808898 0
M  V30 42 H 0.106054 3.156613 2.728056 0
M  V30 43 H 1.495198 2.858147 3.812153 0
M  V30 44 H 1.696952 -0.363896 0.802465 0
M  V30 END ATOM
M  V30 BEGIN BOND
M  V30 1 1 1 2
M  V30 2 1 2 3
M  V30 3 2 3 4
M  V30 4 1 4 5
M  V30 5 1 5 6
M  V30 6 2 5 7
M  V30 7 1 7 8
M  V30 8 2 8 9
M  V30 9 1 9 10
M  V30 10 2 10 11
M  V30 11 1 11 12
M  V30 12 2 12 13
M  V30 13 1 13 14
M  V30 14 1 14 15
M  V30 15 1 15 16
M  V30 16 1 16 17
M  V30 17 1 17 18
M  V30 18 1 18 19
M  V30 19 1 19 20
M  V30 20 1 20 21
M  V30 21 1 21 22
M  V30 22 2 16 23
M  V30 23 1 23 24
M  V30 24 1 9 3
M  V30 25 1 24 10
M  V30 26 2 24 14
M  V30 27 1 22 17
M  V30 28 1 1 25
M  V30 29 1 1 26
M  V30 30 1 1 27
M  V30 31 1 4 28
M  V30 32 1 7 29
M  V30 33 1 8 30
M  V30 34 1 11 31
M  V30 35 1 12 32
M  V30 36 1 15 33
M  V30 37 1 17 34
M  V30 38 1 18 35
M  V30 39 1 18 36
M  V30 40 1 19 37
M  V30 41 1 19 38
M  V30 42 1 20 39
M  V30 43 1 21 40
M  V30 44 1 21 41
M  V30 45 1 22 42
M  V30 46 1 22 43
M  V30 47 1 23 44
M  V30 END BOND
M  V30 END CTAB
M  END
>  <Dataset>  (232) 
ChEMBL_Kinases

>  <Ligand_Instance>  (232) 
nan

>  <PDB_ID>  (232) 
nan

>  <Standardized_SMILES>  (232) 
COc1cc(Cl)ccc1-c1ccnc2[nH]c(C3CCNCC3)cc12

>  <Name>  (232) 
nan

>  <Pocket>  (232) 
nan

>  <ATP_Site>  (232) 
nan

>  <Peripheral>  (232) 
nan

>  <Num_H_Atoms_ProtBoundConf>  (232) 
nan

>  <Num_Resolved_Atoms>  (232) 
nan

>  <Num_Not_Resolved_Atoms>  (232) 
nan

$$$$
CHEMBL3663762
     RDKit          3D

  0  0  0  0  0  0  0  0  0  0999 V3000
M  V30 BEGIN CTAB
M  V30 COUNTS 43 46 0 0 0
M  V30 BEGIN ATOM
M  V30 1 C -1.580719 -4.946215 1.801445 0
M  V30 2 O -1.308166 -3.813258 0.990183 0
M  V30 3 C -0.107687 -3.696429 0.353416 0
M  V30 4 C 0.931757 -4.596206 0.399064 0
M  V30 5 C 2.155605 -4.476921 -0.251291 0
M  V30 6 C 2.263346 -3.320274 -0.992254 0
M  V30 7 N 1.283460 -2.392896 -1.083251 0
M  V30 8 C 0.102134 -2.572432 -0.417336 0
M  V30 9 C -0.812951 -1.472852 -0.635242 0
M  V30 10 C -2.026580 -1.777296 -1.286742 0
M  V30 11 C -2.885606 -0.716336 -1.541563 0
M  V30 12 N -2.646570 0.565644 -1.214996 0
M  V30 13 C -1.505415 0.934059 -0.587426 0
M  V30 14 N -0.901421 2.043813 -0.094761 0
M  V30 15 C 0.282230 1.730818 0.454786 0
M  V30 16 C 1.156650 2.773016 1.075969 0
M  V30 17 C 2.584891 2.384621 1.170657 0
M  V30 18 C 2.888899 1.457362 2.321986 0
M  V30 19 N 1.790225 1.120751 3.150326 0
M  V30 20 C 0.880761 2.153654 3.497278 0
M  V30 21 C 0.574589 3.156633 2.439891 0
M  V30 22 C 0.425363 0.370910 0.298242 0
M  V30 23 C -0.697225 -0.137218 -0.359227 0
M  V30 24 H -2.520034 -4.749164 2.397595 0
M  V30 25 H -0.718301 -5.164720 2.488017 0
M  V30 26 H -1.700920 -5.811930 1.115619 0
M  V30 27 H 0.795978 -5.497818 1.000192 0
M  V30 28 H 2.930632 -5.222234 -0.176046 0
M  V30 29 H 3.189194 -3.142918 -1.540945 0
M  V30 30 H -2.264872 -2.791718 -1.566784 0
M  V30 31 H -3.821279 -0.997234 -2.052675 0
M  V30 32 H -1.364421 2.979099 -0.175698 0
M  V30 33 H 1.050603 3.687508 0.473996 0
M  V30 34 H 3.250776 3.296851 1.220586 0
M  V30 35 H 2.887606 1.877840 0.231997 0
M  V30 36 H 3.450657 0.567958 1.979848 0
M  V30 37 H 3.632464 1.991332 2.982526 0
M  V30 38 H 1.407394 0.163682 3.067005 0
M  V30 39 H 1.259636 2.660916 4.423003 0
M  V30 40 H -0.076027 1.665685 3.795888 0
M  V30 41 H -0.515662 3.271660 2.269191 0
M  V30 42 H 0.916660 4.152172 2.782524 0
M  V30 43 H 1.337313 -0.089298 0.683798 0
M  V30 END ATOM
M  V30 BEGIN BOND
M  V30 1 1 1 2
M  V30 2 1 2 3
M  V30 3 2 3 4
M  V30 4 1 4 5
M  V30 5 2 5 6
M  V30 6 1 6 7
M  V30 7 2 7 8
M  V30 8 1 8 9
M  V30 9 2 9 10
M  V30 10 1 10 11
M  V30 11 2 11 12
M  V30 12 1 12 13
M  V30 13 1 13 14
M  V30 14 1 14 15
M  V30 15 1 15 16
M  V30 16 1 16 17
M  V30 17 1 17 18
M  V30 18 1 18 19
M  V30 19 1 19 20
M  V30 20 1 20 21
M  V30 21 2 15 22
M  V30 22 1 22 23
M  V30 23 1 8 3
M  V30 24 1 23 9
M  V30 25 2 23 13
M  V30 26 1 21 16
M  V30 27 1 1 24
M  V30 28 1 1 25
M  V30 29 1 1 26
M  V30 30 1 4 27
M  V30 31 1 5 28
M  V30 32 1 6 29
M  V30 33 1 10 30
M  V30 34 1 11 31
M  V30 35 1 14 32
M  V30 36 1 16 33
M  V30 37 1 17 34
M  V30 38 1 17 35
M  V30 39 1 18 36
M  V30 40 1 18 37
M  V30 41 1 19 38
M  V30 42 1 20 39
M  V30 43 1 20 40
M  V30 44 1 21 41
M  V30 45 1 21 42
M  V30 46 1 22 43
M  V30 END BOND
M  V30 END CTAB
M  END
>  <Dataset>  (233) 
ChEMBL_Kinases

>  <Ligand_Instance>  (233) 
nan

>  <PDB_ID>  (233) 
nan

>  <Standardized_SMILES>  (233) 
COc1cccnc1-c1ccnc2[nH]c(C3CCNCC3)cc12

>  <Name>  (233) 
nan

>  <Pocket>  (233) 
nan

>  <ATP_Site>  (233) 
nan

>  <Peripheral>  (233) 
nan

>  <Num_H_Atoms_ProtBoundConf>  (233) 
nan

>  <Num_Resolved_Atoms>  (233) 
nan

>  <Num_Not_Resolved_Atoms>  (233) 
nan

$$$$
CHEMBL3663763
     RDKit          3D

  0  0  0  0  0  0  0  0  0  0999 V3000
M  V30 BEGIN CTAB
M  V30 COUNTS 45 48 0 0 0
M  V30 BEGIN ATOM
M  V30 1 C -1.636534 -4.009228 -1.600573 0
M  V30 2 O -0.825739 -2.838303 -1.492945 0
M  V30 3 C 0.503989 -2.888139 -1.120965 0
M  V30 4 C 1.290567 -3.972659 -0.821313 0
M  V30 5 C 2.615668 -3.840403 -0.467524 0
M  V30 6 C 3.076094 -2.539154 -0.440314 0
M  V30 7 N 4.440496 -2.345234 -0.085877 0
M  V30 8 N 2.311496 -1.469579 -0.732327 0
M  V30 9 C 1.015810 -1.579090 -1.080139 0
M  V30 10 C 0.379373 -0.289778 -1.330101 0
M  V30 11 C 0.013643 0.002166 -2.620760 0
M  V30 12 C -0.522576 1.237427 -2.866419 0
M  V30 13 N -0.704432 2.170724 -1.895669 0
M  V30 14 C -0.360883 1.927751 -0.605292 0
M  V30 15 N -0.404854 2.554332 0.596817 0
M  V30 16 C 0.064275 1.793771 1.582319 0
M  V30 17 C 0.197133 2.085420 3.011877 0
M  V30 18 C 0.855896 0.968931 3.783419 0
M  V30 19 C -0.118961 0.018265 4.403396 0
M  V30 20 N -1.347749 -0.169973 3.729291 0
M  V30 21 C -1.980582 0.998349 3.199134 0
M  V30 22 C -1.204447 2.210651 3.649183 0
M  V30 23 C 0.443622 0.598173 0.998217 0
M  V30 24 C 0.176311 0.696228 -0.352920 0
M  V30 25 H -2.107446 -4.169992 -0.574779 0
M  V30 26 H -2.456125 -3.900712 -2.320046 0
M  V30 27 H -1.072568 -4.926840 -1.859640 0
M  V30 28 H 0.763234 -4.923512 -0.897212 0
M  V30 29 H 3.198859 -4.720122 -0.244559 0
M  V30 30 H 5.192342 -2.166900 0.589677 0
M  V30 31 H 4.891531 -2.431730 -1.007486 0
M  V30 32 H 0.156519 -0.728151 -3.397954 0
M  V30 33 H -0.814007 1.487851 -3.872034 0
M  V30 34 H -0.788036 3.533419 0.676469 0
M  V30 35 H 0.640627 3.083744 3.146460 0
M  V30 36 H 1.620003 0.409824 3.233145 0
M  V30 37 H 1.417072 1.450299 4.634059 0
M  V30 38 H -0.270247 0.261615 5.489762 0
M  V30 39 H 0.375841 -1.000418 4.445137 0
M  V30 40 H -1.410053 -1.013536 3.149392 0
M  V30 41 H -3.068258 1.076170 3.411931 0
M  V30 42 H -1.923698 0.924686 2.070705 0
M  V30 43 H -1.003730 2.161104 4.746628 0
M  V30 44 H -1.664748 3.168221 3.374167 0
M  V30 45 H 0.874106 -0.268671 1.485807 0
M  V30 END ATOM
M  V30 BEGIN BOND
M  V30 1 1 1 2
M  V30 2 1 2 3
M  V30 3 2 3 4
M  V30 4 1 4 5
M  V30 5 2 5 6
M  V30 6 1 6 7
M  V30 7 1 6 8
M  V30 8 2 8 9
M  V30 9 1 9 10
M  V30 10 2 10 11
M  V30 11 1 11 12
M  V30 12 2 12 13
M  V30 13 1 13 14
M  V30 14 1 14 15
M  V30 15 1 15 16
M  V30 16 1 16 17
M  V30 17 1 17 18
M  V30 18 1 18 19
M  V30 19 1 19 20
M  V30 20 1 20 21
M  V30 21 1 21 22
M  V30 22 2 16 23
M  V30 23 1 23 24
M  V30 24 1 9 3
M  V30 25 1 24 10
M  V30 26 2 24 14
M  V30 27 1 22 17
M  V30 28 1 1 25
M  V30 29 1 1 26
M  V30 30 1 1 27
M  V30 31 1 4 28
M  V30 32 1 5 29
M  V30 33 1 7 30
M  V30 34 1 7 31
M  V30 35 1 11 32
M  V30 36 1 12 33
M  V30 37 1 15 34
M  V30 38 1 17 35
M  V30 39 1 18 36
M  V30 40 1 18 37
M  V30 41 1 19 38
M  V30 42 1 19 39
M  V30 43 1 20 40
M  V30 44 1 21 41
M  V30 45 1 21 42
M  V30 46 1 22 43
M  V30 47 1 22 44
M  V30 48 1 23 45
M  V30 END BOND
M  V30 END CTAB
M  END
>  <Dataset>  (234) 
ChEMBL_Kinases

>  <Ligand_Instance>  (234) 
nan

>  <PDB_ID>  (234) 
nan

>  <Standardized_SMILES>  (234) 
COc1ccc(N)nc1-c1ccnc2[nH]c(C3CCNCC3)cc12

>  <Name>  (234) 
nan

>  <Pocket>  (234) 
nan

>  <ATP_Site>  (234) 
nan

>  <Peripheral>  (234) 
nan

>  <Num_H_Atoms_ProtBoundConf>  (234) 
nan

>  <Num_Resolved_Atoms>  (234) 
nan

>  <Num_Not_Resolved_Atoms>  (234) 
nan

$$$$
CHEMBL3663764
     RDKit          3D

  0  0  0  0  0  0  0  0  0  0999 V3000
M  V30 BEGIN CTAB
M  V30 COUNTS 44 47 0 0 0
M  V30 BEGIN ATOM
M  V30 1 C -2.377224 -3.637610 -1.199610 0
M  V30 2 O -1.566879 -2.525454 -1.438361 0
M  V30 3 C -0.313511 -2.596800 -2.001966 0
M  V30 4 C 0.414686 -3.677922 -2.442188 0
M  V30 5 C 1.664346 -3.515761 -2.978822 0
M  V30 6 F 2.258881 -4.674067 -3.368128 0
M  V30 7 C 2.229198 -2.256270 -3.092719 0
M  V30 8 F 3.472807 -2.175763 -3.635516 0
M  V30 9 C 1.520180 -1.137347 -2.656902 0
M  V30 10 C 0.259195 -1.328130 -2.118350 0
M  V30 11 C -0.362091 -0.060987 -1.705374 0
M  V30 12 C -1.137869 0.660369 -2.590017 0
M  V30 13 C -1.672809 1.835164 -2.098177 0
M  V30 14 N -1.459299 2.260416 -0.840031 0
M  V30 15 C -0.693586 1.555193 0.044158 0
M  V30 16 N -0.332261 1.757320 1.331514 0
M  V30 17 C 0.452688 0.731029 1.744479 0
M  V30 18 C 1.083943 0.516234 3.069792 0
M  V30 19 C 0.014673 0.337984 4.138017 0
M  V30 20 C 0.630976 0.075426 5.466723 0
M  V30 21 N 1.736214 0.910067 5.820989 0
M  V30 22 C 2.666285 1.181027 4.770648 0
M  V30 23 C 2.009789 1.638306 3.479481 0
M  V30 24 C 0.581049 -0.144682 0.660523 0
M  V30 25 C -0.142462 0.374794 -0.413868 0
M  V30 26 H -3.151279 -3.674042 -1.994180 0
M  V30 27 H -1.816935 -4.591337 -1.188648 0
M  V30 28 H -2.874703 -3.555930 -0.203732 0
M  V30 29 H -0.112578 -4.610798 -2.309527 0
M  V30 30 H 2.013870 -0.199645 -2.774128 0
M  V30 31 H -1.280867 0.277890 -3.591514 0
M  V30 32 H -2.285583 2.418383 -2.775084 0
M  V30 33 H -0.605447 2.563984 1.918947 0
M  V30 34 H 1.666815 -0.426710 3.081635 0
M  V30 35 H -0.721764 1.172796 4.117649 0
M  V30 36 H -0.549923 -0.569709 3.830854 0
M  V30 37 H 0.886006 -1.005458 5.518550 0
M  V30 38 H -0.153169 0.225431 6.250259 0
M  V30 39 H 1.514365 1.714168 6.438131 0
M  V30 40 H 3.234049 0.260881 4.547944 0
M  V30 41 H 3.324517 2.012154 5.102745 0
M  V30 42 H 1.458527 2.573581 3.623486 0
M  V30 43 H 2.777046 1.712308 2.707078 0
M  V30 44 H 1.138021 -1.071299 0.630828 0
M  V30 END ATOM
M  V30 BEGIN BOND
M  V30 1 1 1 2
M  V30 2 1 2 3
M  V30 3 2 3 4
M  V30 4 1 4 5
M  V30 5 1 5 6
M  V30 6 2 5 7
M  V30 7 1 7 8
M  V30 8 1 7 9
M  V30 9 2 9 10
M  V30 10 1 10 11
M  V30 11 2 11 12
M  V30 12 1 12 13
M  V30 13 2 13 14
M  V30 14 1 14 15
M  V30 15 1 15 16
M  V30 16 1 16 17
M  V30 17 1 17 18
M  V30 18 1 18 19
M  V30 19 1 19 20
M  V30 20 1 20 21
M  V30 21 1 21 22
M  V30 22 1 22 23
M  V30 23 2 17 24
M  V30 24 1 24 25
M  V30 25 1 10 3
M  V30 26 1 25 11
M  V30 27 2 25 15
M  V30 28 1 23 18
M  V30 29 1 1 26
M  V30 30 1 1 27
M  V30 31 1 1 28
M  V30 32 1 4 29
M  V30 33 1 9 30
M  V30 34 1 12 31
M  V30 35 1 13 32
M  V30 36 1 16 33
M  V30 37 1 18 34
M  V30 38 1 19 35
M  V30 39 1 19 36
M  V30 40 1 20 37
M  V30 41 1 20 38
M  V30 42 1 21 39
M  V30 43 1 22 40
M  V30 44 1 22 41
M  V30 45 1 23 42
M  V30 46 1 23 43
M  V30 47 1 24 44
M  V30 END BOND
M  V30 END CTAB
M  END
>  <Dataset>  (235) 
ChEMBL_Kinases

>  <Ligand_Instance>  (235) 
nan

>  <PDB_ID>  (235) 
nan

>  <Standardized_SMILES>  (235) 
COc1cc(F)c(F)cc1-c1ccnc2[nH]c(C3CCNCC3)cc12

>  <Name>  (235) 
nan

>  <Pocket>  (235) 
nan

>  <ATP_Site>  (235) 
nan

>  <Peripheral>  (235) 
nan

>  <Num_H_Atoms_ProtBoundConf>  (235) 
nan

>  <Num_Resolved_Atoms>  (235) 
nan

>  <Num_Not_Resolved_Atoms>  (235) 
nan

$$$$
CHEMBL3663765
     RDKit          3D

  0  0  0  0  0  0  0  0  0  0999 V3000
M  V30 BEGIN CTAB
M  V30 COUNTS 44 47 0 0 0
M  V30 BEGIN ATOM
M  V30 1 C -0.792330 -4.290726 -1.044854 0
M  V30 2 O -0.278455 -3.009494 -1.294236 0
M  V30 3 C 1.104233 -2.762722 -1.196055 0
M  V30 4 C 1.948562 -3.797164 -0.851293 0
M  V30 5 C 3.294222 -3.613701 -0.742117 0
M  V30 6 C 3.847880 -2.373224 -0.977167 0
M  V30 7 Cl 5.577578 -2.099364 -0.845978 0
M  V30 8 C 3.024253 -1.310938 -1.326262 0
M  V30 9 C 1.661005 -1.501247 -1.435796 0
M  V30 10 C 0.672708 -0.485522 -1.792457 0
M  V30 11 C 0.301723 -0.244591 -3.111087 0
M  V30 12 C -0.640178 0.733671 -3.364471 0
M  V30 13 N -1.184821 1.436434 -2.353623 0
M  V30 14 C -0.826419 1.205796 -1.061809 0
M  V30 15 N -1.221272 1.766049 0.099546 0
M  V30 16 C -0.557669 1.177137 1.124835 0
M  V30 17 C -0.625837 1.425234 2.603021 0
M  V30 18 C -1.031067 0.185614 3.373263 0
M  V30 19 C -1.287154 0.598419 4.786165 0
M  V30 20 N -0.787379 1.916082 5.081659 0
M  V30 21 C 0.532388 2.191418 4.591865 0
M  V30 22 C 0.719516 1.853772 3.142548 0
M  V30 23 C 0.293714 0.207845 0.635967 0
M  V30 24 C 0.106640 0.243788 -0.751114 0
M  V30 25 H -0.538873 -4.584594 -0.004280 0
M  V30 26 H -1.875688 -4.281035 -1.209117 0
M  V30 27 H -0.265331 -5.021809 -1.711565 0
M  V30 28 H 1.542388 -4.799038 -0.656788 0
M  V30 29 H 3.910633 -4.444490 -0.472252 0
M  V30 30 H 3.383012 -0.311696 -1.525538 0
M  V30 31 H 0.810203 -0.873987 -3.829374 0
M  V30 32 H -0.870121 0.855491 -4.413997 0
M  V30 33 H -1.910118 2.520041 0.239686 0
M  V30 34 H -1.345616 2.226274 2.859905 0
M  V30 35 H -0.137668 -0.504166 3.411102 0
M  V30 36 H -1.869151 -0.347116 2.894469 0
M  V30 37 H -0.932566 -0.177528 5.506092 0
M  V30 38 H -2.404408 0.643904 4.917997 0
M  V30 39 H -1.477778 2.658073 4.890454 0
M  V30 40 H 0.645783 3.309717 4.651633 0
M  V30 41 H 1.325503 1.783255 5.259429 0
M  V30 42 H 1.426919 1.001461 3.063507 0
M  V30 43 H 1.152282 2.683607 2.543996 0
M  V30 44 H 0.976640 -0.459748 1.171680 0
M  V30 END ATOM
M  V30 BEGIN BOND
M  V30 1 1 1 2
M  V30 2 1 2 3
M  V30 3 2 3 4
M  V30 4 1 4 5
M  V30 5 2 5 6
M  V30 6 1 6 7
M  V30 7 1 6 8
M  V30 8 2 8 9
M  V30 9 1 9 10
M  V30 10 2 10 11
M  V30 11 1 11 12
M  V30 12 2 12 13
M  V30 13 1 13 14
M  V30 14 1 14 15
M  V30 15 1 15 16
M  V30 16 1 16 17
M  V30 17 1 17 18
M  V30 18 1 18 19
M  V30 19 1 19 20
M  V30 20 1 20 21
M  V30 21 1 21 22
M  V30 22 2 16 23
M  V30 23 1 23 24
M  V30 24 1 9 3
M  V30 25 1 24 10
M  V30 26 2 24 14
M  V30 27 1 22 17
M  V30 28 1 1 25
M  V30 29 1 1 26
M  V30 30 1 1 27
M  V30 31 1 4 28
M  V30 32 1 5 29
M  V30 33 1 8 30
M  V30 34 1 11 31
M  V30 35 1 12 32
M  V30 36 1 15 33
M  V30 37 1 17 34
M  V30 38 1 18 35
M  V30 39 1 18 36
M  V30 40 1 19 37
M  V30 41 1 19 38
M  V30 42 1 20 39
M  V30 43 1 21 40
M  V30 44 1 21 41
M  V30 45 1 22 42
M  V30 46 1 22 43
M  V30 47 1 23 44
M  V30 END BOND
M  V30 END CTAB
M  END
>  <Dataset>  (236) 
ChEMBL_Kinases

>  <Ligand_Instance>  (236) 
nan

>  <PDB_ID>  (236) 
nan

>  <Standardized_SMILES>  (236) 
COc1ccc(Cl)cc1-c1ccnc2[nH]c(C3CCNCC3)cc12

>  <Name>  (236) 
nan

>  <Pocket>  (236) 
nan

>  <ATP_Site>  (236) 
nan

>  <Peripheral>  (236) 
nan

>  <Num_H_Atoms_ProtBoundConf>  (236) 
nan

>  <Num_Resolved_Atoms>  (236) 
nan

>  <Num_Not_Resolved_Atoms>  (236) 
nan

$$$$
CHEMBL3663766
     RDKit          3D

  0  0  0  0  0  0  0  0  0  0999 V3000
M  V30 BEGIN CTAB
M  V30 COUNTS 47 50 0 0 0
M  V30 BEGIN ATOM
M  V30 1 C 2.962411 -3.745469 1.208050 0
M  V30 2 O 2.654184 -2.406475 0.889469 0
M  V30 3 C 2.135392 -2.142331 -0.371869 0
M  V30 4 C 1.863090 -3.017482 -1.403418 0
M  V30 5 C 1.343690 -2.535636 -2.587015 0
M  V30 6 C 1.084183 -1.193759 -2.777039 0
M  V30 7 C 0.522143 -0.713673 -4.072851 0
M  V30 8 C 1.355891 -0.316430 -1.746247 0
M  V30 9 C 1.880402 -0.785924 -0.544779 0
M  V30 10 C 2.104716 0.277230 0.429635 0
M  V30 11 C 3.346392 0.880159 0.396715 0
M  V30 12 C 3.624551 1.890139 1.288160 0
M  V30 13 N 2.703425 2.306523 2.199844 0
M  V30 14 C 1.480712 1.722026 2.241738 0
M  V30 15 N 0.388866 1.894728 2.992786 0
M  V30 16 C -0.580023 1.027118 2.610494 0
M  V30 17 C -1.948044 0.918629 3.217746 0
M  V30 18 C -2.165422 -0.398503 3.882176 0
M  V30 19 C -3.144066 -1.303351 3.217952 0
M  V30 20 N -4.298051 -0.592698 2.659758 0
M  V30 21 C -3.703468 0.198208 1.570765 0
M  V30 22 C -2.980206 1.338296 2.231466 0
M  V30 23 C -0.073704 0.272948 1.569706 0
M  V30 24 C 1.194035 0.707995 1.350606 0
M  V30 25 H 2.972970 -3.908911 2.321506 0
M  V30 26 H 2.262258 -4.489341 0.818933 0
M  V30 27 H 3.989700 -4.052920 0.891534 0
M  V30 28 H 2.097265 -4.046210 -1.165565 0
M  V30 29 H 1.148026 -3.264655 -3.364765 0
M  V30 30 H 0.095973 -1.584448 -4.608383 0
M  V30 31 H -0.276312 0.031024 -3.926809 0
M  V30 32 H 1.320444 -0.308919 -4.725678 0
M  V30 33 H 1.130978 0.723289 -1.955868 0
M  V30 34 H 4.165208 0.641491 -0.278651 0
M  V30 35 H 4.563417 2.439364 1.359150 0
M  V30 36 H 0.348935 2.616620 3.755384 0
M  V30 37 H -1.976612 1.699845 4.034845 0
M  V30 38 H -1.171597 -0.934626 3.889123 0
M  V30 39 H -2.405864 -0.308471 4.979904 0
M  V30 40 H -2.638815 -1.763168 2.327535 0
M  V30 41 H -3.462658 -2.066032 3.949307 0
M  V30 42 H -4.937389 -1.320551 2.283126 0
M  V30 43 H -3.007144 -0.399008 0.965887 0
M  V30 44 H -4.520578 0.616162 0.967004 0
M  V30 45 H -2.490238 1.937386 1.423234 0
M  V30 46 H -3.757924 2.018467 2.672050 0
M  V30 47 H -0.611057 -0.502925 1.054947 0
M  V30 END ATOM
M  V30 BEGIN BOND
M  V30 1 1 1 2
M  V30 2 1 2 3
M  V30 3 2 3 4
M  V30 4 1 4 5
M  V30 5 2 5 6
M  V30 6 1 6 7
M  V30 7 1 6 8
M  V30 8 2 8 9
M  V30 9 1 9 10
M  V30 10 2 10 11
M  V30 11 1 11 12
M  V30 12 2 12 13
M  V30 13 1 13 14
M  V30 14 1 14 15
M  V30 15 1 15 16
M  V30 16 1 16 17
M  V30 17 1 17 18
M  V30 18 1 18 19
M  V30 19 1 19 20
M  V30 20 1 20 21
M  V30 21 1 21 22
M  V30 22 2 16 23
M  V30 23 1 23 24
M  V30 24 1 9 3
M  V30 25 1 24 10
M  V30 26 2 24 14
M  V30 27 1 22 17
M  V30 28 1 1 25
M  V30 29 1 1 26
M  V30 30 1 1 27
M  V30 31 1 4 28
M  V30 32 1 5 29
M  V30 33 1 7 30
M  V30 34 1 7 31
M  V30 35 1 7 32
M  V30 36 1 8 33
M  V30 37 1 11 34
M  V30 38 1 12 35
M  V30 39 1 15 36
M  V30 40 1 17 37
M  V30 41 1 18 38
M  V30 42 1 18 39
M  V30 43 1 19 40
M  V30 44 1 19 41
M  V30 45 1 20 42
M  V30 46 1 21 43
M  V30 47 1 21 44
M  V30 48 1 22 45
M  V30 49 1 22 46
M  V30 50 1 23 47
M  V30 END BOND
M  V30 END CTAB
M  END
>  <Dataset>  (237) 
ChEMBL_Kinases

>  <Ligand_Instance>  (237) 
nan

>  <PDB_ID>  (237) 
nan

>  <Standardized_SMILES>  (237) 
COc1ccc(C)cc1-c1ccnc2[nH]c(C3CCNCC3)cc12

>  <Name>  (237) 
nan

>  <Pocket>  (237) 
nan

>  <ATP_Site>  (237) 
nan

>  <Peripheral>  (237) 
nan

>  <Num_H_Atoms_ProtBoundConf>  (237) 
nan

>  <Num_Resolved_Atoms>  (237) 
nan

>  <Num_Not_Resolved_Atoms>  (237) 
nan

$$$$
CHEMBL3663776
     RDKit          3D

  0  0  0  0  0  0  0  0  0  0999 V3000
M  V30 BEGIN CTAB
M  V30 COUNTS 54 58 0 0 0
M  V30 BEGIN ATOM
M  V30 1 Cl 2.959206 -5.555224 -1.735113 0
M  V30 2 C 3.152549 -3.822076 -1.894512 0
M  V30 3 C 3.457104 -3.009508 -0.812222 0
M  V30 4 C 3.607185 -1.652406 -0.942689 0
M  V30 5 C 3.470024 -1.013073 -2.130645 0
M  V30 6 C 3.589293 0.405502 -2.512596 0
M  V30 7 N 2.318992 1.125150 -2.368925 0
M  V30 8 C 2.023122 1.326378 -0.970831 0
M  V30 9 C 2.508951 2.636163 -0.783762 0
M  V30 10 C 2.474936 3.340763 0.434889 0
M  V30 11 C 1.908285 2.660338 1.523394 0
M  V30 12 Cl 1.730928 3.302447 3.150475 0
M  V30 13 C 1.458283 1.404232 1.288156 0
M  V30 14 C 0.852799 0.541740 2.313785 0
M  V30 15 C 1.727438 0.295922 3.387866 0
M  V30 16 C 1.144018 -0.556964 4.325883 0
M  V30 17 N -0.065025 -1.129367 4.322983 0
M  V30 18 C -0.881997 -0.865299 3.266227 0
M  V30 19 N -2.121521 -1.185214 2.857755 0
M  V30 20 C -2.444750 -0.604853 1.685935 0
M  V30 21 C -3.686246 -0.698555 0.908322 0
M  V30 22 C -4.928106 -0.678811 1.722692 0
M  V30 23 C -5.358648 -1.966758 2.297270 0
M  V30 24 N -4.848749 -3.170174 1.782015 0
M  V30 25 C -4.076544 -3.173846 0.609905 0
M  V30 26 C -3.758542 -1.886025 -0.021565 0
M  V30 27 C -1.328155 0.151855 1.297374 0
M  V30 28 C -0.399358 -0.027429 2.276553 0
M  V30 29 N 1.490074 0.719804 0.107564 0
M  V30 30 C 3.165992 -1.843948 -3.199842 0
M  V30 31 C 3.005028 -3.210095 -3.121150 0
M  V30 32 H 3.580421 -3.471737 0.164046 0
M  V30 33 H 3.843951 -0.972428 -0.123551 0
M  V30 34 H 4.348698 0.873748 -1.838040 0
M  V30 35 H 3.907600 0.520093 -3.565085 0
M  V30 36 H 1.730952 1.437142 -3.147294 0
M  V30 37 H 2.988320 3.380895 -1.445699 0
M  V30 38 H 2.800059 4.313793 0.723581 0
M  V30 39 H 2.708272 0.676876 3.540351 0
M  V30 40 H 1.748853 -0.805773 5.199414 0
M  V30 41 H -2.727263 -1.818955 3.421886 0
M  V30 42 H -3.736135 0.187796 0.204419 0
M  V30 43 H -4.783275 0.085573 2.544991 0
M  V30 44 H -5.753170 -0.278680 1.076538 0
M  V30 45 H -5.127321 -1.956814 3.403585 0
M  V30 46 H -6.472214 -2.030583 2.275150 0
M  V30 47 H -4.692716 -3.922401 2.459993 0
M  V30 48 H -3.110141 -3.704936 0.802966 0
M  V30 49 H -4.601885 -3.806203 -0.149639 0
M  V30 50 H -2.844190 -1.918672 -0.646048 0
M  V30 51 H -4.578058 -1.634774 -0.759015 0
M  V30 52 H -1.284865 0.733760 0.397991 0
M  V30 53 H 3.028131 -1.464694 -4.222654 0
M  V30 54 H 2.770373 -3.807149 -3.974372 0
M  V30 END ATOM
M  V30 BEGIN BOND
M  V30 1 1 1 2
M  V30 2 2 2 3
M  V30 3 1 3 4
M  V30 4 2 4 5
M  V30 5 1 5 6
M  V30 6 1 6 7
M  V30 7 1 7 8
M  V30 8 2 8 9
M  V30 9 1 9 10
M  V30 10 2 10 11
M  V30 11 1 11 12
M  V30 12 1 11 13
M  V30 13 1 13 14
M  V30 14 2 14 15
M  V30 15 1 15 16
M  V30 16 2 16 17
M  V30 17 1 17 18
M  V30 18 1 18 19
M  V30 19 1 19 20
M  V30 20 1 20 21
M  V30 21 1 21 22
M  V30 22 1 22 23
M  V30 23 1 23 24
M  V30 24 1 24 25
M  V30 25 1 25 26
M  V30 26 2 20 27
M  V30 27 1 27 28
M  V30 28 2 13 29
M  V30 29 1 5 30
M  V30 30 2 30 31
M  V30 31 1 31 2
M  V30 32 1 29 8
M  V30 33 1 28 14
M  V30 34 2 28 18
M  V30 35 1 26 21
M  V30 36 1 3 32
M  V30 37 1 4 33
M  V30 38 1 6 34
M  V30 39 1 6 35
M  V30 40 1 7 36
M  V30 41 1 9 37
M  V30 42 1 10 38
M  V30 43 1 15 39
M  V30 44 1 16 40
M  V30 45 1 19 41
M  V30 46 1 21 42
M  V30 47 1 22 43
M  V30 48 1 22 44
M  V30 49 1 23 45
M  V30 50 1 23 46
M  V30 51 1 24 47
M  V30 52 1 25 48
M  V30 53 1 25 49
M  V30 54 1 26 50
M  V30 55 1 26 51
M  V30 56 1 27 52
M  V30 57 1 30 53
M  V30 58 1 31 54
M  V30 END BOND
M  V30 END CTAB
M  END
>  <Dataset>  (238) 
ChEMBL_Kinases

>  <Ligand_Instance>  (238) 
nan

>  <PDB_ID>  (238) 
nan

>  <Standardized_SMILES>  (238) 
Clc1ccc(CNc2ccc(Cl)c(-c3ccnc4[nH]c(C5CCNCC5)cc34)n2)cc1

>  <Name>  (238) 
nan

>  <Pocket>  (238) 
nan

>  <ATP_Site>  (238) 
nan

>  <Peripheral>  (238) 
nan

>  <Num_H_Atoms_ProtBoundConf>  (238) 
nan

>  <Num_Resolved_Atoms>  (238) 
nan

>  <Num_Not_Resolved_Atoms>  (238) 
nan

$$$$
CHEMBL3663768
     RDKit          3D

  0  0  0  0  0  0  0  0  0  0999 V3000
M  V30 BEGIN CTAB
M  V30 COUNTS 44 47 0 0 0
M  V30 BEGIN ATOM
M  V30 1 C -1.879803 -3.909863 2.084035 0
M  V30 2 O -1.344448 -3.162916 0.984724 0
M  V30 3 C -0.037639 -3.336122 0.594194 0
M  V30 4 C 0.761588 -4.234234 1.264925 0
M  V30 5 C 2.070193 -4.405913 0.871996 0
M  V30 6 C 2.649479 -3.708541 -0.189939 0
M  V30 7 C 1.788568 -2.811437 -0.831743 0
M  V30 8 C 0.470103 -2.618792 -0.458437 0
M  V30 9 C -0.325704 -1.651870 -1.209431 0
M  V30 10 C -1.082403 -1.970787 -2.340662 0
M  V30 11 C -1.814259 -0.995003 -3.002419 0
M  V30 12 N -1.809704 0.289192 -2.563835 0
M  V30 13 C -1.101495 0.661869 -1.480097 0
M  V30 14 N -0.917557 1.841929 -0.834388 0
M  V30 15 C -0.086139 1.665414 0.230914 0
M  V30 16 C 0.325898 2.776150 1.160783 0
M  V30 17 C -0.240967 2.580644 2.532026 0
M  V30 18 C 0.722284 2.052402 3.546892 0
M  V30 19 N 1.926057 1.503204 3.044367 0
M  V30 20 C 2.628054 2.306909 2.102737 0
M  V30 21 C 1.787067 3.057717 1.121514 0
M  V30 22 C 0.239301 0.326962 0.220877 0
M  V30 23 C -0.382614 -0.305662 -0.833193 0
M  V30 24 H -1.699437 -4.989711 1.898702 0
M  V30 25 H -1.296483 -3.642160 3.008146 0
M  V30 26 H -2.947887 -3.734111 2.208364 0
M  V30 27 H 0.413479 -4.835170 2.111627 0
M  V30 28 H 2.734922 -5.099434 1.368376 0
M  V30 29 H 3.675535 -3.840592 -0.501014 0
M  V30 30 H 2.185528 -2.231467 -1.676796 0
M  V30 31 H -1.042770 -3.020464 -2.640143 0
M  V30 32 H -2.387584 -1.292283 -3.878205 0
M  V30 33 H -1.394041 2.720704 -1.183356 0
M  V30 34 H -0.197471 3.686419 0.743437 0
M  V30 35 H -0.646048 3.550546 2.947316 0
M  V30 36 H -1.158018 1.925755 2.496289 0
M  V30 37 H 0.991658 2.819690 4.318561 0
M  V30 38 H 0.219278 1.245958 4.145932 0
M  V30 39 H 2.010440 0.490726 2.970975 0
M  V30 40 H 3.441060 1.743389 1.599061 0
M  V30 41 H 3.184571 3.077819 2.715023 0
M  V30 42 H 1.951184 4.164623 1.182964 0
M  V30 43 H 2.127814 2.767028 0.083402 0
M  V30 44 H 0.886296 -0.129339 0.943084 0
M  V30 END ATOM
M  V30 BEGIN BOND
M  V30 1 1 1 2
M  V30 2 1 2 3
M  V30 3 2 3 4
M  V30 4 1 4 5
M  V30 5 2 5 6
M  V30 6 1 6 7
M  V30 7 2 7 8
M  V30 8 1 8 9
M  V30 9 2 9 10
M  V30 10 1 10 11
M  V30 11 2 11 12
M  V30 12 1 12 13
M  V30 13 1 13 14
M  V30 14 1 14 15
M  V30 15 1 15 16
M  V30 16 1 16 17
M  V30 17 1 17 18
M  V30 18 1 18 19
M  V30 19 1 19 20
M  V30 20 1 20 21
M  V30 21 2 15 22
M  V30 22 1 22 23
M  V30 23 1 8 3
M  V30 24 1 23 9
M  V30 25 2 23 13
M  V30 26 1 21 16
M  V30 27 1 1 24
M  V30 28 1 1 25
M  V30 29 1 1 26
M  V30 30 1 4 27
M  V30 31 1 5 28
M  V30 32 1 6 29
M  V30 33 1 7 30
M  V30 34 1 10 31
M  V30 35 1 11 32
M  V30 36 1 14 33
M  V30 37 1 16 34
M  V30 38 1 17 35
M  V30 39 1 17 36
M  V30 40 1 18 37
M  V30 41 1 18 38
M  V30 42 1 19 39
M  V30 43 1 20 40
M  V30 44 1 20 41
M  V30 45 1 21 42
M  V30 46 1 21 43
M  V30 47 1 22 44
M  V30 END BOND
M  V30 END CTAB
M  END
>  <Dataset>  (239) 
ChEMBL_Kinases

>  <Ligand_Instance>  (239) 
nan

>  <PDB_ID>  (239) 
nan

>  <Standardized_SMILES>  (239) 
COc1ccccc1-c1ccnc2[nH]c(C3CCNCC3)cc12

>  <Name>  (239) 
nan

>  <Pocket>  (239) 
nan

>  <ATP_Site>  (239) 
nan

>  <Peripheral>  (239) 
nan

>  <Num_H_Atoms_ProtBoundConf>  (239) 
nan

>  <Num_Resolved_Atoms>  (239) 
nan

>  <Num_Not_Resolved_Atoms>  (239) 
nan

$$$$
CHEMBL3663769
     RDKit          3D

  0  0  0  0  0  0  0  0  0  0999 V3000
M  V30 BEGIN CTAB
M  V30 COUNTS 47 50 0 0 0
M  V30 BEGIN ATOM
M  V30 1 C -1.389891 -3.935735 -1.577965 0
M  V30 2 O -1.309584 -2.522277 -1.512823 0
M  V30 3 C -0.121931 -1.950651 -1.957235 0
M  V30 4 C 0.951964 -2.700865 -2.446806 0
M  V30 5 C 2.121594 -2.122669 -2.883419 0
M  V30 6 C 2.226183 -0.750561 -2.831044 0
M  V30 7 F 3.365654 -0.165370 -3.254882 0
M  V30 8 C 1.173057 0.005032 -2.349563 0
M  V30 9 C -0.003549 -0.579590 -1.910552 0
M  V30 10 C -1.137486 0.216046 -1.393368 0
M  V30 11 C -2.128424 0.670120 -2.261327 0
M  V30 12 C -3.169219 1.415544 -1.703788 0
M  V30 13 N -3.252035 1.706350 -0.392772 0
M  V30 14 C -2.297358 1.270628 0.452933 0
M  V30 15 N -2.108151 1.399067 1.795781 0
M  V30 16 C -0.989918 0.779637 2.189583 0
M  V30 17 C -0.496587 0.731104 3.592909 0
M  V30 18 C 0.803762 1.470359 3.763716 0
M  V30 19 C 1.704679 0.708693 4.713191 0
M  V30 20 N 1.992817 -0.616897 4.232251 0
M  V30 21 C 3.017513 -0.609065 3.200133 0
M  V30 22 C 0.846547 -1.388553 3.870704 0
M  V30 23 C -0.450357 -0.657240 4.127382 0
M  V30 24 C -0.443170 0.232337 1.044700 0
M  V30 25 C -1.245182 0.529608 -0.042015 0
M  V30 26 H -0.543402 -4.331584 -0.973953 0
M  V30 27 H -1.160350 -4.210435 -2.639617 0
M  V30 28 H -2.378495 -4.309110 -1.246390 0
M  V30 29 H 0.834340 -3.791578 -2.474384 0
M  V30 30 H 2.916184 -2.775484 -3.252427 0
M  V30 31 H 1.219567 1.082861 -2.293891 0
M  V30 32 H -2.079152 0.446685 -3.317171 0
M  V30 33 H -3.928786 1.757658 -2.401572 0
M  V30 34 H -2.803042 1.934359 2.373809 0
M  V30 35 H -1.250302 1.304927 4.182818 0
M  V30 36 H 0.673221 2.495060 4.182042 0
M  V30 37 H 1.292389 1.568903 2.790052 0
M  V30 38 H 2.674122 1.236598 4.824997 0
M  V30 39 H 1.218689 0.617696 5.703141 0
M  V30 40 H 2.778664 0.203321 2.474545 0
M  V30 41 H 3.048899 -1.607557 2.721000 0
M  V30 42 H 4.033999 -0.458685 3.653506 0
M  V30 43 H 0.955458 -1.773691 2.848304 0
M  V30 44 H 0.820619 -2.306908 4.520723 0
M  V30 45 H -1.293392 -1.237696 3.738007 0
M  V30 46 H -0.554221 -0.592543 5.250390 0
M  V30 47 H 0.454148 -0.332121 0.991940 0
M  V30 END ATOM
M  V30 BEGIN BOND
M  V30 1 1 1 2
M  V30 2 1 2 3
M  V30 3 2 3 4
M  V30 4 1 4 5
M  V30 5 2 5 6
M  V30 6 1 6 7
M  V30 7 1 6 8
M  V30 8 2 8 9
M  V30 9 1 9 10
M  V30 10 2 10 11
M  V30 11 1 11 12
M  V30 12 2 12 13
M  V30 13 1 13 14
M  V30 14 1 14 15
M  V30 15 1 15 16
M  V30 16 1 16 17
M  V30 17 1 17 18
M  V30 18 1 18 19
M  V30 19 1 19 20
M  V30 20 1 20 21
M  V30 21 1 20 22
M  V30 22 1 22 23
M  V30 23 2 16 24
M  V30 24 1 24 25
M  V30 25 1 9 3
M  V30 26 1 25 10
M  V30 27 2 25 14
M  V30 28 1 23 17
M  V30 29 1 1 26
M  V30 30 1 1 27
M  V30 31 1 1 28
M  V30 32 1 4 29
M  V30 33 1 5 30
M  V30 34 1 8 31
M  V30 35 1 11 32
M  V30 36 1 12 33
M  V30 37 1 15 34
M  V30 38 1 17 35
M  V30 39 1 18 36
M  V30 40 1 18 37
M  V30 41 1 19 38
M  V30 42 1 19 39
M  V30 43 1 21 40
M  V30 44 1 21 41
M  V30 45 1 21 42
M  V30 46 1 22 43
M  V30 47 1 22 44
M  V30 48 1 23 45
M  V30 49 1 23 46
M  V30 50 1 24 47
M  V30 END BOND
M  V30 END CTAB
M  END
>  <Dataset>  (240) 
ChEMBL_Kinases

>  <Ligand_Instance>  (240) 
nan

>  <PDB_ID>  (240) 
nan

>  <Standardized_SMILES>  (240) 
COc1ccc(F)cc1-c1ccnc2[nH]c(C3CCN(C)CC3)cc12

>  <Name>  (240) 
nan

>  <Pocket>  (240) 
nan

>  <ATP_Site>  (240) 
nan

>  <Peripheral>  (240) 
nan

>  <Num_H_Atoms_ProtBoundConf>  (240) 
nan

>  <Num_Resolved_Atoms>  (240) 
nan

>  <Num_Not_Resolved_Atoms>  (240) 
nan

$$$$
CHEMBL3663770
     RDKit          3D

  0  0  0  0  0  0  0  0  0  0999 V3000
M  V30 BEGIN CTAB
M  V30 COUNTS 47 50 0 0 0
M  V30 BEGIN ATOM
M  V30 1 C -0.687138 -3.935931 -1.605770 0
M  V30 2 O -0.799051 -2.524606 -1.554167 0
M  V30 3 C 0.316482 -1.777402 -1.845772 0
M  V30 4 C 1.535971 -2.355586 -2.185527 0
M  V30 5 C 2.694489 -1.671532 -2.489752 0
M  V30 6 F 3.812636 -2.371595 -2.803827 0
M  V30 7 C 2.604377 -0.301684 -2.444692 0
M  V30 8 C 1.435557 0.333695 -2.117833 0
M  V30 9 C 0.290985 -0.402456 -1.818178 0
M  V30 10 C -0.990859 0.214056 -1.460910 0
M  V30 11 C -1.941511 0.538149 -2.435372 0
M  V30 12 C -3.106124 1.113552 -1.968656 0
M  V30 13 N -3.347842 1.362231 -0.668533 0
M  V30 14 C -2.432456 1.050036 0.268611 0
M  V30 15 N -2.409878 1.185798 1.627200 0
M  V30 16 C -1.241947 0.713229 2.131698 0
M  V30 17 C -0.900842 0.715377 3.583442 0
M  V30 18 C 0.345121 1.471344 3.896342 0
M  V30 19 C 1.452443 0.666181 4.492289 0
M  V30 20 N 1.614585 -0.651718 3.983759 0
M  V30 21 C 2.631202 -0.830530 2.997460 0
M  V30 22 C 0.427449 -1.412933 3.786155 0
M  V30 23 C -0.819073 -0.681119 4.161567 0
M  V30 24 C -0.508816 0.264920 1.036518 0
M  V30 25 C -1.243352 0.471585 -0.123639 0
M  V30 26 H -1.649912 -4.423664 -1.350634 0
M  V30 27 H -0.312958 -4.302219 -2.589205 0
M  V30 28 H 0.055547 -4.293005 -0.841511 0
M  V30 29 H 1.543828 -3.444061 -2.204029 0
M  V30 30 H 3.495453 0.265879 -2.678062 0
M  V30 31 H 1.352319 1.420220 -2.078896 0
M  V30 32 H -1.743598 0.337071 -3.476252 0
M  V30 33 H -3.876799 1.384398 -2.683136 0
M  V30 34 H -3.237006 1.611860 2.120710 0
M  V30 35 H -1.804482 1.176458 4.078871 0
M  V30 36 H 0.089673 2.254510 4.656102 0
M  V30 37 H 0.696578 2.082459 3.014619 0
M  V30 38 H 2.415137 1.194719 4.364805 0
M  V30 39 H 1.306811 0.585028 5.609110 0
M  V30 40 H 2.491930 -1.842806 2.560537 0
M  V30 41 H 2.592321 -0.064363 2.203099 0
M  V30 42 H 3.612572 -0.860792 3.530183 0
M  V30 43 H 0.409574 -1.882680 2.777378 0
M  V30 44 H 0.496913 -2.294850 4.487546 0
M  V30 45 H -1.702812 -1.287722 3.816818 0
M  V30 46 H -0.836478 -0.577233 5.260517 0
M  V30 47 H 0.463065 -0.166538 1.100615 0
M  V30 END ATOM
M  V30 BEGIN BOND
M  V30 1 1 1 2
M  V30 2 1 2 3
M  V30 3 2 3 4
M  V30 4 1 4 5
M  V30 5 1 5 6
M  V30 6 2 5 7
M  V30 7 1 7 8
M  V30 8 2 8 9
M  V30 9 1 9 10
M  V30 10 2 10 11
M  V30 11 1 11 12
M  V30 12 2 12 13
M  V30 13 1 13 14
M  V30 14 1 14 15
M  V30 15 1 15 16
M  V30 16 1 16 17
M  V30 17 1 17 18
M  V30 18 1 18 19
M  V30 19 1 19 20
M  V30 20 1 20 21
M  V30 21 1 20 22
M  V30 22 1 22 23
M  V30 23 2 16 24
M  V30 24 1 24 25
M  V30 25 1 9 3
M  V30 26 1 25 10
M  V30 27 2 25 14
M  V30 28 1 23 17
M  V30 29 1 1 26
M  V30 30 1 1 27
M  V30 31 1 1 28
M  V30 32 1 4 29
M  V30 33 1 7 30
M  V30 34 1 8 31
M  V30 35 1 11 32
M  V30 36 1 12 33
M  V30 37 1 15 34
M  V30 38 1 17 35
M  V30 39 1 18 36
M  V30 40 1 18 37
M  V30 41 1 19 38
M  V30 42 1 19 39
M  V30 43 1 21 40
M  V30 44 1 21 41
M  V30 45 1 21 42
M  V30 46 1 22 43
M  V30 47 1 22 44
M  V30 48 1 23 45
M  V30 49 1 23 46
M  V30 50 1 24 47
M  V30 END BOND
M  V30 END CTAB
M  END
>  <Dataset>  (241) 
ChEMBL_Kinases

>  <Ligand_Instance>  (241) 
nan

>  <PDB_ID>  (241) 
nan

>  <Standardized_SMILES>  (241) 
COc1cc(F)ccc1-c1ccnc2[nH]c(C3CCN(C)CC3)cc12

>  <Name>  (241) 
nan

>  <Pocket>  (241) 
nan

>  <ATP_Site>  (241) 
nan

>  <Peripheral>  (241) 
nan

>  <Num_H_Atoms_ProtBoundConf>  (241) 
nan

>  <Num_Resolved_Atoms>  (241) 
nan

>  <Num_Not_Resolved_Atoms>  (241) 
nan

$$$$
CHEMBL3663771
     RDKit          3D

  0  0  0  0  0  0  0  0  0  0999 V3000
M  V30 BEGIN CTAB
M  V30 COUNTS 50 53 0 0 0
M  V30 BEGIN ATOM
M  V30 1 C 3.615961 -3.961109 0.447655 0
M  V30 2 O 3.274171 -2.606344 0.278775 0
M  V30 3 C 3.069392 -2.010012 -0.948995 0
M  V30 4 C 3.172394 -2.659665 -2.162631 0
M  V30 5 C 2.965729 -2.054640 -3.385067 0
M  V30 6 C 2.631742 -0.695122 -3.361476 0
M  V30 7 C 2.397161 0.009739 -4.653127 0
M  V30 8 C 2.514992 0.003708 -2.182584 0
M  V30 9 C 2.733252 -0.650974 -0.973952 0
M  V30 10 C 2.618267 0.059358 0.299972 0
M  V30 11 C 3.702889 0.691285 0.874180 0
M  V30 12 C 3.522631 1.348823 2.088078 0
M  V30 13 N 2.323991 1.369382 2.687877 0
M  V30 14 C 1.236969 0.762369 2.157592 0
M  V30 15 N -0.040010 0.649140 2.564620 0
M  V30 16 C -0.759208 -0.053289 1.697241 0
M  V30 17 C -2.210804 -0.456397 1.688419 0
M  V30 18 C -2.491836 -1.257422 2.937268 0
M  V30 19 C -3.959175 -1.313232 3.287452 0
M  V30 20 N -4.563645 -0.013395 3.347868 0
M  V30 21 C -5.568716 0.125994 2.312432 0
M  V30 22 C -3.551592 1.006216 3.117408 0
M  V30 23 C -3.020049 0.811545 1.719160 0
M  V30 24 C 0.147243 -0.392844 0.687311 0
M  V30 25 C 1.403476 0.107879 0.955408 0
M  V30 26 H 3.127509 -4.579627 -0.348134 0
M  V30 27 H 4.707790 -4.044596 0.320829 0
M  V30 28 H 3.378344 -4.320632 1.458327 0
M  V30 29 H 3.431102 -3.709981 -2.167366 0
M  V30 30 H 3.061060 -2.617185 -4.305675 0
M  V30 31 H 2.763906 1.036960 -4.563284 0
M  V30 32 H 1.274032 0.106806 -4.714132 0
M  V30 33 H 2.784088 -0.556960 -5.515798 0
M  V30 34 H 2.259172 1.052106 -2.127320 0
M  V30 35 H 4.649371 0.654324 0.364879 0
M  V30 36 H 4.392772 1.839550 2.520830 0
M  V30 37 H -0.416827 1.053015 3.435781 0
M  V30 38 H -2.427753 -1.057951 0.768544 0
M  V30 39 H -1.846457 -0.960462 3.790993 0
M  V30 40 H -2.207954 -2.315809 2.690622 0
M  V30 41 H -4.033804 -1.839100 4.254213 0
M  V30 42 H -4.434598 -1.958138 2.519982 0
M  V30 43 H -5.397945 -0.575030 1.456417 0
M  V30 44 H -5.626230 1.142144 1.880744 0
M  V30 45 H -6.598069 -0.063594 2.720368 0
M  V30 46 H -2.757801 0.842017 3.870971 0
M  V30 47 H -3.978382 2.026751 3.232226 0
M  V30 48 H -2.433276 1.690433 1.371447 0
M  V30 49 H -3.856255 0.672095 0.987158 0
M  V30 50 H -0.077501 -0.979567 -0.214244 0
M  V30 END ATOM
M  V30 BEGIN BOND
M  V30 1 1 1 2
M  V30 2 1 2 3
M  V30 3 2 3 4
M  V30 4 1 4 5
M  V30 5 2 5 6
M  V30 6 1 6 7
M  V30 7 1 6 8
M  V30 8 2 8 9
M  V30 9 1 9 10
M  V30 10 2 10 11
M  V30 11 1 11 12
M  V30 12 2 12 13
M  V30 13 1 13 14
M  V30 14 1 14 15
M  V30 15 1 15 16
M  V30 16 1 16 17
M  V30 17 1 17 18
M  V30 18 1 18 19
M  V30 19 1 19 20
M  V30 20 1 20 21
M  V30 21 1 20 22
M  V30 22 1 22 23
M  V30 23 2 16 24
M  V30 24 1 24 25
M  V30 25 1 9 3
M  V30 26 1 25 10
M  V30 27 2 25 14
M  V30 28 1 23 17
M  V30 29 1 1 26
M  V30 30 1 1 27
M  V30 31 1 1 28
M  V30 32 1 4 29
M  V30 33 1 5 30
M  V30 34 1 7 31
M  V30 35 1 7 32
M  V30 36 1 7 33
M  V30 37 1 8 34
M  V30 38 1 11 35
M  V30 39 1 12 36
M  V30 40 1 15 37
M  V30 41 1 17 38
M  V30 42 1 18 39
M  V30 43 1 18 40
M  V30 44 1 19 41
M  V30 45 1 19 42
M  V30 46 1 21 43
M  V30 47 1 21 44
M  V30 48 1 21 45
M  V30 49 1 22 46
M  V30 50 1 22 47
M  V30 51 1 23 48
M  V30 52 1 23 49
M  V30 53 1 24 50
M  V30 END BOND
M  V30 END CTAB
M  END
>  <Dataset>  (242) 
ChEMBL_Kinases

>  <Ligand_Instance>  (242) 
nan

>  <PDB_ID>  (242) 
nan

>  <Standardized_SMILES>  (242) 
COc1ccc(C)cc1-c1ccnc2[nH]c(C3CCN(C)CC3)cc12

>  <Name>  (242) 
nan

>  <Pocket>  (242) 
nan

>  <ATP_Site>  (242) 
nan

>  <Peripheral>  (242) 
nan

>  <Num_H_Atoms_ProtBoundConf>  (242) 
nan

>  <Num_Resolved_Atoms>  (242) 
nan

>  <Num_Not_Resolved_Atoms>  (242) 
nan

$$$$
CHEMBL3663772
     RDKit          3D

  0  0  0  0  0  0  0  0  0  0999 V3000
M  V30 BEGIN CTAB
M  V30 COUNTS 46 49 0 0 0
M  V30 BEGIN ATOM
M  V30 1 C -0.951009 -4.454942 -0.969176 0
M  V30 2 O -0.143633 -3.281027 -1.110488 0
M  V30 3 C 1.122629 -3.289676 -0.527168 0
M  V30 4 C 1.750755 -4.284452 0.193221 0
M  V30 5 C 3.009073 -4.091422 0.685142 0
M  V30 6 N 3.683218 -2.944105 0.494408 0
M  V30 7 C 3.086740 -1.946247 -0.212839 0
M  V30 8 C 1.797129 -2.103361 -0.734710 0
M  V30 9 C 1.388842 -0.894338 -1.447691 0
M  V30 10 C 1.694853 -0.839433 -2.792873 0
M  V30 11 C 1.352493 0.268646 -3.575130 0
M  V30 12 N 0.708518 1.295836 -2.979156 0
M  V30 13 C 0.394821 1.277152 -1.673712 0
M  V30 14 N -0.234485 2.157486 -0.849837 0
M  V30 15 C -0.284775 1.621913 0.400999 0
M  V30 16 C -0.879496 2.225281 1.626713 0
M  V30 17 C 0.126662 2.427190 2.707999 0
M  V30 18 C 0.153839 1.378801 3.769378 0
M  V30 19 N -1.051615 0.668711 4.010927 0
M  V30 20 C -0.997195 -0.752182 3.811347 0
M  V30 21 C -2.246487 1.295197 3.507776 0
M  V30 22 C -2.065294 1.396522 2.013349 0
M  V30 23 C 0.318696 0.365059 0.417983 0
M  V30 24 C 0.729524 0.186119 -0.893832 0
M  V30 25 H -1.255969 -4.466244 0.098138 0
M  V30 26 H -1.835102 -4.395679 -1.607055 0
M  V30 27 H -0.316770 -5.347376 -1.145693 0
M  V30 28 H 1.134782 -5.177384 0.299884 0
M  V30 29 H 3.428058 -4.921040 1.237901 0
M  V30 30 H 3.726148 -1.069212 -0.301862 0
M  V30 31 H 2.202521 -1.601377 -3.356284 0
M  V30 32 H 1.559592 0.377672 -4.626201 0
M  V30 33 H -0.625776 3.100647 -1.111588 0
M  V30 34 H -1.284913 3.215593 1.328979 0
M  V30 35 H 0.067617 3.448898 3.146816 0
M  V30 36 H 1.138331 2.407553 2.211052 0
M  V30 37 H 0.970761 0.631379 3.604893 0
M  V30 38 H 0.439733 1.869008 4.743613 0
M  V30 39 H -1.336592 -1.292239 4.738134 0
M  V30 40 H -1.604024 -1.130011 2.971486 0
M  V30 41 H 0.042546 -1.082928 3.617122 0
M  V30 42 H -3.088626 0.601756 3.698560 0
M  V30 43 H -2.387384 2.258947 4.003464 0
M  V30 44 H -3.015927 1.790401 1.590926 0
M  V30 45 H -1.973940 0.361618 1.624752 0
M  V30 46 H 0.439429 -0.309177 1.248234 0
M  V30 END ATOM
M  V30 BEGIN BOND
M  V30 1 1 1 2
M  V30 2 1 2 3
M  V30 3 2 3 4
M  V30 4 1 4 5
M  V30 5 2 5 6
M  V30 6 1 6 7
M  V30 7 2 7 8
M  V30 8 1 8 9
M  V30 9 2 9 10
M  V30 10 1 10 11
M  V30 11 2 11 12
M  V30 12 1 12 13
M  V30 13 1 13 14
M  V30 14 1 14 15
M  V30 15 1 15 16
M  V30 16 1 16 17
M  V30 17 1 17 18
M  V30 18 1 18 19
M  V30 19 1 19 20
M  V30 20 1 19 21
M  V30 21 1 21 22
M  V30 22 2 15 23
M  V30 23 1 23 24
M  V30 24 1 8 3
M  V30 25 1 24 9
M  V30 26 2 24 13
M  V30 27 1 22 16
M  V30 28 1 1 25
M  V30 29 1 1 26
M  V30 30 1 1 27
M  V30 31 1 4 28
M  V30 32 1 5 29
M  V30 33 1 7 30
M  V30 34 1 10 31
M  V30 35 1 11 32
M  V30 36 1 14 33
M  V30 37 1 16 34
M  V30 38 1 17 35
M  V30 39 1 17 36
M  V30 40 1 18 37
M  V30 41 1 18 38
M  V30 42 1 20 39
M  V30 43 1 20 40
M  V30 44 1 20 41
M  V30 45 1 21 42
M  V30 46 1 21 43
M  V30 47 1 22 44
M  V30 48 1 22 45
M  V30 49 1 23 46
M  V30 END BOND
M  V30 END CTAB
M  END
>  <Dataset>  (243) 
ChEMBL_Kinases

>  <Ligand_Instance>  (243) 
nan

>  <PDB_ID>  (243) 
nan

>  <Standardized_SMILES>  (243) 
COc1ccncc1-c1ccnc2[nH]c(C3CCN(C)CC3)cc12

>  <Name>  (243) 
nan

>  <Pocket>  (243) 
nan

>  <ATP_Site>  (243) 
nan

>  <Peripheral>  (243) 
nan

>  <Num_H_Atoms_ProtBoundConf>  (243) 
nan

>  <Num_Resolved_Atoms>  (243) 
nan

>  <Num_Not_Resolved_Atoms>  (243) 
nan

$$$$
CHEMBL3663773
     RDKit          3D

  0  0  0  0  0  0  0  0  0  0999 V3000
M  V30 BEGIN CTAB
M  V30 COUNTS 54 58 0 0 0
M  V30 BEGIN ATOM
M  V30 1 Cl 0.563210 -0.833247 5.018796 0
M  V30 2 C 1.447691 0.132815 3.888387 0
M  V30 3 C 1.748777 1.491142 4.048544 0
M  V30 4 C 2.447980 2.196210 3.097515 0
M  V30 5 C 2.876190 1.514891 1.920472 0
M  V30 6 N 3.618258 2.399257 1.089220 0
M  V30 7 C 3.341903 2.627000 -0.331958 0
M  V30 8 C 1.878625 2.396235 -0.578267 0
M  V30 9 C 1.658015 1.123223 -1.121433 0
M  V30 10 C 0.376025 0.704462 -1.389430 0
M  V30 11 C -0.623403 1.613686 -1.092248 0
M  V30 12 C -0.406568 2.855334 -0.561769 0
M  V30 13 C 0.886242 3.312636 -0.271478 0
M  V30 14 N 2.578253 0.215763 1.797470 0
M  V30 15 C 1.891555 -0.446124 2.739335 0
M  V30 16 C 1.622194 -1.833859 2.326995 0
M  V30 17 C 2.574983 -2.786784 2.723466 0
M  V30 18 C 2.362306 -4.071953 2.186899 0
M  V30 19 N 1.330997 -4.385889 1.364135 0
M  V30 20 C 0.409730 -3.499002 0.976522 0
M  V30 21 N -0.727057 -3.489415 0.258711 0
M  V30 22 C -1.278934 -2.215090 0.303444 0
M  V30 23 C -2.579014 -1.798588 -0.302166 0
M  V30 24 C -3.736635 -2.414725 0.437194 0
M  V30 25 C -4.515192 -3.398194 -0.350491 0
M  V30 26 N -3.748955 -4.135301 -1.286998 0
M  V30 27 C -3.136821 -3.278606 -2.280285 0
M  V30 28 C -2.654990 -1.964198 -1.773490 0
M  V30 29 C -0.428389 -1.419832 1.082915 0
M  V30 30 C 0.613865 -2.235598 1.490846 0
M  V30 31 H 1.379686 1.963725 4.939346 0
M  V30 32 H 2.625809 3.263426 3.308981 0
M  V30 33 H 4.421807 2.891978 1.555902 0
M  V30 34 H 3.980018 2.067489 -1.017675 0
M  V30 35 H 3.532335 3.727224 -0.500172 0
M  V30 36 H 2.432834 0.404931 -1.354534 0
M  V30 37 H 0.181586 -0.259835 -1.797607 0
M  V30 38 H -1.640387 1.281886 -1.317905 0
M  V30 39 H -1.174048 3.583691 -0.310591 0
M  V30 40 H 1.223879 4.229617 0.135009 0
M  V30 41 H 3.374032 -2.520462 3.373197 0
M  V30 42 H 3.086425 -4.855579 2.466753 0
M  V30 43 H -1.113651 -4.325968 -0.256754 0
M  V30 44 H -2.670135 -0.697030 -0.091442 0
M  V30 45 H -3.308318 -2.847928 1.376153 0
M  V30 46 H -4.457763 -1.648294 0.807746 0
M  V30 47 H -4.932972 -4.135797 0.379486 0
M  V30 48 H -5.419705 -2.943251 -0.835483 0
M  V30 49 H -4.402721 -4.771847 -1.824862 0
M  V30 50 H -2.286644 -3.868295 -2.739844 0
M  V30 51 H -3.859851 -3.134390 -3.131555 0
M  V30 52 H -3.256210 -1.121462 -2.243123 0
M  V30 53 H -1.621678 -1.781854 -2.206190 0
M  V30 54 H -0.594210 -0.401678 1.283011 0
M  V30 END ATOM
M  V30 BEGIN BOND
M  V30 1 1 1 2
M  V30 2 2 2 3
M  V30 3 1 3 4
M  V30 4 2 4 5
M  V30 5 1 5 6
M  V30 6 1 6 7
M  V30 7 1 7 8
M  V30 8 2 8 9
M  V30 9 1 9 10
M  V30 10 2 10 11
M  V30 11 1 11 12
M  V30 12 2 12 13
M  V30 13 1 5 14
M  V30 14 2 14 15
M  V30 15 1 15 16
M  V30 16 2 16 17
M  V30 17 1 17 18
M  V30 18 2 18 19
M  V30 19 1 19 20
M  V30 20 1 20 21
M  V30 21 1 21 22
M  V30 22 1 22 23
M  V30 23 1 23 24
M  V30 24 1 24 25
M  V30 25 1 25 26
M  V30 26 1 26 27
M  V30 27 1 27 28
M  V30 28 2 22 29
M  V30 29 1 29 30
M  V30 30 1 15 2
M  V30 31 1 30 16
M  V30 32 1 13 8
M  V30 33 2 30 20
M  V30 34 1 28 23
M  V30 35 1 3 31
M  V30 36 1 4 32
M  V30 37 1 6 33
M  V30 38 1 7 34
M  V30 39 1 7 35
M  V30 40 1 9 36
M  V30 41 1 10 37
M  V30 42 1 11 38
M  V30 43 1 12 39
M  V30 44 1 13 40
M  V30 45 1 17 41
M  V30 46 1 18 42
M  V30 47 1 21 43
M  V30 48 1 23 44
M  V30 49 1 24 45
M  V30 50 1 24 46
M  V30 51 1 25 47
M  V30 52 1 25 48
M  V30 53 1 26 49
M  V30 54 1 27 50
M  V30 55 1 27 51
M  V30 56 1 28 52
M  V30 57 1 28 53
M  V30 58 1 29 54
M  V30 END BOND
M  V30 END CTAB
M  END
>  <Dataset>  (244) 
ChEMBL_Kinases

>  <Ligand_Instance>  (244) 
nan

>  <PDB_ID>  (244) 
nan

>  <Standardized_SMILES>  (244) 
Clc1ccc(NCc2ccccc2)nc1-c1ccnc2[nH]c(C3CCNCC3)cc12

>  <Name>  (244) 
nan

>  <Pocket>  (244) 
nan

>  <ATP_Site>  (244) 
nan

>  <Peripheral>  (244) 
nan

>  <Num_H_Atoms_ProtBoundConf>  (244) 
nan

>  <Num_Resolved_Atoms>  (244) 
nan

>  <Num_Not_Resolved_Atoms>  (244) 
nan

$$$$
CHEMBL3663774
     RDKit          3D

  0  0  0  0  0  0  0  0  0  0999 V3000
M  V30 BEGIN CTAB
M  V30 COUNTS 54 58 0 0 0
M  V30 BEGIN ATOM
M  V30 1 F 3.834832 -5.000758 0.194202 0
M  V30 2 C 3.170952 -3.943613 -0.363399 0
M  V30 3 C 1.867885 -4.128107 -0.732256 0
M  V30 4 C 1.212150 -3.053237 -1.293035 0
M  V30 5 C 1.817882 -1.831029 -1.486913 0
M  V30 6 C 3.125283 -1.623525 -1.123967 0
M  V30 7 C 3.977595 -0.419670 -1.237804 0
M  V30 8 N 3.885478 0.448573 -0.075733 0
M  V30 9 C 2.975225 1.280972 0.599241 0
M  V30 10 C 3.120099 2.640345 0.358935 0
M  V30 11 C 2.261442 3.545829 0.978827 0
M  V30 12 C 1.276696 3.030661 1.830071 0
M  V30 13 Cl 0.277781 4.283190 2.533039 0
M  V30 14 C 1.167648 1.673229 2.040413 0
M  V30 15 C 0.064457 1.394619 2.932976 0
M  V30 16 C -0.031110 1.913371 4.230513 0
M  V30 17 C -1.114793 1.603244 5.014974 0
M  V30 18 N -2.110402 0.807573 4.586301 0
M  V30 19 C -2.049971 0.292609 3.344910 0
M  V30 20 N -2.912146 -0.521669 2.667901 0
M  V30 21 C -2.375550 -0.738749 1.431619 0
M  V30 22 C -3.117620 -1.589295 0.457751 0
M  V30 23 C -3.260049 -0.920712 -0.877609 0
M  V30 24 C -4.336730 -1.699225 -1.630237 0
M  V30 25 N -4.250350 -3.097520 -1.260321 0
M  V30 26 C -2.850726 -3.497027 -1.051434 0
M  V30 27 C -2.466512 -2.938832 0.303557 0
M  V30 28 C -1.177621 -0.084386 1.280831 0
M  V30 29 C -0.976412 0.568579 2.498748 0
M  V30 30 N 2.017619 0.815022 1.422834 0
M  V30 31 C 3.784905 -2.719368 -0.555187 0
M  V30 32 H 1.340642 -5.070451 -0.601698 0
M  V30 33 H 0.182386 -3.153836 -1.598560 0
M  V30 34 H 1.361123 -0.949625 -1.916872 0
M  V30 35 H 3.669211 0.183192 -2.146013 0
M  V30 36 H 5.030012 -0.693599 -1.434628 0
M  V30 37 H 4.753349 0.542502 0.525883 0
M  V30 38 H 3.897812 3.016317 -0.311798 0
M  V30 39 H 2.412825 4.593871 0.760241 0
M  V30 40 H 0.773406 2.550107 4.562214 0
M  V30 41 H -1.203574 1.997904 6.025050 0
M  V30 42 H -3.789898 -0.865100 3.089924 0
M  V30 43 H -4.154121 -1.800789 0.838940 0
M  V30 44 H -3.635527 0.115470 -0.767782 0
M  V30 45 H -2.306586 -0.942356 -1.445400 0
M  V30 46 H -4.231537 -1.609004 -2.721003 0
M  V30 47 H -5.319309 -1.261159 -1.353144 0
M  V30 48 H -4.707369 -3.689570 -1.982442 0
M  V30 49 H -2.769325 -4.587533 -1.064268 0
M  V30 50 H -2.189774 -3.020650 -1.801853 0
M  V30 51 H -1.376066 -2.945595 0.493175 0
M  V30 52 H -2.915621 -3.642999 1.059754 0
M  V30 53 H -0.554730 -0.091356 0.405302 0
M  V30 54 H 4.815690 -2.690287 -0.226068 0
M  V30 END ATOM
M  V30 BEGIN BOND
M  V30 1 1 1 2
M  V30 2 2 2 3
M  V30 3 1 3 4
M  V30 4 2 4 5
M  V30 5 1 5 6
M  V30 6 1 6 7
M  V30 7 1 7 8
M  V30 8 1 8 9
M  V30 9 2 9 10
M  V30 10 1 10 11
M  V30 11 2 11 12
M  V30 12 1 12 13
M  V30 13 1 12 14
M  V30 14 1 14 15
M  V30 15 2 15 16
M  V30 16 1 16 17
M  V30 17 2 17 18
M  V30 18 1 18 19
M  V30 19 1 19 20
M  V30 20 1 20 21
M  V30 21 1 21 22
M  V30 22 1 22 23
M  V30 23 1 23 24
M  V30 24 1 24 25
M  V30 25 1 25 26
M  V30 26 1 26 27
M  V30 27 2 21 28
M  V30 28 1 28 29
M  V30 29 2 14 30
M  V30 30 2 6 31
M  V30 31 1 31 2
M  V30 32 1 30 9
M  V30 33 1 29 15
M  V30 34 2 29 19
M  V30 35 1 27 22
M  V30 36 1 3 32
M  V30 37 1 4 33
M  V30 38 1 5 34
M  V30 39 1 7 35
M  V30 40 1 7 36
M  V30 41 1 8 37
M  V30 42 1 10 38
M  V30 43 1 11 39
M  V30 44 1 16 40
M  V30 45 1 17 41
M  V30 46 1 20 42
M  V30 47 1 22 43
M  V30 48 1 23 44
M  V30 49 1 23 45
M  V30 50 1 24 46
M  V30 51 1 24 47
M  V30 52 1 25 48
M  V30 53 1 26 49
M  V30 54 1 26 50
M  V30 55 1 27 51
M  V30 56 1 27 52
M  V30 57 1 28 53
M  V30 58 1 31 54
M  V30 END BOND
M  V30 END CTAB
M  END
>  <Dataset>  (245) 
ChEMBL_Kinases

>  <Ligand_Instance>  (245) 
nan

>  <PDB_ID>  (245) 
nan

>  <Standardized_SMILES>  (245) 
Fc1cccc(CNc2ccc(Cl)c(-c3ccnc4[nH]c(C5CCNCC5)cc34)n2)c1

>  <Name>  (245) 
nan

>  <Pocket>  (245) 
nan

>  <ATP_Site>  (245) 
nan

>  <Peripheral>  (245) 
nan

>  <Num_H_Atoms_ProtBoundConf>  (245) 
nan

>  <Num_Resolved_Atoms>  (245) 
nan

>  <Num_Not_Resolved_Atoms>  (245) 
nan

$$$$
CHEMBL3663775
     RDKit          3D

  0  0  0  0  0  0  0  0  0  0999 V3000
M  V30 BEGIN CTAB
M  V30 COUNTS 53 57 0 0 0
M  V30 BEGIN ATOM
M  V30 1 Cl 1.943391 -3.563406 1.930415 0
M  V30 2 C 2.290984 -1.849502 2.202872 0
M  V30 3 C 3.079045 -1.442694 3.285760 0
M  V30 4 C 3.293429 -0.061239 3.475291 0
M  V30 5 C 2.732525 0.881012 2.603331 0
M  V30 6 N 3.121385 2.252662 2.876950 0
M  V30 7 C 4.011895 2.874648 1.892138 0
M  V30 8 C 3.216339 3.041839 0.642532 0
M  V30 9 C 3.047514 2.187332 -0.413000 0
M  V30 10 C 2.221311 2.530705 -1.460078 0
M  V30 11 C 1.534650 3.749769 -1.490461 0
M  V30 12 N 1.717461 4.590483 -0.430168 0
M  V30 13 C 2.523792 4.239104 0.587099 0
M  V30 14 N 1.983477 0.426993 1.589952 0
M  V30 15 C 1.749934 -0.910655 1.364770 0
M  V30 16 C 0.886220 -1.261474 0.273837 0
M  V30 17 C 1.716083 -1.183242 -0.867207 0
M  V30 18 C 1.067943 -1.295490 -2.105859 0
M  V30 19 N -0.286720 -1.472319 -2.267684 0
M  V30 20 C -1.089155 -1.552767 -1.191668 0
M  V30 21 N -2.349919 -1.765924 -0.814901 0
M  V30 22 C -2.541120 -1.799875 0.526970 0
M  V30 23 C -3.870264 -2.081506 1.167072 0
M  V30 24 C -4.926636 -2.153692 0.133403 0
M  V30 25 C -5.060626 -3.516795 -0.492771 0
M  V30 26 N -3.821971 -4.187825 -0.550612 0
M  V30 27 C -3.139986 -4.375511 0.681373 0
M  V30 28 C -3.824316 -3.525616 1.766900 0
M  V30 29 C -1.307146 -1.588909 1.094437 0
M  V30 30 C -0.437362 -1.440473 0.002927 0
M  V30 31 H 3.503674 -2.191689 3.973367 0
M  V30 32 H 3.884904 0.200930 4.339732 0
M  V30 33 H 2.884343 2.863133 3.660572 0
M  V30 34 H 4.510358 3.776216 2.229473 0
M  V30 35 H 4.799633 2.102469 1.619837 0
M  V30 36 H 3.636595 1.260960 -0.340459 0
M  V30 37 H 2.130889 1.793274 -2.241750 0
M  V30 38 H 0.892475 3.968858 -2.351807 0
M  V30 39 H 2.584241 5.016325 1.375299 0
M  V30 40 H 2.767627 -1.054129 -1.038181 0
M  V30 41 H 1.557208 -1.242806 -3.098743 0
M  V30 42 H -2.993517 -1.861011 -1.646850 0
M  V30 43 H -4.073861 -1.426101 2.010141 0
M  V30 44 H -4.802180 -1.378483 -0.663609 0
M  V30 45 H -5.910917 -1.988967 0.676481 0
M  V30 46 H -5.805600 -4.172232 0.025604 0
M  V30 47 H -5.461570 -3.371450 -1.522347 0
M  V30 48 H -3.536448 -4.701106 -1.359779 0
M  V30 49 H -3.074412 -5.423359 0.994045 0
M  V30 50 H -2.083972 -3.971972 0.643863 0
M  V30 51 H -3.270527 -3.569269 2.692246 0
M  V30 52 H -4.887957 -3.817616 1.904813 0
M  V30 53 H -1.147079 -1.571592 2.172039 0
M  V30 END ATOM
M  V30 BEGIN BOND
M  V30 1 1 1 2
M  V30 2 2 2 3
M  V30 3 1 3 4
M  V30 4 2 4 5
M  V30 5 1 5 6
M  V30 6 1 6 7
M  V30 7 1 7 8
M  V30 8 2 8 9
M  V30 9 1 9 10
M  V30 10 2 10 11
M  V30 11 1 11 12
M  V30 12 2 12 13
M  V30 13 1 5 14
M  V30 14 2 14 15
M  V30 15 1 15 16
M  V30 16 2 16 17
M  V30 17 1 17 18
M  V30 18 2 18 19
M  V30 19 1 19 20
M  V30 20 1 20 21
M  V30 21 1 21 22
M  V30 22 1 22 23
M  V30 23 1 23 24
M  V30 24 1 24 25
M  V30 25 1 25 26
M  V30 26 1 26 27
M  V30 27 1 27 28
M  V30 28 2 22 29
M  V30 29 1 29 30
M  V30 30 1 15 2
M  V30 31 1 30 16
M  V30 32 1 13 8
M  V30 33 2 30 20
M  V30 34 1 28 23
M  V30 35 1 3 31
M  V30 36 1 4 32
M  V30 37 1 6 33
M  V30 38 1 7 34
M  V30 39 1 7 35
M  V30 40 1 9 36
M  V30 41 1 10 37
M  V30 42 1 11 38
M  V30 43 1 13 39
M  V30 44 1 17 40
M  V30 45 1 18 41
M  V30 46 1 21 42
M  V30 47 1 23 43
M  V30 48 1 24 44
M  V30 49 1 24 45
M  V30 50 1 25 46
M  V30 51 1 25 47
M  V30 52 1 26 48
M  V30 53 1 27 49
M  V30 54 1 27 50
M  V30 55 1 28 51
M  V30 56 1 28 52
M  V30 57 1 29 53
M  V30 END BOND
M  V30 END CTAB
M  END
>  <Dataset>  (246) 
ChEMBL_Kinases

>  <Ligand_Instance>  (246) 
nan

>  <PDB_ID>  (246) 
nan

>  <Standardized_SMILES>  (246) 
Clc1ccc(NCc2cccnc2)nc1-c1ccnc2[nH]c(C3CCNCC3)cc12

>  <Name>  (246) 
nan

>  <Pocket>  (246) 
nan

>  <ATP_Site>  (246) 
nan

>  <Peripheral>  (246) 
nan

>  <Num_H_Atoms_ProtBoundConf>  (246) 
nan

>  <Num_Resolved_Atoms>  (246) 
nan

>  <Num_Not_Resolved_Atoms>  (246) 
nan

$$$$
CHEMBL3663767
     RDKit          3D

  0  0  0  0  0  0  0  0  0  0999 V3000
M  V30 BEGIN CTAB
M  V30 COUNTS 43 46 0 0 0
M  V30 BEGIN ATOM
M  V30 1 C 1.529926 -4.431429 -2.093029 0
M  V30 2 O 1.628369 -3.062271 -1.773667 0
M  V30 3 C 2.528718 -2.599984 -0.802423 0
M  V30 4 C 3.360238 -3.499666 -0.152771 0
M  V30 5 C 4.283206 -3.246164 0.798882 0
M  V30 6 C 4.349739 -1.872792 1.118050 0
M  V30 7 F 5.211312 -1.371088 2.062669 0
M  V30 8 N 3.576209 -0.978329 0.524316 0
M  V30 9 C 2.662718 -1.284892 -0.428060 0
M  V30 10 C 1.738237 -0.363277 -1.108455 0
M  V30 11 C 1.627383 -0.111615 -2.441470 0
M  V30 12 C 0.678304 0.804948 -2.895845 0
M  V30 13 N -0.104131 1.415314 -1.979198 0
M  V30 14 C -0.025782 1.196941 -0.664889 0
M  V30 15 N -0.736480 1.712348 0.347444 0
M  V30 16 C -0.291603 1.167130 1.492817 0
M  V30 17 C -0.671205 1.254451 2.946782 0
M  V30 18 C -1.176761 -0.117155 3.408623 0
M  V30 19 C -2.483066 -0.453622 2.742583 0
M  V30 20 N -3.344098 0.714205 2.642306 0
M  V30 21 C -2.975354 1.697837 3.636873 0
M  V30 22 C -1.638783 2.332119 3.241449 0
M  V30 23 C 0.720707 0.293486 1.168166 0
M  V30 24 C 0.909678 0.289669 -0.182897 0
M  V30 25 H 1.382074 -4.961093 -1.111925 0
M  V30 26 H 0.602769 -4.645466 -2.657592 0
M  V30 27 H 2.406018 -4.777839 -2.651423 0
M  V30 28 H 3.272409 -4.554494 -0.440498 0
M  V30 29 H 4.937791 -3.923135 1.318845 0
M  V30 30 H 2.326605 -0.679774 -3.030963 0
M  V30 31 H 0.643353 0.958909 -3.963497 0
M  V30 32 H -1.511681 2.404672 0.390907 0
M  V30 33 H 0.264103 1.398625 3.512803 0
M  V30 34 H -0.425065 -0.850991 3.076579 0
M  V30 35 H -1.299941 -0.094282 4.484321 0
M  V30 36 H -2.274110 -0.863084 1.725837 0
M  V30 37 H -3.012755 -1.194138 3.376123 0
M  V30 38 H -4.339159 0.485592 2.630566 0
M  V30 39 H -2.860277 1.225278 4.606859 0
M  V30 40 H -3.708215 2.505100 3.624121 0
M  V30 41 H -1.345967 2.960941 4.135339 0
M  V30 42 H -1.773303 3.076905 2.420651 0
M  V30 43 H 1.332836 -0.337270 1.833479 0
M  V30 END ATOM
M  V30 BEGIN BOND
M  V30 1 1 1 2
M  V30 2 1 2 3
M  V30 3 2 3 4
M  V30 4 1 4 5
M  V30 5 2 5 6
M  V30 6 1 6 7
M  V30 7 1 6 8
M  V30 8 2 8 9
M  V30 9 1 9 10
M  V30 10 2 10 11
M  V30 11 1 11 12
M  V30 12 2 12 13
M  V30 13 1 13 14
M  V30 14 1 14 15
M  V30 15 1 15 16
M  V30 16 1 16 17
M  V30 17 1 17 18
M  V30 18 1 18 19
M  V30 19 1 19 20
M  V30 20 1 20 21
M  V30 21 1 21 22
M  V30 22 2 16 23
M  V30 23 1 23 24
M  V30 24 1 9 3
M  V30 25 1 24 10
M  V30 26 2 24 14
M  V30 27 1 22 17
M  V30 28 1 1 25
M  V30 29 1 1 26
M  V30 30 1 1 27
M  V30 31 1 4 28
M  V30 32 1 5 29
M  V30 33 1 11 30
M  V30 34 1 12 31
M  V30 35 1 15 32
M  V30 36 1 17 33
M  V30 37 1 18 34
M  V30 38 1 18 35
M  V30 39 1 19 36
M  V30 40 1 19 37
M  V30 41 1 20 38
M  V30 42 1 21 39
M  V30 43 1 21 40
M  V30 44 1 22 41
M  V30 45 1 22 42
M  V30 46 1 23 43
M  V30 END BOND
M  V30 END CTAB
M  END
>  <Dataset>  (247) 
ChEMBL_Kinases

>  <Ligand_Instance>  (247) 
nan

>  <PDB_ID>  (247) 
nan

>  <Standardized_SMILES>  (247) 
COc1ccc(F)nc1-c1ccnc2[nH]c(C3CCNCC3)cc12

>  <Name>  (247) 
nan

>  <Pocket>  (247) 
nan

>  <ATP_Site>  (247) 
nan

>  <Peripheral>  (247) 
nan

>  <Num_H_Atoms_ProtBoundConf>  (247) 
nan

>  <Num_Resolved_Atoms>  (247) 
nan

>  <Num_Not_Resolved_Atoms>  (247) 
nan

$$$$
CHEMBL3668427
     RDKit          3D

  0  0  0  0  0  0  0  0  0  0999 V3000
M  V30 BEGIN CTAB
M  V30 COUNTS 54 58 0 0 0
M  V30 BEGIN ATOM
M  V30 1 C -1.669412 -2.424512 3.873199 0
M  V30 2 N -0.504163 -3.060663 3.327396 0
M  V30 3 C 0.598386 -2.162446 3.339329 0
M  V30 4 C 1.852636 -2.674513 2.684397 0
M  V30 5 C 1.634784 -3.591874 1.551133 0
M  V30 6 C 1.563222 -2.913825 0.229353 0
M  V30 7 C 1.235619 -1.594515 -0.078964 0
M  V30 8 C 1.269246 -1.398310 -1.442699 0
M  V30 9 C 1.032034 -0.299464 -2.248892 0
M  V30 10 C 0.681561 1.001018 -1.692504 0
M  V30 11 C 0.456086 2.090475 -2.490626 0
M  V30 12 C 0.139434 3.330292 -2.002284 0
M  V30 13 C 0.023912 3.572481 -0.667329 0
M  V30 14 C 0.252700 2.467357 0.133578 0
M  V30 15 N 0.233463 2.389908 1.554172 0
M  V30 16 C -1.134549 2.656529 1.870823 0
M  V30 17 C -2.115630 1.770267 1.242504 0
M  V30 18 C -2.756929 0.583793 1.513294 0
M  V30 19 C -3.584786 0.321753 0.443753 0
M  V30 20 N -3.453468 1.321505 -0.457236 0
M  V30 21 N -2.587829 2.166231 0.023831 0
M  V30 22 N 0.563029 1.257788 -0.379935 0
M  V30 23 C 1.177880 -0.546740 -3.593932 0
M  V30 24 C 1.525261 -1.750133 -4.145836 0
M  V30 25 N 1.748405 -2.793906 -3.313569 0
M  V30 26 C 1.628619 -2.646571 -1.968401 0
M  V30 27 N 1.792784 -3.510966 -0.950528 0
M  V30 28 C 0.403582 -4.473211 1.696642 0
M  V30 29 C -0.769573 -3.559374 1.965875 0
M  V30 30 H -1.528450 -1.373204 4.184220 0
M  V30 31 H -2.538740 -2.457375 3.157305 0
M  V30 32 H -1.964520 -3.010226 4.782133 0
M  V30 33 H 0.269351 -1.176508 2.905769 0
M  V30 34 H 0.836862 -1.946184 4.401314 0
M  V30 35 H 2.564492 -3.073429 3.440110 0
M  V30 36 H 2.361845 -1.748248 2.282471 0
M  V30 37 H 2.477342 -4.325399 1.484587 0
M  V30 38 H 0.994769 -0.855059 0.639540 0
M  V30 39 H 0.512568 2.052329 -3.555716 0
M  V30 40 H -0.040200 4.209596 -2.643590 0
M  V30 41 H -0.210176 4.466764 -0.138152 0
M  V30 42 H 1.046757 2.186025 2.174321 0
M  V30 43 H -1.200929 2.556175 3.001722 0
M  V30 44 H -1.320479 3.734843 1.691098 0
M  V30 45 H -2.519590 0.090886 2.461808 0
M  V30 46 H -4.199458 -0.573663 0.439308 0
M  V30 47 H -3.968798 1.380212 -1.363755 0
M  V30 48 H 1.014075 0.238951 -4.309825 0
M  V30 49 H 1.630783 -1.907286 -5.207237 0
M  V30 50 H 2.062368 -4.521383 -1.034124 0
M  V30 51 H 0.563922 -5.070479 2.628753 0
M  V30 52 H 0.308904 -5.084349 0.785055 0
M  V30 53 H -1.737393 -4.104809 1.959325 0
M  V30 54 H -0.760649 -2.740005 1.225717 0
M  V30 END ATOM
M  V30 BEGIN BOND
M  V30 1 1 1 2
M  V30 2 1 2 3
M  V30 3 1 3 4
M  V30 4 1 4 5
M  V30 5 1 5 6
M  V30 6 2 6 7
M  V30 7 1 7 8
M  V30 8 2 8 9
M  V30 9 1 9 10
M  V30 10 2 10 11
M  V30 11 1 11 12
M  V30 12 2 12 13
M  V30 13 1 13 14
M  V30 14 1 14 15
M  V30 15 1 15 16
M  V30 16 1 16 17
M  V30 17 1 17 18
M  V30 18 2 18 19
M  V30 19 1 19 20
M  V30 20 1 20 21
M  V30 21 2 14 22
M  V30 22 1 9 23
M  V30 23 2 23 24
M  V30 24 1 24 25
M  V30 25 2 25 26
M  V30 26 1 26 27
M  V30 27 1 5 28
M  V30 28 1 28 29
M  V30 29 1 29 2
M  V30 30 1 27 6
M  V30 31 1 26 8
M  V30 32 1 22 10
M  V30 33 2 21 17
M  V30 34 1 1 30
M  V30 35 1 1 31
M  V30 36 1 1 32
M  V30 37 1 3 33
M  V30 38 1 3 34
M  V30 39 1 4 35
M  V30 40 1 4 36
M  V30 41 1 5 37
M  V30 42 1 7 38
M  V30 43 1 11 39
M  V30 44 1 12 40
M  V30 45 1 13 41
M  V30 46 1 15 42
M  V30 47 1 16 43
M  V30 48 1 16 44
M  V30 49 1 18 45
M  V30 50 1 19 46
M  V30 51 1 20 47
M  V30 52 1 23 48
M  V30 53 1 24 49
M  V30 54 1 27 50
M  V30 55 1 28 51
M  V30 56 1 28 52
M  V30 57 1 29 53
M  V30 58 1 29 54
M  V30 END BOND
M  V30 END CTAB
M  END
>  <Dataset>  (248) 
ChEMBL_Kinases

>  <Ligand_Instance>  (248) 
nan

>  <PDB_ID>  (248) 
nan

>  <Standardized_SMILES>  (248) 
CN1CCC(c2cc3c(-c4cccc(NCc5cc[nH]n5)n4)ccnc3[nH]2)CC1

>  <Name>  (248) 
nan

>  <Pocket>  (248) 
nan

>  <ATP_Site>  (248) 
nan

>  <Peripheral>  (248) 
nan

>  <Num_H_Atoms_ProtBoundConf>  (248) 
nan

>  <Num_Resolved_Atoms>  (248) 
nan

>  <Num_Not_Resolved_Atoms>  (248) 
nan

$$$$
CHEMBL3668426
     RDKit          3D

  0  0  0  0  0  0  0  0  0  0999 V3000
M  V30 BEGIN CTAB
M  V30 COUNTS 56 60 0 0 0
M  V30 BEGIN ATOM
M  V30 1 C -1.264893 0.191280 5.906891 0
M  V30 2 N -1.205853 -0.822088 4.861932 0
M  V30 3 C 0.195370 -0.956174 4.530610 0
M  V30 4 C 0.496398 -1.856025 3.389952 0
M  V30 5 C -0.773727 -2.329045 2.713084 0
M  V30 6 C -0.357809 -2.986906 1.416212 0
M  V30 7 C 0.309900 -2.103611 0.557284 0
M  V30 8 C 0.648744 -2.855879 -0.568913 0
M  V30 9 C 1.335782 -2.561343 -1.751758 0
M  V30 10 C 1.813548 -1.219045 -2.042963 0
M  V30 11 N 1.055642 -0.122510 -2.192204 0
M  V30 12 C 1.549201 1.100194 -2.422244 0
M  V30 13 N 0.809501 2.275215 -2.636432 0
M  V30 14 C -0.604857 2.409874 -2.852338 0
M  V30 15 C -1.465354 1.849323 -1.794526 0
M  V30 16 C -1.901481 2.513350 -0.654316 0
M  V30 17 C -2.723245 1.926535 0.281085 0
M  V30 18 N -3.092532 0.662456 0.040809 0
M  V30 19 C -2.716215 -0.040793 -1.028194 0
M  V30 20 C -1.895796 0.527190 -1.973356 0
M  V30 21 C 2.922759 1.133736 -2.491749 0
M  V30 22 C 3.787313 0.075039 -2.354410 0
M  V30 23 C 3.184628 -1.143924 -2.120899 0
M  V30 24 Cl 4.260941 -2.530836 -1.937376 0
M  V30 25 C 1.509959 -3.597043 -2.651913 0
M  V30 26 C 1.021293 -4.877806 -2.393130 0
M  V30 27 N 0.350650 -5.152158 -1.232006 0
M  V30 28 C 0.176491 -4.144255 -0.343946 0
M  V30 29 N -0.427183 -4.205654 0.853898 0
M  V30 30 C -1.622093 -1.106804 2.446621 0
M  V30 31 C -2.017791 -0.463853 3.732185 0
M  V30 32 H -1.094815 1.202938 5.524274 0
M  V30 33 H -2.189227 0.133325 6.499648 0
M  V30 34 H -0.413096 -0.018949 6.602405 0
M  V30 35 H 0.701807 0.035314 4.461720 0
M  V30 36 H 0.656925 -1.424719 5.443847 0
M  V30 37 H 1.097356 -2.748224 3.669803 0
M  V30 38 H 1.069723 -1.273348 2.625318 0
M  V30 39 H -1.333909 -3.033620 3.332808 0
M  V30 40 H 0.591656 -1.059289 0.582474 0
M  V30 41 H 1.346001 3.180446 -2.641846 0
M  V30 42 H -0.891385 3.491046 -2.996294 0
M  V30 43 H -0.865155 1.921660 -3.823575 0
M  V30 44 H -1.561644 3.526766 -0.532947 0
M  V30 45 H -3.035891 2.487370 1.152587 0
M  V30 46 H -3.089311 -1.059174 -1.099144 0
M  V30 47 H -1.660032 -0.136678 -2.795095 0
M  V30 48 H 3.417915 2.098742 -2.677488 0
M  V30 49 H 4.859143 0.195910 -2.424324 0
M  V30 50 H 2.046987 -3.375158 -3.581108 0
M  V30 51 H 1.182542 -5.651869 -3.128761 0
M  V30 52 H -0.905733 -4.940767 1.406906 0
M  V30 53 H -0.979615 -0.394953 1.860917 0
M  V30 54 H -2.520596 -1.393631 1.822134 0
M  V30 55 H -3.070375 -0.794195 3.965970 0
M  V30 56 H -2.095056 0.636751 3.584723 0
M  V30 END ATOM
M  V30 BEGIN BOND
M  V30 1 1 1 2
M  V30 2 1 2 3
M  V30 3 1 3 4
M  V30 4 1 4 5
M  V30 5 1 5 6
M  V30 6 2 6 7
M  V30 7 1 7 8
M  V30 8 2 8 9
M  V30 9 1 9 10
M  V30 10 2 10 11
M  V30 11 1 11 12
M  V30 12 1 12 13
M  V30 13 1 13 14
M  V30 14 1 14 15
M  V30 15 2 15 16
M  V30 16 1 16 17
M  V30 17 2 17 18
M  V30 18 1 18 19
M  V30 19 2 19 20
M  V30 20 2 12 21
M  V30 21 1 21 22
M  V30 22 2 22 23
M  V30 23 1 23 24
M  V30 24 1 9 25
M  V30 25 2 25 26
M  V30 26 1 26 27
M  V30 27 2 27 28
M  V30 28 1 28 29
M  V30 29 1 5 30
M  V30 30 1 30 31
M  V30 31 1 31 2
M  V30 32 1 29 6
M  V30 33 1 28 8
M  V30 34 1 23 10
M  V30 35 1 20 15
M  V30 36 1 1 32
M  V30 37 1 1 33
M  V30 38 1 1 34
M  V30 39 1 3 35
M  V30 40 1 3 36
M  V30 41 1 4 37
M  V30 42 1 4 38
M  V30 43 1 5 39
M  V30 44 1 7 40
M  V30 45 1 13 41
M  V30 46 1 14 42
M  V30 47 1 14 43
M  V30 48 1 16 44
M  V30 49 1 17 45
M  V30 50 1 19 46
M  V30 51 1 20 47
M  V30 52 1 21 48
M  V30 53 1 22 49
M  V30 54 1 25 50
M  V30 55 1 26 51
M  V30 56 1 29 52
M  V30 57 1 30 53
M  V30 58 1 30 54
M  V30 59 1 31 55
M  V30 60 1 31 56
M  V30 END BOND
M  V30 END CTAB
M  END
>  <Dataset>  (249) 
ChEMBL_Kinases

>  <Ligand_Instance>  (249) 
nan

>  <PDB_ID>  (249) 
nan

>  <Standardized_SMILES>  (249) 
CN1CCC(c2cc3c(-c4nc(NCc5ccncc5)ccc4Cl)ccnc3[nH]2)CC1

>  <Name>  (249) 
nan

>  <Pocket>  (249) 
nan

>  <ATP_Site>  (249) 
nan

>  <Peripheral>  (249) 
nan

>  <Num_H_Atoms_ProtBoundConf>  (249) 
nan

>  <Num_Resolved_Atoms>  (249) 
nan

>  <Num_Not_Resolved_Atoms>  (249) 
nan

$$$$
CHEMBL3668425
     RDKit          3D

  0  0  0  0  0  0  0  0  0  0999 V3000
M  V30 BEGIN CTAB
M  V30 COUNTS 67 71 0 0 0
M  V30 BEGIN ATOM
M  V30 1 C 5.730835 -1.325444 4.822498 0
M  V30 2 N 5.345443 -0.154557 4.058120 0
M  V30 3 C 4.032611 0.225714 4.440379 0
M  V30 4 C 3.202030 0.897515 3.407122 0
M  V30 5 C 3.367347 0.355938 2.007265 0
M  V30 6 C 2.841495 -0.997999 1.813825 0
M  V30 7 C 1.997977 -1.228090 0.721530 0
M  V30 8 C 1.602472 -2.562825 0.714429 0
M  V30 9 C 0.809561 -3.372537 -0.070747 0
M  V30 10 C 0.153688 -2.794623 -1.237027 0
M  V30 11 N -0.654895 -1.702597 -1.321067 0
M  V30 12 C -1.185687 -1.290062 -2.471306 0
M  V30 13 N -2.020458 -0.136824 -2.449671 0
M  V30 14 C -2.251355 0.516776 -1.176304 0
M  V30 15 C -3.145987 1.723191 -1.271021 0
M  V30 16 C -3.349639 2.360912 0.084296 0
M  V30 17 C -4.550893 1.856231 0.820774 0
M  V30 18 O -4.833171 0.537791 0.470490 0
M  V30 19 C -5.254934 0.433371 -0.838306 0
M  V30 20 C -6.721972 0.858279 -0.913023 0
M  V30 21 C -5.213637 -1.030607 -1.236077 0
M  V30 22 C -4.485116 1.282112 -1.798616 0
M  V30 23 C -0.915702 -1.984881 -3.631833 0
M  V30 24 C -0.093018 -3.115823 -3.618009 0
M  V30 25 C 0.430015 -3.499685 -2.402962 0
M  V30 26 Cl 1.460476 -4.937544 -2.464670 0
M  V30 27 C 0.618478 -4.710118 0.209143 0
M  V30 28 C 1.266309 -5.219939 1.331564 0
M  V30 29 N 2.056184 -4.435884 2.122921 0
M  V30 30 C 2.208802 -3.143908 1.807478 0
M  V30 31 N 2.924161 -2.187438 2.420615 0
M  V30 32 C 4.849290 0.423231 1.697841 0
M  V30 33 C 5.592644 -0.398268 2.683800 0
M  V30 34 H 4.992008 -1.541100 5.609446 0
M  V30 35 H 6.767760 -1.260980 5.208378 0
M  V30 36 H 5.727344 -2.216570 4.131809 0
M  V30 37 H 4.160132 0.982921 5.274100 0
M  V30 38 H 3.506478 -0.619025 4.970959 0
M  V30 39 H 3.549903 1.971443 3.345438 0
M  V30 40 H 2.150827 0.894399 3.760406 0
M  V30 41 H 2.819213 1.093465 1.344394 0
M  V30 42 H 1.626488 -0.590340 -0.063665 0
M  V30 43 H -2.418214 0.174459 -3.344036 0
M  V30 44 H -1.273842 0.899924 -0.760791 0
M  V30 45 H -2.606064 -0.198079 -0.410794 0
M  V30 46 H -2.725449 2.486029 -1.953201 0
M  V30 47 H -2.424608 2.159615 0.696062 0
M  V30 48 H -3.388230 3.463006 -0.006970 0
M  V30 49 H -4.368982 1.857598 1.928805 0
M  V30 50 H -5.405730 2.529230 0.648069 0
M  V30 51 H -7.370662 0.229452 -0.274970 0
M  V30 52 H -7.080912 0.780816 -1.972984 0
M  V30 53 H -6.868813 1.923787 -0.637203 0
M  V30 54 H -4.681993 -1.662032 -0.478746 0
M  V30 55 H -4.666326 -1.160380 -2.178444 0
M  V30 56 H -6.224078 -1.473425 -1.321265 0
M  V30 57 H -5.054800 2.223387 -2.043239 0
M  V30 58 H -4.287994 0.718673 -2.747934 0
M  V30 59 H -1.365525 -1.618213 -4.544753 0
M  V30 60 H 0.098387 -3.641277 -4.559713 0
M  V30 61 H -0.001747 -5.350829 -0.402309 0
M  V30 62 H 1.167012 -6.263989 1.620171 0
M  V30 63 H 3.490683 -2.303403 3.273052 0
M  V30 64 H 4.962237 -0.088906 0.701509 0
M  V30 65 H 5.172642 1.482373 1.640856 0
M  V30 66 H 6.692423 -0.155726 2.520223 0
M  V30 67 H 5.527842 -1.467922 2.398663 0
M  V30 END ATOM
M  V30 BEGIN BOND
M  V30 1 1 1 2
M  V30 2 1 2 3
M  V30 3 1 3 4
M  V30 4 1 4 5
M  V30 5 1 5 6
M  V30 6 2 6 7
M  V30 7 1 7 8
M  V30 8 2 8 9
M  V30 9 1 9 10
M  V30 10 2 10 11
M  V30 11 1 11 12
M  V30 12 1 12 13
M  V30 13 1 13 14
M  V30 14 1 14 15
M  V30 15 1 15 16
M  V30 16 1 16 17
M  V30 17 1 17 18
M  V30 18 1 18 19
M  V30 19 1 19 20
M  V30 20 1 19 21
M  V30 21 1 19 22
M  V30 22 2 12 23
M  V30 23 1 23 24
M  V30 24 2 24 25
M  V30 25 1 25 26
M  V30 26 1 9 27
M  V30 27 2 27 28
M  V30 28 1 28 29
M  V30 29 2 29 30
M  V30 30 1 30 31
M  V30 31 1 5 32
M  V30 32 1 32 33
M  V30 33 1 33 2
M  V30 34 1 31 6
M  V30 35 1 30 8
M  V30 36 1 25 10
M  V30 37 1 22 15
M  V30 38 1 1 34
M  V30 39 1 1 35
M  V30 40 1 1 36
M  V30 41 1 3 37
M  V30 42 1 3 38
M  V30 43 1 4 39
M  V30 44 1 4 40
M  V30 45 1 5 41
M  V30 46 1 7 42
M  V30 47 1 13 43
M  V30 48 1 14 44
M  V30 49 1 14 45
M  V30 50 1 15 46
M  V30 51 1 16 47
M  V30 52 1 16 48
M  V30 53 1 17 49
M  V30 54 1 17 50
M  V30 55 1 20 51
M  V30 56 1 20 52
M  V30 57 1 20 53
M  V30 58 1 21 54
M  V30 59 1 21 55
M  V30 60 1 21 56
M  V30 61 1 22 57
M  V30 62 1 22 58
M  V30 63 1 23 59
M  V30 64 1 24 60
M  V30 65 1 27 61
M  V30 66 1 28 62
M  V30 67 1 31 63
M  V30 68 1 32 64
M  V30 69 1 32 65
M  V30 70 1 33 66
M  V30 71 1 33 67
M  V30 END BOND
M  V30 END CTAB
M  END
>  <Dataset>  (250) 
ChEMBL_Kinases

>  <Ligand_Instance>  (250) 
nan

>  <PDB_ID>  (250) 
nan

>  <Standardized_SMILES>  (250) 
CN1CCC(c2cc3c(-c4nc(NCC5CCOC(C)(C)C5)ccc4Cl)ccnc3[nH]2)CC1

>  <Name>  (250) 
nan

>  <Pocket>  (250) 
nan

>  <ATP_Site>  (250) 
nan

>  <Peripheral>  (250) 
nan

>  <Num_H_Atoms_ProtBoundConf>  (250) 
nan

>  <Num_Resolved_Atoms>  (250) 
nan

>  <Num_Not_Resolved_Atoms>  (250) 
nan

$$$$
CHEMBL3668424
     RDKit          3D

  0  0  0  0  0  0  0  0  0  0999 V3000
M  V30 BEGIN CTAB
M  V30 COUNTS 72 76 0 0 0
M  V30 BEGIN ATOM
M  V30 1 C 2.801393 -1.978393 4.180045 0
M  V30 2 N 4.120546 -2.275741 3.691300 0
M  V30 3 C 4.107522 -3.402649 2.778709 0
M  V30 4 C 4.711632 -1.085565 3.104293 0
M  V30 5 C 4.010224 -0.680363 1.842054 0
M  V30 6 O 4.566937 0.479187 1.247130 0
M  V30 7 C 4.006695 0.976649 0.052988 0
M  V30 8 C 2.932406 0.303670 -0.481999 0
M  V30 9 C 2.378427 0.795596 -1.662982 0
M  V30 10 C 2.898601 1.937461 -2.284084 0
M  V30 11 C 2.156318 2.261113 -3.505387 0
M  V30 12 N 1.034521 3.149638 -3.314267 0
M  V30 13 C 0.181619 2.492184 -2.382311 0
M  V30 14 C 0.402241 2.810193 -1.062125 0
M  V30 15 C -0.398198 2.194600 -0.131507 0
M  V30 16 C -1.335110 1.327747 -0.595739 0
M  V30 17 C -1.597788 0.974180 -1.882435 0
M  V30 18 C -2.560664 0.114654 -2.499859 0
M  V30 19 C -2.807065 0.281016 -3.868383 0
M  V30 20 C -3.704343 -0.511152 -4.546835 0
M  V30 21 N -4.383533 -1.483092 -3.917328 0
M  V30 22 C -4.203961 -1.709822 -2.604116 0
M  V30 23 N -4.732652 -2.604650 -1.786132 0
M  V30 24 C -4.190409 -2.413435 -0.571212 0
M  V30 25 C -4.530124 -3.230283 0.630405 0
M  V30 26 C -5.182477 -2.452503 1.724632 0
M  V30 27 C -4.251245 -1.540449 2.478472 0
M  V30 28 N -3.018121 -2.150877 2.771807 0
M  V30 29 C -1.875376 -1.322405 2.931655 0
M  V30 30 C -2.816555 -3.505112 2.466607 0
M  V30 31 C -3.374001 -3.999053 1.179900 0
M  V30 32 C -3.308157 -1.366517 -0.672437 0
M  V30 33 C -3.303374 -0.901338 -1.964054 0
M  V30 34 N -0.775694 1.618508 -2.723009 0
M  V30 35 C 3.977171 2.567498 -1.698056 0
M  V30 36 C 4.540870 2.103090 -0.535060 0
M  V30 37 H 2.066224 -2.649079 3.658470 0
M  V30 38 H 2.750216 -2.206736 5.278741 0
M  V30 39 H 2.489725 -0.931309 3.986284 0
M  V30 40 H 3.467260 -3.259496 1.900691 0
M  V30 41 H 5.134312 -3.658187 2.479027 0
M  V30 42 H 3.731405 -4.264965 3.380658 0
M  V30 43 H 5.782365 -1.224231 2.927450 0
M  V30 44 H 4.541300 -0.276851 3.862339 0
M  V30 45 H 2.933270 -0.486873 2.030504 0
M  V30 46 H 4.145369 -1.498122 1.113675 0
M  V30 47 H 2.549145 -0.574058 0.017070 0
M  V30 48 H 1.529795 0.196556 -2.011768 0
M  V30 49 H 1.873135 1.380427 -4.085495 0
M  V30 50 H 2.879402 2.824767 -4.166022 0
M  V30 51 H 0.907051 4.077441 -3.781146 0
M  V30 52 H 1.164902 3.509306 -0.755869 0
M  V30 53 H -0.284534 2.394182 0.922281 0
M  V30 54 H -1.961585 0.889579 0.148798 0
M  V30 55 H -2.298321 1.049580 -4.468791 0
M  V30 56 H -3.868542 -0.352780 -5.601761 0
M  V30 57 H -5.450055 -3.329072 -2.060903 0
M  V30 58 H -5.294212 -3.995472 0.307949 0
M  V30 59 H -5.544441 -3.215320 2.462467 0
M  V30 60 H -6.104762 -1.926300 1.402950 0
M  V30 61 H -4.766974 -1.353077 3.467751 0
M  V30 62 H -4.217246 -0.532065 2.013714 0
M  V30 63 H -1.153913 -1.578010 2.101935 0
M  V30 64 H -1.321987 -1.507661 3.865840 0
M  V30 65 H -2.117178 -0.255179 2.773808 0
M  V30 66 H -1.713708 -3.689007 2.445903 0
M  V30 67 H -3.174103 -4.123415 3.329312 0
M  V30 68 H -3.613622 -5.088023 1.338246 0
M  V30 69 H -2.571181 -4.034287 0.390261 0
M  V30 70 H -2.768048 -1.073950 0.183658 0
M  V30 71 H 4.301569 3.435450 -2.255709 0
M  V30 72 H 5.381966 2.634519 -0.122367 0
M  V30 END ATOM
M  V30 BEGIN BOND
M  V30 1 1 1 2
M  V30 2 1 2 3
M  V30 3 1 2 4
M  V30 4 1 4 5
M  V30 5 1 5 6
M  V30 6 1 6 7
M  V30 7 2 7 8
M  V30 8 1 8 9
M  V30 9 2 9 10
M  V30 10 1 10 11
M  V30 11 1 11 12
M  V30 12 1 12 13
M  V30 13 2 13 14
M  V30 14 1 14 15
M  V30 15 2 15 16
M  V30 16 1 16 17
M  V30 17 1 17 18
M  V30 18 2 18 19
M  V30 19 1 19 20
M  V30 20 2 20 21
M  V30 21 1 21 22
M  V30 22 1 22 23
M  V30 23 1 23 24
M  V30 24 1 24 25
M  V30 25 1 25 26
M  V30 26 1 26 27
M  V30 27 1 27 28
M  V30 28 1 28 29
M  V30 29 1 28 30
M  V30 30 1 30 31
M  V30 31 2 24 32
M  V30 32 1 32 33
M  V30 33 2 17 34
M  V30 34 1 10 35
M  V30 35 2 35 36
M  V30 36 1 36 7
M  V30 37 1 34 13
M  V30 38 1 33 18
M  V30 39 2 33 22
M  V30 40 1 31 25
M  V30 41 1 1 37
M  V30 42 1 1 38
M  V30 43 1 1 39
M  V30 44 1 3 40
M  V30 45 1 3 41
M  V30 46 1 3 42
M  V30 47 1 4 43
M  V30 48 1 4 44
M  V30 49 1 5 45
M  V30 50 1 5 46
M  V30 51 1 8 47
M  V30 52 1 9 48
M  V30 53 1 11 49
M  V30 54 1 11 50
M  V30 55 1 12 51
M  V30 56 1 14 52
M  V30 57 1 15 53
M  V30 58 1 16 54
M  V30 59 1 19 55
M  V30 60 1 20 56
M  V30 61 1 23 57
M  V30 62 1 25 58
M  V30 63 1 26 59
M  V30 64 1 26 60
M  V30 65 1 27 61
M  V30 66 1 27 62
M  V30 67 1 29 63
M  V30 68 1 29 64
M  V30 69 1 29 65
M  V30 70 1 30 66
M  V30 71 1 30 67
M  V30 72 1 31 68
M  V30 73 1 31 69
M  V30 74 1 32 70
M  V30 75 1 35 71
M  V30 76 1 36 72
M  V30 END BOND
M  V30 END CTAB
M  END
>  <Dataset>  (251) 
ChEMBL_Kinases

>  <Ligand_Instance>  (251) 
nan

>  <PDB_ID>  (251) 
nan

>  <Standardized_SMILES>  (251) 
CN(C)CCOc1ccc(CNc2cccc(-c3ccnc4[nH]c(C5CCN(C)CC5)cc34)n2)cc1

>  <Name>  (251) 
nan

>  <Pocket>  (251) 
nan

>  <ATP_Site>  (251) 
nan

>  <Peripheral>  (251) 
nan

>  <Num_H_Atoms_ProtBoundConf>  (251) 
nan

>  <Num_Resolved_Atoms>  (251) 
nan

>  <Num_Not_Resolved_Atoms>  (251) 
nan

$$$$
CHEMBL3668423
     RDKit          3D

  0  0  0  0  0  0  0  0  0  0999 V3000
M  V30 BEGIN CTAB
M  V30 COUNTS 54 58 0 0 0
M  V30 BEGIN ATOM
M  V30 1 C 1.835889 -2.687282 4.465579 0
M  V30 2 N 2.159130 -2.782957 3.061163 0
M  V30 3 C 2.170015 -1.501886 2.397250 0
M  V30 4 C 2.854152 -1.638434 1.083494 0
M  V30 5 C 2.165404 -2.671332 0.260821 0
M  V30 6 C 1.645209 -2.064608 -1.004797 0
M  V30 7 C 0.651452 -1.120363 -1.121128 0
M  V30 8 C 0.407238 -0.769321 -2.431716 0
M  V30 9 C -0.429602 0.082514 -3.119756 0
M  V30 10 C -1.354275 0.868103 -2.372125 0
M  V30 11 N -1.415267 0.753068 -1.039804 0
M  V30 12 C -2.230757 1.430312 -0.229415 0
M  V30 13 N -2.233726 1.243553 1.203849 0
M  V30 14 C -1.383496 0.326574 1.880271 0
M  V30 15 C -1.503635 0.360542 3.360981 0
M  V30 16 C -2.876543 0.065399 3.970371 0
M  V30 17 C -2.231639 1.423860 4.082634 0
M  V30 18 C -3.133647 2.364050 -0.742022 0
M  V30 19 C -3.136693 2.545321 -2.108672 0
M  V30 20 C -2.257621 1.793836 -2.818039 0
M  V30 21 Cl -2.362419 2.128666 -4.528091 0
M  V30 22 C -0.223437 0.016222 -4.467250 0
M  V30 23 C 0.657142 -0.742537 -5.196445 0
M  V30 24 N 1.459878 -1.567234 -4.458333 0
M  V30 25 C 1.332424 -1.575166 -3.109227 0
M  V30 26 N 2.046375 -2.324504 -2.262139 0
M  V30 27 C 1.044469 -3.391997 0.958228 0
M  V30 28 C 1.356959 -3.758939 2.374638 0
M  V30 29 H 2.654782 -3.044717 5.113654 0
M  V30 30 H 1.589073 -1.664971 4.784112 0
M  V30 31 H 0.960915 -3.339249 4.682464 0
M  V30 32 H 1.162724 -1.093303 2.365534 0
M  V30 33 H 2.797880 -0.823380 3.037471 0
M  V30 34 H 2.874824 -0.668094 0.541685 0
M  V30 35 H 3.920517 -1.908304 1.303980 0
M  V30 36 H 2.961362 -3.407934 -0.068310 0
M  V30 37 H 0.162235 -0.737570 -0.270175 0
M  V30 38 H -2.906999 1.812773 1.751623 0
M  V30 39 H -0.315912 0.632997 1.631051 0
M  V30 40 H -1.455263 -0.714364 1.472427 0
M  V30 41 H -0.630096 -0.065192 3.965365 0
M  V30 42 H -2.956806 -0.593291 4.835113 0
M  V30 43 H -3.675777 -0.049813 3.230101 0
M  V30 44 H -2.697814 2.280010 3.576395 0
M  V30 45 H -1.908477 1.714518 5.120440 0
M  V30 46 H -3.798792 2.917498 -0.089295 0
M  V30 47 H -3.832038 3.259001 -2.465566 0
M  V30 48 H -0.815284 0.629250 -5.109993 0
M  V30 49 H 0.743059 -0.722324 -6.263272 0
M  V30 50 H 2.804820 -3.015652 -2.491321 0
M  V30 51 H 0.855186 -4.331671 0.398921 0
M  V30 52 H 0.107844 -2.799563 0.908852 0
M  V30 53 H 0.402308 -3.860961 2.925074 0
M  V30 54 H 1.873709 -4.734607 2.432049 0
M  V30 END ATOM
M  V30 BEGIN BOND
M  V30 1 1 1 2
M  V30 2 1 2 3
M  V30 3 1 3 4
M  V30 4 1 4 5
M  V30 5 1 5 6
M  V30 6 2 6 7
M  V30 7 1 7 8
M  V30 8 2 8 9
M  V30 9 1 9 10
M  V30 10 2 10 11
M  V30 11 1 11 12
M  V30 12 1 12 13
M  V30 13 1 13 14
M  V30 14 1 14 15
M  V30 15 1 15 16
M  V30 16 1 16 17
M  V30 17 2 12 18
M  V30 18 1 18 19
M  V30 19 2 19 20
M  V30 20 1 20 21
M  V30 21 1 9 22
M  V30 22 2 22 23
M  V30 23 1 23 24
M  V30 24 2 24 25
M  V30 25 1 25 26
M  V30 26 1 5 27
M  V30 27 1 27 28
M  V30 28 1 28 2
M  V30 29 1 26 6
M  V30 30 1 25 8
M  V30 31 1 20 10
M  V30 32 1 17 15
M  V30 33 1 1 29
M  V30 34 1 1 30
M  V30 35 1 1 31
M  V30 36 1 3 32
M  V30 37 1 3 33
M  V30 38 1 4 34
M  V30 39 1 4 35
M  V30 40 1 5 36
M  V30 41 1 7 37
M  V30 42 1 13 38
M  V30 43 1 14 39
M  V30 44 1 14 40
M  V30 45 1 15 41
M  V30 46 1 16 42
M  V30 47 1 16 43
M  V30 48 1 17 44
M  V30 49 1 17 45
M  V30 50 1 18 46
M  V30 51 1 19 47
M  V30 52 1 22 48
M  V30 53 1 23 49
M  V30 54 1 26 50
M  V30 55 1 27 51
M  V30 56 1 27 52
M  V30 57 1 28 53
M  V30 58 1 28 54
M  V30 END BOND
M  V30 END CTAB
M  END
>  <Dataset>  (252) 
ChEMBL_Kinases

>  <Ligand_Instance>  (252) 
nan

>  <PDB_ID>  (252) 
nan

>  <Standardized_SMILES>  (252) 
CN1CCC(c2cc3c(-c4nc(NCC5CC5)ccc4Cl)ccnc3[nH]2)CC1

>  <Name>  (252) 
nan

>  <Pocket>  (252) 
nan

>  <ATP_Site>  (252) 
nan

>  <Peripheral>  (252) 
nan

>  <Num_H_Atoms_ProtBoundConf>  (252) 
nan

>  <Num_Resolved_Atoms>  (252) 
nan

>  <Num_Not_Resolved_Atoms>  (252) 
nan

$$$$
CHEMBL3668422
     RDKit          3D

  0  0  0  0  0  0  0  0  0  0999 V3000
M  V30 BEGIN CTAB
M  V30 COUNTS 61 65 0 0 0
M  V30 BEGIN ATOM
M  V30 1 C 1.291744 -2.926964 6.433649 0
M  V30 2 N 1.878565 -3.046516 5.105699 0
M  V30 3 C 3.192995 -3.618458 5.264215 0
M  V30 4 C 4.055165 -3.537655 4.024857 0
M  V30 5 C 3.946662 -2.245737 3.306123 0
M  V30 6 C 3.182140 -2.259592 2.057182 0
M  V30 7 C 2.551399 -1.214980 1.429620 0
M  V30 8 C 1.960324 -1.670106 0.282362 0
M  V30 9 C 1.213841 -0.990303 -0.637532 0
M  V30 10 C 0.832212 0.403382 -0.661677 0
M  V30 11 C 1.386764 1.516970 -0.102412 0
M  V30 12 C 0.912614 2.790790 -0.267533 0
M  V30 13 C -0.194317 3.020129 -1.040514 0
M  V30 14 C -0.772981 1.904656 -1.619003 0
M  V30 15 N -1.936319 2.000918 -2.460061 0
M  V30 16 C -3.116632 2.099064 -1.643449 0
M  V30 17 C -4.405222 2.164884 -2.435517 0
M  V30 18 N -4.651426 1.003811 -3.249538 0
M  V30 19 C -5.412411 -0.075079 -2.597141 0
M  V30 20 C -5.594859 -1.144879 -3.638799 0
M  V30 21 C -4.451426 -0.880409 -4.592119 0
M  V30 22 C -4.349052 0.597900 -4.575009 0
M  V30 23 O -4.074649 1.507392 -5.413228 0
M  V30 24 N -0.243691 0.691996 -1.404159 0
M  V30 25 C 0.744319 -1.802665 -1.674083 0
M  V30 26 C 1.019506 -3.145888 -1.743646 0
M  V30 27 N 1.770396 -3.738561 -0.787943 0
M  V30 28 C 2.257713 -3.001247 0.253025 0
M  V30 29 N 2.993663 -3.343956 1.325529 0
M  V30 30 C 3.244737 -1.260195 4.260181 0
M  V30 31 C 1.849970 -1.768088 4.452465 0
M  V30 32 H 0.717466 -3.850659 6.691044 0
M  V30 33 H 2.042510 -2.680360 7.210693 0
M  V30 34 H 0.547186 -2.089971 6.496706 0
M  V30 35 H 3.062829 -4.693542 5.503942 0
M  V30 36 H 3.733146 -3.177913 6.155966 0
M  V30 37 H 5.112589 -3.640503 4.387272 0
M  V30 38 H 3.860857 -4.441176 3.407455 0
M  V30 39 H 4.933589 -1.742560 3.093372 0
M  V30 40 H 2.570797 -0.238428 1.867444 0
M  V30 41 H 2.263850 1.385991 0.480399 0
M  V30 42 H 1.430856 3.616622 0.227381 0
M  V30 43 H -0.614855 3.992117 -1.210940 0
M  V30 44 H -2.103826 2.015457 -3.488084 0
M  V30 45 H -3.060516 2.993756 -0.992785 0
M  V30 46 H -3.123554 1.232809 -0.944820 0
M  V30 47 H -5.215702 2.417069 -1.730235 0
M  V30 48 H -4.357556 3.074987 -3.115973 0
M  V30 49 H -6.437118 0.318849 -2.320170 0
M  V30 50 H -4.904098 -0.447865 -1.710875 0
M  V30 51 H -6.547884 -1.017509 -4.203567 0
M  V30 52 H -5.484857 -2.171372 -3.225762 0
M  V30 53 H -4.752755 -1.262378 -5.586883 0
M  V30 54 H -3.527146 -1.376095 -4.192716 0
M  V30 55 H 0.128671 -1.401502 -2.491496 0
M  V30 56 H 0.630168 -3.738707 -2.578340 0
M  V30 57 H 3.307798 -4.320038 1.457339 0
M  V30 58 H 3.270137 -0.225693 3.872512 0
M  V30 59 H 3.839186 -1.298897 5.213631 0
M  V30 60 H 1.352182 -1.850001 3.464592 0
M  V30 61 H 1.216494 -1.073716 5.046782 0
M  V30 END ATOM
M  V30 BEGIN BOND
M  V30 1 1 1 2
M  V30 2 1 2 3
M  V30 3 1 3 4
M  V30 4 1 4 5
M  V30 5 1 5 6
M  V30 6 2 6 7
M  V30 7 1 7 8
M  V30 8 2 8 9
M  V30 9 1 9 10
M  V30 10 2 10 11
M  V30 11 1 11 12
M  V30 12 2 12 13
M  V30 13 1 13 14
M  V30 14 1 14 15
M  V30 15 1 15 16
M  V30 16 1 16 17
M  V30 17 1 17 18
M  V30 18 1 18 19
M  V30 19 1 19 20
M  V30 20 1 20 21
M  V30 21 1 21 22
M  V30 22 2 22 23
M  V30 23 2 14 24
M  V30 24 1 9 25
M  V30 25 2 25 26
M  V30 26 1 26 27
M  V30 27 2 27 28
M  V30 28 1 28 29
M  V30 29 1 5 30
M  V30 30 1 30 31
M  V30 31 1 31 2
M  V30 32 1 29 6
M  V30 33 1 28 8
M  V30 34 1 24 10
M  V30 35 1 22 18
M  V30 36 1 1 32
M  V30 37 1 1 33
M  V30 38 1 1 34
M  V30 39 1 3 35
M  V30 40 1 3 36
M  V30 41 1 4 37
M  V30 42 1 4 38
M  V30 43 1 5 39
M  V30 44 1 7 40
M  V30 45 1 11 41
M  V30 46 1 12 42
M  V30 47 1 13 43
M  V30 48 1 15 44
M  V30 49 1 16 45
M  V30 50 1 16 46
M  V30 51 1 17 47
M  V30 52 1 17 48
M  V30 53 1 19 49
M  V30 54 1 19 50
M  V30 55 1 20 51
M  V30 56 1 20 52
M  V30 57 1 21 53
M  V30 58 1 21 54
M  V30 59 1 25 55
M  V30 60 1 26 56
M  V30 61 1 29 57
M  V30 62 1 30 58
M  V30 63 1 30 59
M  V30 64 1 31 60
M  V30 65 1 31 61
M  V30 END BOND
M  V30 END CTAB
M  END
>  <Dataset>  (253) 
ChEMBL_Kinases

>  <Ligand_Instance>  (253) 
nan

>  <PDB_ID>  (253) 
nan

>  <Standardized_SMILES>  (253) 
CN1CCC(c2cc3c(-c4cccc(NCCN5CCCC5=O)n4)ccnc3[nH]2)CC1

>  <Name>  (253) 
nan

>  <Pocket>  (253) 
nan

>  <ATP_Site>  (253) 
nan

>  <Peripheral>  (253) 
nan

>  <Num_H_Atoms_ProtBoundConf>  (253) 
nan

>  <Num_Resolved_Atoms>  (253) 
nan

>  <Num_Not_Resolved_Atoms>  (253) 
nan

$$$$
CHEMBL3668421
     RDKit          3D

  0  0  0  0  0  0  0  0  0  0999 V3000
M  V30 BEGIN CTAB
M  V30 COUNTS 60 64 0 0 0
M  V30 BEGIN ATOM
M  V30 1 C -0.911228 -3.072430 4.461455 0
M  V30 2 N -0.014385 -4.109616 4.067158 0
M  V30 3 C 1.369986 -3.722048 4.034835 0
M  V30 4 C 1.686233 -2.682938 3.008352 0
M  V30 5 C 0.616787 -2.444214 1.995802 0
M  V30 6 C 1.234353 -2.153859 0.659256 0
M  V30 7 C 1.206577 -1.055554 -0.172782 0
M  V30 8 C 1.975450 -1.354851 -1.277786 0
M  V30 9 C 2.271511 -0.592866 -2.388332 0
M  V30 10 C 1.785833 0.764680 -2.582656 0
M  V30 11 C 2.275986 1.492405 -3.646757 0
M  V30 12 C 1.906161 2.793167 -3.914458 0
M  V30 13 C 0.997289 3.404815 -3.076966 0
M  V30 14 C 0.491114 2.675028 -1.992060 0
M  V30 15 N -0.441415 3.297077 -1.119384 0
M  V30 16 C -1.151536 2.677248 -0.013323 0
M  V30 17 C -2.030288 1.600048 -0.633228 0
M  V30 18 C -2.840650 0.878134 0.377648 0
M  V30 19 C -2.568054 -0.260962 1.095797 0
M  V30 20 C -3.479349 -0.740679 1.984977 0
M  V30 21 C -4.699392 -0.157087 2.234832 0
M  V30 22 C -4.986654 0.982750 1.524341 0
M  V30 23 C -4.079940 1.486438 0.619324 0
M  V30 24 N 0.902992 1.392765 -1.789468 0
M  V30 25 C 3.090467 -1.225679 -3.295719 0
M  V30 26 C 3.571957 -2.503663 -3.114075 0
M  V30 27 N 3.240434 -3.186883 -2.005037 0
M  V30 28 C 2.437860 -2.627290 -1.067336 0
M  V30 29 N 2.001255 -3.131958 0.100438 0
M  V30 30 C -0.399453 -3.502382 1.813672 0
M  V30 31 C -0.354791 -4.647313 2.767701 0
M  V30 32 H -1.802352 -3.062209 3.836065 0
M  V30 33 H -1.281216 -3.327742 5.495294 0
M  V30 34 H -0.392477 -2.099955 4.582072 0
M  V30 35 H 1.941988 -4.672339 3.866419 0
M  V30 36 H 1.645320 -3.385968 5.056688 0
M  V30 37 H 2.591003 -3.024606 2.463727 0
M  V30 38 H 1.981113 -1.746885 3.530782 0
M  V30 39 H 0.080341 -1.513136 2.305581 0
M  V30 40 H 0.662393 -0.159398 0.060884 0
M  V30 41 H 2.989099 1.161207 -4.386910 0
M  V30 42 H 2.241650 3.415448 -4.713727 0
M  V30 43 H 0.659167 4.441755 -3.233004 0
M  V30 44 H -0.642608 4.314304 -1.286317 0
M  V30 45 H -1.832451 3.408658 0.456027 0
M  V30 46 H -0.476998 2.256362 0.733423 0
M  V30 47 H -1.385897 0.812667 -1.124070 0
M  V30 48 H -2.668296 1.991365 -1.429259 0
M  V30 49 H -1.600476 -0.666081 0.849935 0
M  V30 50 H -3.221862 -1.636195 2.525111 0
M  V30 51 H -5.402145 -0.559214 2.945123 0
M  V30 52 H -5.947305 1.447184 1.716869 0
M  V30 53 H -4.418493 2.387168 0.121575 0
M  V30 54 H 3.411675 -0.765944 -4.213870 0
M  V30 55 H 4.214434 -2.991318 -3.833375 0
M  V30 56 H 2.242742 -4.089442 0.443772 0
M  V30 57 H -1.451338 -3.089894 1.833811 0
M  V30 58 H -0.334085 -3.958234 0.779463 0
M  V30 59 H -1.356477 -5.121203 2.812605 0
M  V30 60 H 0.405116 -5.383600 2.413955 0
M  V30 END ATOM
M  V30 BEGIN BOND
M  V30 1 1 1 2
M  V30 2 1 2 3
M  V30 3 1 3 4
M  V30 4 1 4 5
M  V30 5 1 5 6
M  V30 6 2 6 7
M  V30 7 1 7 8
M  V30 8 2 8 9
M  V30 9 1 9 10
M  V30 10 2 10 11
M  V30 11 1 11 12
M  V30 12 2 12 13
M  V30 13 1 13 14
M  V30 14 1 14 15
M  V30 15 1 15 16
M  V30 16 1 16 17
M  V30 17 1 17 18
M  V30 18 2 18 19
M  V30 19 1 19 20
M  V30 20 2 20 21
M  V30 21 1 21 22
M  V30 22 2 22 23
M  V30 23 2 14 24
M  V30 24 1 9 25
M  V30 25 2 25 26
M  V30 26 1 26 27
M  V30 27 2 27 28
M  V30 28 1 28 29
M  V30 29 1 5 30
M  V30 30 1 30 31
M  V30 31 1 31 2
M  V30 32 1 29 6
M  V30 33 1 28 8
M  V30 34 1 24 10
M  V30 35 1 23 18
M  V30 36 1 1 32
M  V30 37 1 1 33
M  V30 38 1 1 34
M  V30 39 1 3 35
M  V30 40 1 3 36
M  V30 41 1 4 37
M  V30 42 1 4 38
M  V30 43 1 5 39
M  V30 44 1 7 40
M  V30 45 1 11 41
M  V30 46 1 12 42
M  V30 47 1 13 43
M  V30 48 1 15 44
M  V30 49 1 16 45
M  V30 50 1 16 46
M  V30 51 1 17 47
M  V30 52 1 17 48
M  V30 53 1 19 49
M  V30 54 1 20 50
M  V30 55 1 21 51
M  V30 56 1 22 52
M  V30 57 1 23 53
M  V30 58 1 25 54
M  V30 59 1 26 55
M  V30 60 1 29 56
M  V30 61 1 30 57
M  V30 62 1 30 58
M  V30 63 1 31 59
M  V30 64 1 31 60
M  V30 END BOND
M  V30 END CTAB
M  END
>  <Dataset>  (254) 
ChEMBL_Kinases

>  <Ligand_Instance>  (254) 
nan

>  <PDB_ID>  (254) 
nan

>  <Standardized_SMILES>  (254) 
CN1CCC(c2cc3c(-c4cccc(NCCc5ccccc5)n4)ccnc3[nH]2)CC1

>  <Name>  (254) 
nan

>  <Pocket>  (254) 
nan

>  <ATP_Site>  (254) 
nan

>  <Peripheral>  (254) 
nan

>  <Num_H_Atoms_ProtBoundConf>  (254) 
nan

>  <Num_Resolved_Atoms>  (254) 
nan

>  <Num_Not_Resolved_Atoms>  (254) 
nan

$$$$
CHEMBL3668420
     RDKit          3D

  0  0  0  0  0  0  0  0  0  0999 V3000
M  V30 BEGIN CTAB
M  V30 COUNTS 55 58 0 0 0
M  V30 BEGIN ATOM
M  V30 1 C 3.537665 -0.316756 4.387063 0
M  V30 2 O 3.404754 0.298810 3.130462 0
M  V30 3 C 3.923185 -0.215265 1.957446 0
M  V30 4 C 4.628960 -1.403576 1.934021 0
M  V30 5 C 5.148566 -1.913686 0.742054 0
M  V30 6 C 4.956346 -1.220635 -0.441172 0
M  V30 7 F 5.422210 -1.635041 -1.648116 0
M  V30 8 C 4.243352 -0.020754 -0.415443 0
M  V30 9 C 3.732044 0.477469 0.769394 0
M  V30 10 C 2.980948 1.731517 0.829496 0
M  V30 11 C 3.580712 2.955953 1.039413 0
M  V30 12 C 2.804423 4.102461 1.083375 0
M  V30 13 N 1.470076 4.041680 0.924151 0
M  V30 14 C 0.836484 2.880464 0.717683 0
M  V30 15 N -0.455489 2.484754 0.524722 0
M  V30 16 C -0.537805 1.151418 0.361379 0
M  V30 17 C -1.853744 0.513814 0.136645 0
M  V30 18 C -2.166056 -0.470693 1.248363 0
M  V30 19 C -1.869604 -1.872798 0.795514 0
M  V30 20 N -2.793148 -2.334197 -0.253831 0
M  V30 21 C -4.046981 -2.742802 0.299565 0
M  V30 22 C -5.044516 -3.288778 -0.661453 0
M  V30 23 O -5.376530 -2.366864 -1.648046 0
M  V30 24 C -4.628927 -4.587892 -1.297291 0
M  V30 25 O -3.531267 -4.408093 -2.117876 0
M  V30 26 C -2.903362 -1.283546 -1.245269 0
M  V30 27 C -1.782917 -0.264760 -1.160535 0
M  V30 28 C 0.744817 0.659289 0.450686 0
M  V30 29 C 1.603120 1.717517 0.670694 0
M  V30 30 H 4.427395 -0.006816 4.961235 0
M  V30 31 H 2.649714 0.016390 4.991811 0
M  V30 32 H 3.483617 -1.422772 4.334617 0
M  V30 33 H 4.785102 -1.954460 2.856653 0
M  V30 34 H 5.701275 -2.831615 0.682174 0
M  V30 35 H 4.092808 0.522673 -1.343965 0
M  V30 36 H 4.649027 2.973194 1.163177 0
M  V30 37 H 3.333304 5.035140 1.251404 0
M  V30 38 H -1.182218 3.234215 0.528492 0
M  V30 39 H -2.627668 1.287917 0.100140 0
M  V30 40 H -1.551874 -0.281716 2.136129 0
M  V30 41 H -3.225921 -0.417647 1.536525 0
M  V30 42 H -0.852858 -1.948207 0.408240 0
M  V30 43 H -1.994192 -2.555771 1.672502 0
M  V30 44 H -4.494198 -1.843699 0.782988 0
M  V30 45 H -3.861570 -3.453436 1.124733 0
M  V30 46 H -5.978705 -3.499195 -0.072745 0
M  V30 47 H -6.119962 -1.765710 -1.385242 0
M  V30 48 H -4.407793 -5.313493 -0.470891 0
M  V30 49 H -5.451323 -4.998532 -1.890783 0
M  V30 50 H -2.917603 -5.191861 -2.085725 0
M  V30 51 H -2.871279 -1.754505 -2.243787 0
M  V30 52 H -3.844909 -0.714658 -1.143148 0
M  V30 53 H -1.960560 0.448150 -1.988008 0
M  V30 54 H -0.829405 -0.780318 -1.266711 0
M  V30 55 H 0.967562 -0.393212 0.354341 0
M  V30 END ATOM
M  V30 BEGIN BOND
M  V30 1 1 1 2
M  V30 2 1 2 3
M  V30 3 2 3 4
M  V30 4 1 4 5
M  V30 5 2 5 6
M  V30 6 1 6 7
M  V30 7 1 6 8
M  V30 8 2 8 9
M  V30 9 1 9 10
M  V30 10 2 10 11
M  V30 11 1 11 12
M  V30 12 2 12 13
M  V30 13 1 13 14
M  V30 14 1 14 15
M  V30 15 1 15 16
M  V30 16 1 16 17
M  V30 17 1 17 18
M  V30 18 1 18 19
M  V30 19 1 19 20
M  V30 20 1 20 21
M  V30 21 1 21 22
M  V30 22 1 22 23
M  V30 23 1 22 24
M  V30 24 1 24 25
M  V30 25 1 20 26
M  V30 26 1 26 27
M  V30 27 2 16 28
M  V30 28 1 28 29
M  V30 29 1 9 3
M  V30 30 1 29 10
M  V30 31 2 29 14
M  V30 32 1 27 17
M  V30 33 1 1 30
M  V30 34 1 1 31
M  V30 35 1 1 32
M  V30 36 1 4 33
M  V30 37 1 5 34
M  V30 38 1 8 35
M  V30 39 1 11 36
M  V30 40 1 12 37
M  V30 41 1 15 38
M  V30 42 1 17 39
M  V30 43 1 18 40
M  V30 44 1 18 41
M  V30 45 1 19 42
M  V30 46 1 19 43
M  V30 47 1 21 44
M  V30 48 1 21 45
M  V30 49 1 22 46
M  V30 50 1 23 47
M  V30 51 1 24 48
M  V30 52 1 24 49
M  V30 53 1 25 50
M  V30 54 1 26 51
M  V30 55 1 26 52
M  V30 56 1 27 53
M  V30 57 1 27 54
M  V30 58 1 28 55
M  V30 END BOND
M  V30 END CTAB
M  END
>  <Dataset>  (255) 
ChEMBL_Kinases

>  <Ligand_Instance>  (255) 
nan

>  <PDB_ID>  (255) 
nan

>  <Standardized_SMILES>  (255) 
COc1ccc(F)cc1-c1ccnc2[nH]c(C3CCN(CC(O)CO)CC3)cc12

>  <Name>  (255) 
nan

>  <Pocket>  (255) 
nan

>  <ATP_Site>  (255) 
nan

>  <Peripheral>  (255) 
nan

>  <Num_H_Atoms_ProtBoundConf>  (255) 
nan

>  <Num_Resolved_Atoms>  (255) 
nan

>  <Num_Not_Resolved_Atoms>  (255) 
nan

$$$$
CHEMBL3668419
     RDKit          3D

  0  0  0  0  0  0  0  0  0  0999 V3000
M  V30 BEGIN CTAB
M  V30 COUNTS 65 69 0 0 0
M  V30 BEGIN ATOM
M  V30 1 C 3.292446 -0.827018 5.665532 0
M  V30 2 O 3.195011 -0.107311 4.454858 0
M  V30 3 C 3.491448 1.242978 4.443189 0
M  V30 4 C 3.880216 1.881714 5.611227 0
M  V30 5 C 4.190269 3.220426 5.673480 0
M  V30 6 C 4.100880 3.943857 4.493964 0
M  V30 7 F 4.392467 5.272355 4.482273 0
M  V30 8 C 3.720677 3.363643 3.305183 0
M  V30 9 C 3.410213 1.996716 3.269474 0
M  V30 10 C 2.989864 1.227394 2.089921 0
M  V30 11 C 4.027733 0.652806 1.384605 0
M  V30 12 C 3.670579 -0.085721 0.271229 0
M  V30 13 N 2.396432 -0.266823 -0.146713 0
M  V30 14 C 1.393359 0.295611 0.545098 0
M  V30 15 N 0.047840 0.341260 0.446074 0
M  V30 16 C -0.516676 1.067375 1.428328 0
M  V30 17 C -1.987975 1.292606 1.581344 0
M  V30 18 C -2.670372 0.051802 2.032254 0
M  V30 19 C -3.595614 -0.578604 1.040243 0
M  V30 20 N -3.285481 -0.279658 -0.316097 0
M  V30 21 C -2.929784 -1.332509 -1.190162 0
M  V30 22 O -2.938135 -2.450204 -0.577522 0
M  V30 23 C -2.554486 -1.466525 -2.618676 0
M  V30 24 N -2.282527 -2.784673 -2.989131 0
M  V30 25 C -3.282727 -3.752798 -3.024294 0
M  V30 26 C -3.258613 -4.692432 -4.208849 0
M  V30 27 C -1.871453 -5.173871 -4.564388 0
M  V30 28 O -1.498004 -6.248119 -3.751788 0
M  V30 29 C -0.855638 -4.055903 -4.517632 0
M  V30 30 C -0.992558 -3.234763 -3.252446 0
M  V30 31 C -3.411100 1.151374 -0.508788 0
M  V30 32 C -2.499268 1.958687 0.371975 0
M  V30 33 C 0.540961 1.516982 2.209173 0
M  V30 34 C 1.711975 1.040264 1.662179 0
M  V30 35 H 4.332417 -0.848738 6.038026 0
M  V30 36 H 2.994865 -1.898604 5.506373 0
M  V30 37 H 2.679349 -0.369210 6.477087 0
M  V30 38 H 3.946814 1.303821 6.531994 0
M  V30 39 H 4.495815 3.746492 6.573234 0
M  V30 40 H 3.628725 3.860242 2.351120 0
M  V30 41 H 5.089494 0.704418 1.589462 0
M  V30 42 H 4.372739 -0.606085 -0.396086 0
M  V30 43 H -0.398584 -0.172701 -0.354455 0
M  V30 44 H -2.066298 2.003355 2.440838 0
M  V30 45 H -1.895168 -0.703447 2.280852 0
M  V30 46 H -3.268901 0.180763 2.962890 0
M  V30 47 H -4.655078 -0.235177 1.234708 0
M  V30 48 H -3.649708 -1.676470 1.171998 0
M  V30 49 H -3.370975 -0.966852 -3.189800 0
M  V30 50 H -1.620961 -0.842906 -2.744414 0
M  V30 51 H -4.292597 -3.254842 -3.073006 0
M  V30 52 H -3.272119 -4.352727 -2.087462 0
M  V30 53 H -3.818251 -4.286257 -5.073806 0
M  V30 54 H -3.834402 -5.595966 -3.879827 0
M  V30 55 H -1.899290 -5.559018 -5.603226 0
M  V30 56 H -0.490168 -6.208980 -3.733745 0
M  V30 57 H -0.905843 -3.433378 -5.430214 0
M  V30 58 H 0.148889 -4.520855 -4.495665 0
M  V30 59 H -0.296455 -2.353537 -3.374718 0
M  V30 60 H -0.603053 -3.824351 -2.394755 0
M  V30 61 H -4.474320 1.424090 -0.349098 0
M  V30 62 H -3.228030 1.322741 -1.600491 0
M  V30 63 H -3.076927 2.897935 0.623849 0
M  V30 64 H -1.689220 2.336621 -0.289540 0
M  V30 65 H 0.414220 2.140897 3.097548 0
M  V30 END ATOM
M  V30 BEGIN BOND
M  V30 1 1 1 2
M  V30 2 1 2 3
M  V30 3 2 3 4
M  V30 4 1 4 5
M  V30 5 2 5 6
M  V30 6 1 6 7
M  V30 7 1 6 8
M  V30 8 2 8 9
M  V30 9 1 9 10
M  V30 10 2 10 11
M  V30 11 1 11 12
M  V30 12 2 12 13
M  V30 13 1 13 14
M  V30 14 1 14 15
M  V30 15 1 15 16
M  V30 16 1 16 17
M  V30 17 1 17 18
M  V30 18 1 18 19
M  V30 19 1 19 20
M  V30 20 1 20 21
M  V30 21 2 21 22
M  V30 22 1 21 23
M  V30 23 1 23 24
M  V30 24 1 24 25
M  V30 25 1 25 26
M  V30 26 1 26 27
M  V30 27 1 27 28
M  V30 28 1 27 29
M  V30 29 1 29 30
M  V30 30 1 20 31
M  V30 31 1 31 32
M  V30 32 2 16 33
M  V30 33 1 33 34
M  V30 34 1 9 3
M  V30 35 1 34 10
M  V30 36 2 34 14
M  V30 37 1 32 17
M  V30 38 1 30 24
M  V30 39 1 1 35
M  V30 40 1 1 36
M  V30 41 1 1 37
M  V30 42 1 4 38
M  V30 43 1 5 39
M  V30 44 1 8 40
M  V30 45 1 11 41
M  V30 46 1 12 42
M  V30 47 1 15 43
M  V30 48 1 17 44
M  V30 49 1 18 45
M  V30 50 1 18 46
M  V30 51 1 19 47
M  V30 52 1 19 48
M  V30 53 1 23 49
M  V30 54 1 23 50
M  V30 55 1 25 51
M  V30 56 1 25 52
M  V30 57 1 26 53
M  V30 58 1 26 54
M  V30 59 1 27 55
M  V30 60 1 28 56
M  V30 61 1 29 57
M  V30 62 1 29 58
M  V30 63 1 30 59
M  V30 64 1 30 60
M  V30 65 1 31 61
M  V30 66 1 31 62
M  V30 67 1 32 63
M  V30 68 1 32 64
M  V30 69 1 33 65
M  V30 END BOND
M  V30 END CTAB
M  END
>  <Dataset>  (256) 
ChEMBL_Kinases

>  <Ligand_Instance>  (256) 
nan

>  <PDB_ID>  (256) 
nan

>  <Standardized_SMILES>  (256) 
COc1ccc(F)cc1-c1ccnc2[nH]c(C3CCN(C(=O)CN4CCC(O)CC4)CC3)cc12

>  <Name>  (256) 
nan

>  <Pocket>  (256) 
nan

>  <ATP_Site>  (256) 
nan

>  <Peripheral>  (256) 
nan

>  <Num_H_Atoms_ProtBoundConf>  (256) 
nan

>  <Num_Resolved_Atoms>  (256) 
nan

>  <Num_Not_Resolved_Atoms>  (256) 
nan

$$$$
CHEMBL3668418
     RDKit          3D

  0  0  0  0  0  0  0  0  0  0999 V3000
M  V30 BEGIN CTAB
M  V30 COUNTS 38 41 0 0 0
M  V30 BEGIN ATOM
M  V30 1 C 1.325103 -2.894575 -2.274190 0
M  V30 2 O 1.493656 -1.788304 -1.390966 0
M  V30 3 C 1.878755 -2.110803 -0.096608 0
M  V30 4 C 2.113345 -3.371005 0.421789 0
M  V30 5 C 2.490848 -3.554940 1.724175 0
M  V30 6 C 2.653897 -2.487631 2.577862 0
M  V30 7 F 3.032656 -2.722247 3.871889 0
M  V30 8 C 2.426042 -1.217709 2.086005 0
M  V30 9 C 2.041594 -1.027145 0.760476 0
M  V30 10 C 1.850706 0.386019 0.437057 0
M  V30 11 C 2.826902 1.244522 -0.044487 0
M  V30 12 C 2.534914 2.565124 -0.317050 0
M  V30 13 N 1.293103 3.070355 -0.126344 0
M  V30 14 C 0.321300 2.263281 0.340468 0
M  V30 15 N -0.969178 2.499937 0.614810 0
M  V30 16 C -1.586593 1.391982 1.068586 0
M  V30 17 C -2.967406 1.117698 1.501444 0
M  V30 18 C -3.509005 -0.054470 0.671330 0
M  V30 19 N -3.048901 -0.946990 1.716095 0
M  V30 20 C -3.141916 0.175639 2.644291 0
M  V30 21 C -0.631407 0.408221 1.079078 0
M  V30 22 C 0.574566 0.922032 0.628592 0
M  V30 23 H 0.825301 -2.585300 -3.209546 0
M  V30 24 H 2.278253 -3.378735 -2.537412 0
M  V30 25 H 0.690596 -3.686131 -1.803976 0
M  V30 26 H 1.974425 -4.182874 -0.280772 0
M  V30 27 H 2.655246 -4.583352 2.050563 0
M  V30 28 H 2.572126 -0.426693 2.808929 0
M  V30 29 H 3.822408 0.807032 -0.188786 0
M  V30 30 H 3.374841 3.148124 -0.690264 0
M  V30 31 H -1.476043 3.412762 0.506031 0
M  V30 32 H -3.648064 1.992379 1.448097 0
M  V30 33 H -3.006341 -0.160999 -0.313397 0
M  V30 34 H -4.631138 -0.094753 0.646047 0
M  V30 35 H -3.706776 -1.744595 1.927499 0
M  V30 36 H -2.361994 0.200848 3.422339 0
M  V30 37 H -4.184209 0.223318 3.029233 0
M  V30 38 H -0.706892 -0.631155 1.373293 0
M  V30 END ATOM
M  V30 BEGIN BOND
M  V30 1 1 1 2
M  V30 2 1 2 3
M  V30 3 2 3 4
M  V30 4 1 4 5
M  V30 5 2 5 6
M  V30 6 1 6 7
M  V30 7 1 6 8
M  V30 8 2 8 9
M  V30 9 1 9 10
M  V30 10 2 10 11
M  V30 11 1 11 12
M  V30 12 2 12 13
M  V30 13 1 13 14
M  V30 14 1 14 15
M  V30 15 1 15 16
M  V30 16 1 16 17
M  V30 17 1 17 18
M  V30 18 1 18 19
M  V30 19 1 19 20
M  V30 20 2 16 21
M  V30 21 1 21 22
M  V30 22 1 9 3
M  V30 23 1 22 10
M  V30 24 2 22 14
M  V30 25 1 20 17
M  V30 26 1 1 23
M  V30 27 1 1 24
M  V30 28 1 1 25
M  V30 29 1 4 26
M  V30 30 1 5 27
M  V30 31 1 8 28
M  V30 32 1 11 29
M  V30 33 1 12 30
M  V30 34 1 15 31
M  V30 35 1 17 32
M  V30 36 1 18 33
M  V30 37 1 18 34
M  V30 38 1 19 35
M  V30 39 1 20 36
M  V30 40 1 20 37
M  V30 41 1 21 38
M  V30 END BOND
M  V30 END CTAB
M  END
>  <Dataset>  (257) 
ChEMBL_Kinases

>  <Ligand_Instance>  (257) 
nan

>  <PDB_ID>  (257) 
nan

>  <Standardized_SMILES>  (257) 
COc1ccc(F)cc1-c1ccnc2[nH]c(C3CNC3)cc12

>  <Name>  (257) 
nan

>  <Pocket>  (257) 
nan

>  <ATP_Site>  (257) 
nan

>  <Peripheral>  (257) 
nan

>  <Num_H_Atoms_ProtBoundConf>  (257) 
nan

>  <Num_Resolved_Atoms>  (257) 
nan

>  <Num_Not_Resolved_Atoms>  (257) 
nan

$$$$
CHEMBL3668417
     RDKit          3D

  0  0  0  0  0  0  0  0  0  0999 V3000
M  V30 BEGIN CTAB
M  V30 COUNTS 60 64 0 0 0
M  V30 BEGIN ATOM
M  V30 1 C 1.818367 4.678233 4.434395 0
M  V30 2 O 2.378563 3.791024 3.505027 0
M  V30 3 C 3.347785 2.852156 3.753073 0
M  V30 4 C 3.973147 2.579818 4.953360 0
M  V30 5 C 4.941831 1.601022 5.076144 0
M  V30 6 C 5.319325 0.849577 3.970378 0
M  V30 7 F 6.272714 -0.103308 4.121629 0
M  V30 8 C 4.699456 1.115205 2.767295 0
M  V30 9 C 3.720507 2.101973 2.635580 0
M  V30 10 C 3.209465 2.202641 1.273197 0
M  V30 11 C 3.800528 3.056420 0.343944 0
M  V30 12 C 3.267846 3.110530 -0.942898 0
M  V30 13 N 2.217388 2.374068 -1.305916 0
M  V30 14 C 1.597459 1.522792 -0.445389 0
M  V30 15 N 0.550436 0.684560 -0.538328 0
M  V30 16 C 0.330647 0.047264 0.631980 0
M  V30 17 C -0.709133 -0.957923 0.981788 0 CFG=1
M  V30 18 C -2.103320 -0.384278 0.885985 0
M  V30 19 C -3.041465 -1.533155 0.485668 0
M  V30 20 C -2.785779 -1.946749 -0.948409 0 CFG=2
M  V30 21 N -3.664692 -3.061142 -1.213497 0
M  V30 22 C -3.593922 -3.601243 -2.529622 0
M  V30 23 C -4.566644 -4.753727 -2.634011 0
M  V30 24 C -4.638440 -5.463534 -3.966115 0
M  V30 25 C -4.121043 -6.156905 -2.763423 0
M  V30 26 C -2.700186 -6.553160 -2.752092 0
M  V30 27 O -1.688928 -5.928090 -3.221154 0
M  V30 28 O -2.175541 -7.718104 -2.212056 0
M  V30 29 C -1.339740 -2.271587 -1.085909 0
M  V30 30 C -0.542922 -2.211436 0.182759 0
M  V30 31 C 1.324376 0.551546 1.471303 0
M  V30 32 C 2.126850 1.470594 0.829625 0
M  V30 33 H 0.715099 4.679754 4.288416 0
M  V30 34 H 2.039153 4.398940 5.474743 0
M  V30 35 H 2.249309 5.690081 4.197919 0
M  V30 36 H 3.652148 3.185130 5.787821 0
M  V30 37 H 5.400979 1.431673 6.051720 0
M  V30 38 H 5.051573 0.485381 1.958983 0
M  V30 39 H 4.648454 3.622945 0.708060 0
M  V30 40 H 3.762159 3.790197 -1.631884 0
M  V30 41 H -0.006552 0.558514 -1.410931 0
M  V30 42 H -0.561206 -1.228291 2.061628 0
M  V30 43 H -2.480663 -0.026238 1.866476 0
M  V30 44 H -2.181252 0.473857 0.185091 0
M  V30 45 H -2.744807 -2.387239 1.129973 0
M  V30 46 H -4.099999 -1.248454 0.661910 0
M  V30 47 H -3.113594 -1.065941 -1.575832 0
M  V30 48 H -4.624155 -2.744199 -0.954327 0
M  V30 49 H -2.597257 -3.803064 -2.903124 0
M  V30 50 H -4.016567 -2.811400 -3.218693 0
M  V30 51 H -5.561446 -4.557275 -2.177854 0
M  V30 52 H -3.985225 -5.116576 -4.778451 0
M  V30 53 H -5.650531 -5.788648 -4.339288 0
M  V30 54 H -4.798654 -6.916073 -2.275031 0
M  V30 55 H -1.363324 -7.770102 -1.610892 0
M  V30 56 H -1.292279 -3.354731 -1.407689 0
M  V30 57 H -0.865234 -1.630733 -1.864630 0
M  V30 58 H -0.792930 -3.078561 0.845358 0
M  V30 59 H 0.519834 -2.316573 -0.053835 0
M  V30 60 H 1.428706 0.237579 2.504923 0
M  V30 END ATOM
M  V30 BEGIN BOND
M  V30 1 1 1 2
M  V30 2 1 2 3
M  V30 3 2 3 4
M  V30 4 1 4 5
M  V30 5 2 5 6
M  V30 6 1 6 7
M  V30 7 1 6 8
M  V30 8 2 8 9
M  V30 9 1 9 10
M  V30 10 2 10 11
M  V30 11 1 11 12
M  V30 12 2 12 13
M  V30 13 1 13 14
M  V30 14 1 14 15
M  V30 15 1 15 16
M  V30 16 1 16 17
M  V30 17 1 17 18
M  V30 18 1 18 19
M  V30 19 1 19 20
M  V30 20 1 20 21
M  V30 21 1 21 22
M  V30 22 1 22 23
M  V30 23 1 23 24
M  V30 24 1 24 25
M  V30 25 1 25 26
M  V30 26 2 26 27
M  V30 27 1 26 28
M  V30 28 1 20 29
M  V30 29 1 29 30
M  V30 30 2 16 31
M  V30 31 1 31 32
M  V30 32 1 9 3
M  V30 33 1 32 10
M  V30 34 2 32 14
M  V30 35 1 30 17
M  V30 36 1 25 23
M  V30 37 1 1 33
M  V30 38 1 1 34
M  V30 39 1 1 35
M  V30 40 1 4 36
M  V30 41 1 5 37
M  V30 42 1 8 38
M  V30 43 1 11 39
M  V30 44 1 12 40
M  V30 45 1 15 41
M  V30 46 1 17 42 CFG=1
M  V30 47 1 18 43
M  V30 48 1 18 44
M  V30 49 1 19 45
M  V30 50 1 19 46
M  V30 51 1 20 47 CFG=3
M  V30 52 1 21 48
M  V30 53 1 22 49
M  V30 54 1 22 50
M  V30 55 1 23 51
M  V30 56 1 24 52
M  V30 57 1 24 53
M  V30 58 1 25 54
M  V30 59 1 28 55
M  V30 60 1 29 56
M  V30 61 1 29 57
M  V30 62 1 30 58
M  V30 63 1 30 59
M  V30 64 1 31 60
M  V30 END BOND
M  V30 END CTAB
M  END
>  <Dataset>  (258) 
ChEMBL_Kinases

>  <Ligand_Instance>  (258) 
nan

>  <PDB_ID>  (258) 
nan

>  <Standardized_SMILES>  (258) 
COc1ccc(F)cc1-c1ccnc2[nH]c([C@H]3CC[C@H](NCC4CC4C(=O)O)CC3)cc12

>  <Name>  (258) 
nan

>  <Pocket>  (258) 
nan

>  <ATP_Site>  (258) 
nan

>  <Peripheral>  (258) 
nan

>  <Num_H_Atoms_ProtBoundConf>  (258) 
nan

>  <Num_Resolved_Atoms>  (258) 
nan

>  <Num_Not_Resolved_Atoms>  (258) 
nan

$$$$
CHEMBL3668416
     RDKit          3D

  0  0  0  0  0  0  0  0  0  0999 V3000
M  V30 BEGIN CTAB
M  V30 COUNTS 64 68 0 0 0
M  V30 BEGIN ATOM
M  V30 1 C -0.951028 1.830657 5.773874 0
M  V30 2 N -0.952669 0.849516 4.738898 0
M  V30 3 C -0.364461 -0.417502 5.084690 0
M  V30 4 C 0.697108 -0.873515 4.151630 0
M  V30 5 C 1.698171 0.159201 3.777724 0
M  V30 6 C 2.441808 -0.154658 2.535241 0
M  V30 7 C 1.959128 -0.247956 1.242627 0
M  V30 8 C 2.939111 -0.561299 0.326627 0
M  V30 9 C 2.987382 -0.764315 -1.035071 0
M  V30 10 C 1.767324 -0.648367 -1.830487 0
M  V30 11 C 1.774774 -0.855264 -3.192927 0
M  V30 12 C 0.651378 -0.758178 -3.985179 0
M  V30 13 C -0.563744 -0.438285 -3.416990 0
M  V30 14 C -0.553908 -0.233780 -2.048184 0
M  V30 15 N -1.674662 0.111088 -1.205109 0
M  V30 16 C -1.900296 1.556716 -1.208464 0
M  V30 17 C -2.678337 -0.450397 -0.329211 0
M  V30 18 C -2.650144 -1.920647 -0.143573 0
M  V30 19 N -2.830676 -2.717916 -1.308857 0
M  V30 20 C -4.123213 -3.155089 -1.807167 0
M  V30 21 C -3.953322 -2.881926 -3.298716 0
M  V30 22 C -2.604871 -3.550057 -3.552675 0
M  V30 23 C -1.907031 -3.274051 -2.249918 0
M  V30 24 O -0.681663 -3.474214 -1.942717 0
M  V30 25 N 0.558790 -0.340223 -1.331616 0
M  V30 26 C 4.225563 -1.070749 -1.557063 0
M  V30 27 C 5.360492 -1.172630 -0.779959 0
M  V30 28 N 5.285254 -0.969300 0.547446 0
M  V30 29 C 4.077176 -0.664474 1.098190 0
M  V30 30 N 3.765369 -0.423368 2.384735 0
M  V30 31 C 1.064232 1.527255 3.704133 0
M  V30 32 C -0.418454 1.315324 3.470501 0
M  V30 33 H -0.929805 2.827955 5.276873 0
M  V30 34 H -1.903876 1.825867 6.373167 0
M  V30 35 H -0.079845 1.795232 6.442493 0
M  V30 36 H 0.061068 -0.347472 6.108025 0
M  V30 37 H -1.180437 -1.157375 5.117132 0
M  V30 38 H 1.257552 -1.709308 4.660252 0
M  V30 39 H 0.228581 -1.309059 3.242260 0
M  V30 40 H 2.466886 0.188404 4.592764 0
M  V30 41 H 0.918416 -0.088665 0.995035 0
M  V30 42 H 2.662692 -1.109270 -3.739521 0
M  V30 43 H 0.630239 -0.915907 -5.056783 0
M  V30 44 H -1.519244 -0.323488 -3.874698 0
M  V30 45 H -1.916311 1.946692 -0.172501 0
M  V30 46 H -2.943085 1.697004 -1.608737 0
M  V30 47 H -1.256730 2.118443 -1.881228 0
M  V30 48 H -2.650406 0.023362 0.678402 0
M  V30 49 H -3.684650 -0.200778 -0.772587 0
M  V30 50 H -1.744302 -2.265207 0.442029 0
M  V30 51 H -3.492640 -2.164701 0.571641 0
M  V30 52 H -4.241735 -4.242044 -1.685845 0
M  V30 53 H -4.970616 -2.583925 -1.377338 0
M  V30 54 H -3.796301 -1.792326 -3.479816 0
M  V30 55 H -4.767140 -3.299932 -3.903281 0
M  V30 56 H -2.680436 -4.611720 -3.788047 0
M  V30 57 H -2.066306 -3.049099 -4.387355 0
M  V30 58 H 4.332657 -1.240340 -2.606489 0
M  V30 59 H 6.312300 -1.419540 -1.263297 0
M  V30 60 H 4.470246 -0.443808 3.173822 0
M  V30 61 H 1.261364 2.058189 4.651075 0
M  V30 62 H 1.518402 2.158408 2.912194 0
M  V30 63 H -0.587535 0.493599 2.759343 0
M  V30 64 H -0.943115 2.223833 3.122294 0
M  V30 END ATOM
M  V30 BEGIN BOND
M  V30 1 1 1 2
M  V30 2 1 2 3
M  V30 3 1 3 4
M  V30 4 1 4 5
M  V30 5 1 5 6
M  V30 6 2 6 7
M  V30 7 1 7 8
M  V30 8 2 8 9
M  V30 9 1 9 10
M  V30 10 2 10 11
M  V30 11 1 11 12
M  V30 12 2 12 13
M  V30 13 1 13 14
M  V30 14 1 14 15
M  V30 15 1 15 16
M  V30 16 1 15 17
M  V30 17 1 17 18
M  V30 18 1 18 19
M  V30 19 1 19 20
M  V30 20 1 20 21
M  V30 21 1 21 22
M  V30 22 1 22 23
M  V30 23 2 23 24
M  V30 24 2 14 25
M  V30 25 1 9 26
M  V30 26 2 26 27
M  V30 27 1 27 28
M  V30 28 2 28 29
M  V30 29 1 29 30
M  V30 30 1 5 31
M  V30 31 1 31 32
M  V30 32 1 32 2
M  V30 33 1 30 6
M  V30 34 1 29 8
M  V30 35 1 25 10
M  V30 36 1 23 19
M  V30 37 1 1 33
M  V30 38 1 1 34
M  V30 39 1 1 35
M  V30 40 1 3 36
M  V30 41 1 3 37
M  V30 42 1 4 38
M  V30 43 1 4 39
M  V30 44 1 5 40
M  V30 45 1 7 41
M  V30 46 1 11 42
M  V30 47 1 12 43
M  V30 48 1 13 44
M  V30 49 1 16 45
M  V30 50 1 16 46
M  V30 51 1 16 47
M  V30 52 1 17 48
M  V30 53 1 17 49
M  V30 54 1 18 50
M  V30 55 1 18 51
M  V30 56 1 20 52
M  V30 57 1 20 53
M  V30 58 1 21 54
M  V30 59 1 21 55
M  V30 60 1 22 56
M  V30 61 1 22 57
M  V30 62 1 26 58
M  V30 63 1 27 59
M  V30 64 1 30 60
M  V30 65 1 31 61
M  V30 66 1 31 62
M  V30 67 1 32 63
M  V30 68 1 32 64
M  V30 END BOND
M  V30 END CTAB
M  END
>  <Dataset>  (259) 
ChEMBL_Kinases

>  <Ligand_Instance>  (259) 
nan

>  <PDB_ID>  (259) 
nan

>  <Standardized_SMILES>  (259) 
CN1CCC(c2cc3c(-c4cccc(N(C)CCN5CCCC5=O)n4)ccnc3[nH]2)CC1

>  <Name>  (259) 
nan

>  <Pocket>  (259) 
nan

>  <ATP_Site>  (259) 
nan

>  <Peripheral>  (259) 
nan

>  <Num_H_Atoms_ProtBoundConf>  (259) 
nan

>  <Num_Resolved_Atoms>  (259) 
nan

>  <Num_Not_Resolved_Atoms>  (259) 
nan

$$$$
CHEMBL3668415
     RDKit          3D

  0  0  0  0  0  0  0  0  0  0999 V3000
M  V30 BEGIN CTAB
M  V30 COUNTS 58 62 0 0 0
M  V30 BEGIN ATOM
M  V30 1 O 1.949700 -1.844366 2.632727 0
M  V30 2 C 3.201836 -1.937636 2.812477 0
M  V30 3 C 3.938554 -3.219451 3.009880 0
M  V30 4 C 5.380968 -2.744440 2.861014 0
M  V30 5 C 5.283447 -1.366879 3.529745 0
M  V30 6 N 4.107437 -0.820964 2.853304 0
M  V30 7 C 3.828406 0.499407 2.318452 0
M  V30 8 C 3.180945 1.410255 3.302826 0
M  V30 9 N 2.927367 2.707670 2.696350 0
M  V30 10 C 2.156107 2.336772 1.539652 0
M  V30 11 C 2.810302 2.514166 0.348619 0
M  V30 12 C 2.129298 2.154211 -0.795959 0
M  V30 13 C 0.868600 1.657262 -0.612145 0
M  V30 14 C 0.175392 1.459345 0.537584 0
M  V30 15 C -1.138000 0.973244 0.859994 0
M  V30 16 C -1.657163 1.269535 2.124276 0
M  V30 17 C -2.880545 0.826728 2.531268 0
M  V30 18 N -3.632918 0.080254 1.714628 0
M  V30 19 C -3.215917 -0.256511 0.482153 0
M  V30 20 N -3.754092 -0.993886 -0.498239 0
M  V30 21 C -2.907535 -1.047013 -1.544112 0
M  V30 22 C -3.126136 -1.785159 -2.835415 0
M  V30 23 C -2.779903 -3.229881 -2.661193 0
M  V30 24 C -3.895308 -4.152477 -2.352798 0
M  V30 25 N -5.155592 -3.555149 -2.131372 0
M  V30 26 C -5.523956 -2.503887 -3.003806 0
M  V30 27 C -4.473218 -1.542603 -3.407193 0
M  V30 28 C -1.816184 -0.299929 -1.151633 0
M  V30 29 C -1.982411 0.205554 0.106223 0
M  V30 30 N 0.924681 1.842505 1.600681 0
M  V30 31 H 3.768286 -3.675384 3.989708 0
M  V30 32 H 3.673004 -3.919525 2.187564 0
M  V30 33 H 5.621542 -2.567960 1.793560 0
M  V30 34 H 6.068225 -3.411574 3.388004 0
M  V30 35 H 6.205083 -0.785340 3.312790 0
M  V30 36 H 5.063878 -1.490588 4.604587 0
M  V30 37 H 4.739543 0.998813 1.937889 0
M  V30 38 H 3.095560 0.359985 1.470087 0
M  V30 39 H 3.822305 1.537021 4.223310 0
M  V30 40 H 2.208667 1.024381 3.708339 0
M  V30 41 H 3.236503 3.634998 3.037304 0
M  V30 42 H 3.809424 2.912997 0.272880 0
M  V30 43 H 2.548865 2.253044 -1.763076 0
M  V30 44 H 0.338085 1.412326 -1.510738 0
M  V30 45 H -1.105713 1.875244 2.856265 0
M  V30 46 H -3.260650 1.068303 3.509557 0
M  V30 47 H -4.693751 -1.426791 -0.390726 0
M  V30 48 H -2.370620 -1.330868 -3.555381 0
M  V30 49 H -2.302958 -3.583004 -3.618636 0
M  V30 50 H -1.943997 -3.265550 -1.914473 0
M  V30 51 H -3.601497 -4.704382 -1.411259 0
M  V30 52 H -4.023278 -4.986247 -3.105988 0
M  V30 53 H -5.502059 -3.540974 -1.173156 0
M  V30 54 H -6.371804 -1.947624 -2.512504 0
M  V30 55 H -6.001984 -2.956419 -3.908837 0
M  V30 56 H -4.429361 -1.439247 -4.515231 0
M  V30 57 H -4.777864 -0.507625 -3.063428 0
M  V30 58 H -0.992983 -0.212536 -1.829139 0
M  V30 END ATOM
M  V30 BEGIN BOND
M  V30 1 2 1 2
M  V30 2 1 2 3
M  V30 3 1 3 4
M  V30 4 1 4 5
M  V30 5 1 5 6
M  V30 6 1 6 7
M  V30 7 1 7 8
M  V30 8 1 8 9
M  V30 9 1 9 10
M  V30 10 2 10 11
M  V30 11 1 11 12
M  V30 12 2 12 13
M  V30 13 1 13 14
M  V30 14 1 14 15
M  V30 15 2 15 16
M  V30 16 1 16 17
M  V30 17 2 17 18
M  V30 18 1 18 19
M  V30 19 1 19 20
M  V30 20 1 20 21
M  V30 21 1 21 22
M  V30 22 1 22 23
M  V30 23 1 23 24
M  V30 24 1 24 25
M  V30 25 1 25 26
M  V30 26 1 26 27
M  V30 27 2 21 28
M  V30 28 1 28 29
M  V30 29 2 14 30
M  V30 30 1 6 2
M  V30 31 1 30 10
M  V30 32 1 29 15
M  V30 33 2 29 19
M  V30 34 1 27 22
M  V30 35 1 3 31
M  V30 36 1 3 32
M  V30 37 1 4 33
M  V30 38 1 4 34
M  V30 39 1 5 35
M  V30 40 1 5 36
M  V30 41 1 7 37
M  V30 42 1 7 38
M  V30 43 1 8 39
M  V30 44 1 8 40
M  V30 45 1 9 41
M  V30 46 1 11 42
M  V30 47 1 12 43
M  V30 48 1 13 44
M  V30 49 1 16 45
M  V30 50 1 17 46
M  V30 51 1 20 47
M  V30 52 1 22 48
M  V30 53 1 23 49
M  V30 54 1 23 50
M  V30 55 1 24 51
M  V30 56 1 24 52
M  V30 57 1 25 53
M  V30 58 1 26 54
M  V30 59 1 26 55
M  V30 60 1 27 56
M  V30 61 1 27 57
M  V30 62 1 28 58
M  V30 END BOND
M  V30 END CTAB
M  END
>  <Dataset>  (260) 
ChEMBL_Kinases

>  <Ligand_Instance>  (260) 
nan

>  <PDB_ID>  (260) 
nan

>  <Standardized_SMILES>  (260) 
O=C1CCCN1CCNc1cccc(-c2ccnc3[nH]c(C4CCNCC4)cc23)n1

>  <Name>  (260) 
nan

>  <Pocket>  (260) 
nan

>  <ATP_Site>  (260) 
nan

>  <Peripheral>  (260) 
nan

>  <Num_H_Atoms_ProtBoundConf>  (260) 
nan

>  <Num_Resolved_Atoms>  (260) 
nan

>  <Num_Not_Resolved_Atoms>  (260) 
nan

$$$$
CHEMBL3668414
     RDKit          3D

  0  0  0  0  0  0  0  0  0  0999 V3000
M  V30 BEGIN CTAB
M  V30 COUNTS 60 64 0 0 0
M  V30 BEGIN ATOM
M  V30 1 C 1.521230 -0.926401 5.635551 0
M  V30 2 N 1.026422 -1.539026 4.446826 0
M  V30 3 C 1.705750 -2.747397 4.055299 0
M  V30 4 C 2.497512 -2.691076 2.808779 0
M  V30 5 C 2.956933 -1.383045 2.305875 0
M  V30 6 C 2.900154 -1.216785 0.823811 0
M  V30 7 C 1.898574 -0.727413 0.012681 0
M  V30 8 C 2.210461 -0.740872 -1.330675 0
M  V30 9 C 1.508200 -0.353234 -2.453037 0
M  V30 10 C 0.162341 0.194331 -2.380964 0
M  V30 11 C -0.559535 0.481073 -3.526836 0
M  V30 12 C -1.841962 0.982588 -3.514682 0
M  V30 13 C -2.485374 1.229212 -2.296391 0
M  V30 14 C -1.751984 0.938177 -1.165717 0
M  V30 15 N -2.244177 1.113221 0.150354 0
M  V30 16 C -2.524231 2.415535 0.770770 0
M  V30 17 C -2.397192 -0.166126 0.772462 0
M  V30 18 C -3.248967 -1.124192 0.049172 0
M  V30 19 C -2.620377 -2.152336 -0.639319 0
M  V30 20 C -3.297518 -3.120678 -1.350917 0
M  V30 21 C -4.665311 -3.006409 -1.339193 0
M  V30 22 C -5.325570 -2.002133 -0.669454 0
M  V30 23 C -4.625724 -1.039916 0.038893 0
M  V30 24 Cl -5.374443 0.274654 0.912901 0
M  V30 25 N -0.512380 0.453724 -1.256028 0
M  V30 26 C 2.188063 -0.539658 -3.638167 0
M  V30 27 C 3.458681 -1.067232 -3.688955 0
M  V30 28 N 4.081128 -1.422992 -2.543194 0
M  V30 29 C 3.491856 -1.276514 -1.340087 0
M  V30 30 N 3.873137 -1.544958 -0.079193 0
M  V30 31 C 2.306092 -0.207710 2.987980 0
M  V30 32 C 0.891849 -0.618064 3.333281 0
M  V30 33 H 1.041004 0.096252 5.672844 0
M  V30 34 H 1.090416 -1.474595 6.501820 0
M  V30 35 H 2.611207 -0.854561 5.712845 0
M  V30 36 H 0.916449 -3.551150 4.051924 0
M  V30 37 H 2.372103 -3.009282 4.901564 0
M  V30 38 H 3.409952 -3.364631 2.925307 0
M  V30 39 H 1.920344 -3.233526 1.998016 0
M  V30 40 H 4.068728 -1.305731 2.536654 0
M  V30 41 H 0.951487 -0.359196 0.371342 0
M  V30 42 H -0.174235 0.335737 -4.506550 0
M  V30 43 H -2.419822 1.211332 -4.397191 0
M  V30 44 H -3.480155 1.617705 -2.166987 0
M  V30 45 H -2.900691 2.273218 1.803451 0
M  V30 46 H -3.259283 2.947574 0.137520 0
M  V30 47 H -1.611552 3.043843 0.792981 0
M  V30 48 H -2.790456 -0.079320 1.828538 0
M  V30 49 H -1.387689 -0.636814 0.928701 0
M  V30 50 H -1.533554 -2.242290 -0.647650 0
M  V30 51 H -2.819336 -3.924871 -1.888089 0
M  V30 52 H -5.312274 -3.688124 -1.846062 0
M  V30 53 H -6.405274 -1.896471 -0.651892 0
M  V30 54 H 1.746387 -0.277607 -4.585374 0
M  V30 55 H 3.971945 -1.202734 -4.630169 0
M  V30 56 H 4.812325 -1.955545 0.147475 0
M  V30 57 H 2.304073 0.695070 2.332989 0
M  V30 58 H 2.882437 0.025796 3.905590 0
M  V30 59 H 0.494290 -1.208714 2.496408 0
M  V30 60 H 0.254214 0.205322 3.647038 0
M  V30 END ATOM
M  V30 BEGIN BOND
M  V30 1 1 1 2
M  V30 2 1 2 3
M  V30 3 1 3 4
M  V30 4 1 4 5
M  V30 5 1 5 6
M  V30 6 2 6 7
M  V30 7 1 7 8
M  V30 8 2 8 9
M  V30 9 1 9 10
M  V30 10 2 10 11
M  V30 11 1 11 12
M  V30 12 2 12 13
M  V30 13 1 13 14
M  V30 14 1 14 15
M  V30 15 1 15 16
M  V30 16 1 15 17
M  V30 17 1 17 18
M  V30 18 2 18 19
M  V30 19 1 19 20
M  V30 20 2 20 21
M  V30 21 1 21 22
M  V30 22 2 22 23
M  V30 23 1 23 24
M  V30 24 2 14 25
M  V30 25 1 9 26
M  V30 26 2 26 27
M  V30 27 1 27 28
M  V30 28 2 28 29
M  V30 29 1 29 30
M  V30 30 1 5 31
M  V30 31 1 31 32
M  V30 32 1 32 2
M  V30 33 1 30 6
M  V30 34 1 29 8
M  V30 35 1 25 10
M  V30 36 1 23 18
M  V30 37 1 1 33
M  V30 38 1 1 34
M  V30 39 1 1 35
M  V30 40 1 3 36
M  V30 41 1 3 37
M  V30 42 1 4 38
M  V30 43 1 4 39
M  V30 44 1 5 40
M  V30 45 1 7 41
M  V30 46 1 11 42
M  V30 47 1 12 43
M  V30 48 1 13 44
M  V30 49 1 16 45
M  V30 50 1 16 46
M  V30 51 1 16 47
M  V30 52 1 17 48
M  V30 53 1 17 49
M  V30 54 1 19 50
M  V30 55 1 20 51
M  V30 56 1 21 52
M  V30 57 1 22 53
M  V30 58 1 26 54
M  V30 59 1 27 55
M  V30 60 1 30 56
M  V30 61 1 31 57
M  V30 62 1 31 58
M  V30 63 1 32 59
M  V30 64 1 32 60
M  V30 END BOND
M  V30 END CTAB
M  END
>  <Dataset>  (261) 
ChEMBL_Kinases

>  <Ligand_Instance>  (261) 
nan

>  <PDB_ID>  (261) 
nan

>  <Standardized_SMILES>  (261) 
CN1CCC(c2cc3c(-c4cccc(N(C)Cc5ccccc5Cl)n4)ccnc3[nH]2)CC1

>  <Name>  (261) 
nan

>  <Pocket>  (261) 
nan

>  <ATP_Site>  (261) 
nan

>  <Peripheral>  (261) 
nan

>  <Num_H_Atoms_ProtBoundConf>  (261) 
nan

>  <Num_Resolved_Atoms>  (261) 
nan

>  <Num_Not_Resolved_Atoms>  (261) 
nan

$$$$
CHEMBL3668413
     RDKit          3D

  0  0  0  0  0  0  0  0  0  0999 V3000
M  V30 BEGIN CTAB
M  V30 COUNTS 57 61 0 0 0
M  V30 BEGIN ATOM
M  V30 1 C -1.557157 -5.411595 4.192236 0
M  V30 2 N -0.821122 -4.518760 3.318376 0
M  V30 3 C 0.423041 -4.111433 3.846787 0
M  V30 4 C 0.990939 -2.833663 3.406698 0
M  V30 5 C 0.216032 -2.018607 2.441100 0
M  V30 6 C 0.479153 -2.362808 1.029997 0
M  V30 7 C 0.743308 -1.418780 0.046290 0
M  V30 8 C 0.960878 -2.017072 -1.195219 0
M  V30 9 C 1.255448 -1.468368 -2.426800 0
M  V30 10 C 1.403844 -0.038783 -2.664014 0
M  V30 11 C 1.840826 0.348893 -3.910726 0
M  V30 12 C 2.019908 1.685036 -4.190170 0
M  V30 13 C 1.766080 2.640652 -3.235949 0
M  V30 14 C 1.320582 2.241326 -1.967902 0
M  V30 15 N 1.065326 3.218067 -0.973676 0
M  V30 16 C 0.530598 3.211535 0.356452 0
M  V30 17 C -0.912080 2.833782 0.414452 0
M  V30 18 C -1.551504 1.706887 0.837791 0
M  V30 19 C -2.920745 1.580884 0.810715 0
M  V30 20 C -3.728193 2.608279 0.345189 0
M  V30 21 C -3.095509 3.745119 -0.082170 0
M  V30 22 C -1.723161 3.864198 -0.052094 0
M  V30 23 Cl -1.144243 5.410647 -0.650112 0
M  V30 24 N 1.169109 0.930878 -1.765246 0
M  V30 25 C 1.403690 -2.419334 -3.409316 0
M  V30 26 C 1.266920 -3.767814 -3.163603 0
M  V30 27 N 0.977532 -4.228473 -1.934020 0
M  V30 28 C 0.820239 -3.359781 -0.931667 0
M  V30 29 N 0.535729 -3.530045 0.391700 0
M  V30 30 C -1.260645 -2.130320 2.809426 0
M  V30 31 C -1.643648 -3.553078 2.687375 0
M  V30 32 H -2.275205 -5.977856 3.549207 0
M  V30 33 H -0.828838 -6.129461 4.612948 0
M  V30 34 H -2.129143 -4.853659 4.963019 0
M  V30 35 H 0.301309 -4.095823 4.968857 0
M  V30 36 H 1.155854 -4.932700 3.671475 0
M  V30 37 H 2.009547 -2.973482 2.935074 0
M  V30 38 H 1.232958 -2.165278 4.287123 0
M  V30 39 H 0.450434 -0.933293 2.574586 0
M  V30 40 H 0.790651 -0.352248 0.180946 0
M  V30 41 H 2.083894 -0.260561 -4.760319 0
M  V30 42 H 2.366650 2.079664 -5.159425 0
M  V30 43 H 1.910869 3.703778 -3.463727 0
M  V30 44 H 1.326148 4.215285 -1.262704 0
M  V30 45 H 0.619120 4.190728 0.855997 0
M  V30 46 H 1.116924 2.505088 1.023280 0
M  V30 47 H -0.861662 0.957383 1.192696 0
M  V30 48 H -3.259699 0.635490 1.177251 0
M  V30 49 H -4.774353 2.342691 0.393326 0
M  V30 50 H -3.781214 4.516995 -0.436616 0
M  V30 51 H 1.633525 -2.160245 -4.425333 0
M  V30 52 H 1.387716 -4.498805 -3.951054 0
M  V30 53 H 0.393523 -4.454329 0.807304 0
M  V30 54 H -1.826536 -1.545640 2.045823 0
M  V30 55 H -1.362331 -1.707886 3.827687 0
M  V30 56 H -1.750329 -3.807655 1.612907 0
M  V30 57 H -2.698975 -3.649401 3.088863 0
M  V30 END ATOM
M  V30 BEGIN BOND
M  V30 1 1 1 2
M  V30 2 1 2 3
M  V30 3 1 3 4
M  V30 4 1 4 5
M  V30 5 1 5 6
M  V30 6 2 6 7
M  V30 7 1 7 8
M  V30 8 2 8 9
M  V30 9 1 9 10
M  V30 10 2 10 11
M  V30 11 1 11 12
M  V30 12 2 12 13
M  V30 13 1 13 14
M  V30 14 1 14 15
M  V30 15 1 15 16
M  V30 16 1 16 17
M  V30 17 2 17 18
M  V30 18 1 18 19
M  V30 19 2 19 20
M  V30 20 1 20 21
M  V30 21 2 21 22
M  V30 22 1 22 23
M  V30 23 2 14 24
M  V30 24 1 9 25
M  V30 25 2 25 26
M  V30 26 1 26 27
M  V30 27 2 27 28
M  V30 28 1 28 29
M  V30 29 1 5 30
M  V30 30 1 30 31
M  V30 31 1 31 2
M  V30 32 1 29 6
M  V30 33 1 28 8
M  V30 34 1 24 10
M  V30 35 1 22 17
M  V30 36 1 1 32
M  V30 37 1 1 33
M  V30 38 1 1 34
M  V30 39 1 3 35
M  V30 40 1 3 36
M  V30 41 1 4 37
M  V30 42 1 4 38
M  V30 43 1 5 39
M  V30 44 1 7 40
M  V30 45 1 11 41
M  V30 46 1 12 42
M  V30 47 1 13 43
M  V30 48 1 15 44
M  V30 49 1 16 45
M  V30 50 1 16 46
M  V30 51 1 18 47
M  V30 52 1 19 48
M  V30 53 1 20 49
M  V30 54 1 21 50
M  V30 55 1 25 51
M  V30 56 1 26 52
M  V30 57 1 29 53
M  V30 58 1 30 54
M  V30 59 1 30 55
M  V30 60 1 31 56
M  V30 61 1 31 57
M  V30 END BOND
M  V30 END CTAB
M  END
>  <Dataset>  (262) 
ChEMBL_Kinases

>  <Ligand_Instance>  (262) 
nan

>  <PDB_ID>  (262) 
nan

>  <Standardized_SMILES>  (262) 
CN1CCC(c2cc3c(-c4cccc(NCc5ccccc5Cl)n4)ccnc3[nH]2)CC1

>  <Name>  (262) 
nan

>  <Pocket>  (262) 
nan

>  <ATP_Site>  (262) 
nan

>  <Peripheral>  (262) 
nan

>  <Num_H_Atoms_ProtBoundConf>  (262) 
nan

>  <Num_Resolved_Atoms>  (262) 
nan

>  <Num_Not_Resolved_Atoms>  (262) 
nan

$$$$
CHEMBL3666771
     RDKit          3D

  0  0  0  0  0  0  0  0  0  0999 V3000
M  V30 BEGIN CTAB
M  V30 COUNTS 80 85 0 0 0
M  V30 BEGIN ATOM
M  V30 1 C 5.979999 3.148789 3.125220 0
M  V30 2 O 5.222373 2.027339 2.734677 0
M  V30 3 C 4.378269 2.010018 1.636754 0
M  V30 4 C 4.198791 3.115875 0.815627 0
M  V30 5 C 3.342184 3.074768 -0.282808 0
M  V30 6 N 3.134431 4.180080 -1.151562 0
M  V30 7 C 1.961962 4.371584 -1.986631 0
M  V30 8 C 2.309958 4.453817 -3.438827 0
M  V30 9 N 3.741623 4.322301 -3.669140 0
M  V30 10 C 3.964309 4.539415 -5.091574 0
M  V30 11 C 4.396027 5.362318 -2.898395 0
M  V30 12 C 3.946628 5.339460 -1.465365 0
M  V30 13 C 2.657730 1.920616 -0.567048 0
M  V30 14 C 2.842984 0.810118 0.263247 0
M  V30 15 C 3.687948 0.817459 1.365076 0
M  V30 16 N 3.798792 -0.356057 2.178999 0
M  V30 17 C 3.115287 -1.543871 1.788650 0
M  V30 18 N 3.898987 -2.549606 1.359883 0
M  V30 19 C 3.447073 -3.743657 0.935668 0
M  V30 20 C 2.060951 -3.933362 0.947859 0
M  V30 21 C 1.246412 -2.911764 1.383812 0
M  V30 22 N 1.757193 -1.717045 1.805908 0
M  V30 23 C -0.226970 -2.824355 1.486424 0
M  V30 24 C -1.012937 -3.674309 0.695723 0
M  V30 25 C -2.290589 -3.299599 1.058583 0
M  V30 26 C -3.534005 -3.848044 0.534269 0
M  V30 27 O -3.590438 -4.725650 -0.358540 0
M  V30 28 N -4.803946 -3.419614 1.005604 0
M  V30 29 C -6.108618 -3.837193 0.603003 0
M  V30 30 C -6.890515 -2.612676 0.183234 0
M  V30 31 C -8.245209 -2.918349 -0.365743 0
M  V30 32 C -8.471204 -4.414413 -0.279774 0
M  V30 33 C -8.236601 -4.958765 1.092746 0
M  V30 34 C -6.906615 -4.539664 1.677307 0
M  V30 35 N -2.210998 -2.324393 1.973178 0
M  V30 36 N -0.955457 -2.018415 2.248772 0
M  V30 37 C -0.354371 -1.047337 3.142518 0
M  V30 38 C -0.823183 -4.728518 -0.303668 0
M  V30 39 C 0.574593 -5.063328 -0.665456 0
M  V30 40 C 1.524893 -5.246966 0.487499 0
M  V30 41 H 6.350913 3.650084 2.215784 0
M  V30 42 H 5.376018 3.822663 3.780470 0
M  V30 43 H 6.890946 2.849918 3.699818 0
M  V30 44 H 4.722224 4.025471 1.016798 0
M  V30 45 H 1.389873 5.300516 -1.682403 0
M  V30 46 H 1.251892 3.542674 -1.818590 0
M  V30 47 H 1.807995 3.690196 -4.070911 0
M  V30 48 H 1.977080 5.449357 -3.856146 0
M  V30 49 H 2.985728 4.431783 -5.649784 0
M  V30 50 H 4.370199 5.528996 -5.338937 0
M  V30 51 H 4.624477 3.710683 -5.479419 0
M  V30 52 H 5.496968 5.131068 -2.990104 0
M  V30 53 H 4.264736 6.382661 -3.350916 0
M  V30 54 H 3.419740 6.295737 -1.256547 0
M  V30 55 H 4.882896 5.384869 -0.842928 0
M  V30 56 H 1.973952 1.730332 -1.367959 0
M  V30 57 H 2.321961 -0.125854 0.077327 0
M  V30 58 H 4.403835 -0.261577 3.050828 0
M  V30 59 H 3.999713 -4.585977 0.583611 0
M  V30 60 H -4.833720 -2.688964 1.762043 0
M  V30 61 H -6.103501 -4.532935 -0.265791 0
M  V30 62 H -6.278705 -2.147677 -0.639994 0
M  V30 63 H -6.905248 -1.884176 1.017673 0
M  V30 64 H -8.329492 -2.577244 -1.419116 0
M  V30 65 H -8.978668 -2.378021 0.286455 0
M  V30 66 H -7.940708 -4.938349 -1.088659 0
M  V30 67 H -9.569396 -4.543032 -0.490807 0
M  V30 68 H -8.242639 -6.084226 0.981870 0
M  V30 69 H -9.100626 -4.706755 1.733645 0
M  V30 70 H -7.055508 -3.872481 2.525016 0
M  V30 71 H -6.344793 -5.452815 2.016656 0
M  V30 72 H 0.322829 -1.529773 3.874321 0
M  V30 73 H -1.215740 -0.644844 3.752335 0
M  V30 74 H 0.125019 -0.195172 2.603512 0
M  V30 75 H -1.314380 -4.340235 -1.248097 0
M  V30 76 H -1.380394 -5.662189 -0.067159 0
M  V30 77 H 1.003754 -4.403152 -1.461056 0
M  V30 78 H 0.532196 -6.073408 -1.179795 0
M  V30 79 H 0.950882 -5.675409 1.332748 0
M  V30 80 H 2.391363 -5.888298 0.212310 0
M  V30 END ATOM
M  V30 BEGIN BOND
M  V30 1 1 1 2
M  V30 2 1 2 3
M  V30 3 2 3 4
M  V30 4 1 4 5
M  V30 5 1 5 6
M  V30 6 1 6 7
M  V30 7 1 7 8
M  V30 8 1 8 9
M  V30 9 1 9 10
M  V30 10 1 9 11
M  V30 11 1 11 12
M  V30 12 2 5 13
M  V30 13 1 13 14
M  V30 14 2 14 15
M  V30 15 1 15 16
M  V30 16 1 16 17
M  V30 17 2 17 18
M  V30 18 1 18 19
M  V30 19 2 19 20
M  V30 20 1 20 21
M  V30 21 2 21 22
M  V30 22 1 21 23
M  V30 23 2 23 24
M  V30 24 1 24 25
M  V30 25 1 25 26
M  V30 26 2 26 27
M  V30 27 1 26 28
M  V30 28 1 28 29
M  V30 29 1 29 30
M  V30 30 1 30 31
M  V30 31 1 31 32
M  V30 32 1 32 33
M  V30 33 1 33 34
M  V30 34 2 25 35
M  V30 35 1 35 36
M  V30 36 1 36 37
M  V30 37 1 24 38
M  V30 38 1 38 39
M  V30 39 1 39 40
M  V30 40 1 15 3
M  V30 41 1 22 17
M  V30 42 1 36 23
M  V30 43 1 12 6
M  V30 44 1 40 20
M  V30 45 1 34 29
M  V30 46 1 1 41
M  V30 47 1 1 42
M  V30 48 1 1 43
M  V30 49 1 4 44
M  V30 50 1 7 45
M  V30 51 1 7 46
M  V30 52 1 8 47
M  V30 53 1 8 48
M  V30 54 1 10 49
M  V30 55 1 10 50
M  V30 56 1 10 51
M  V30 57 1 11 52
M  V30 58 1 11 53
M  V30 59 1 12 54
M  V30 60 1 12 55
M  V30 61 1 13 56
M  V30 62 1 14 57
M  V30 63 1 16 58
M  V30 64 1 19 59
M  V30 65 1 28 60
M  V30 66 1 29 61
M  V30 67 1 30 62
M  V30 68 1 30 63
M  V30 69 1 31 64
M  V30 70 1 31 65
M  V30 71 1 32 66
M  V30 72 1 32 67
M  V30 73 1 33 68
M  V30 74 1 33 69
M  V30 75 1 34 70
M  V30 76 1 34 71
M  V30 77 1 37 72
M  V30 78 1 37 73
M  V30 79 1 37 74
M  V30 80 1 38 75
M  V30 81 1 38 76
M  V30 82 1 39 77
M  V30 83 1 39 78
M  V30 84 1 40 79
M  V30 85 1 40 80
M  V30 END BOND
M  V30 END CTAB
M  END
>  <Dataset>  (263) 
ChEMBL_Kinases

>  <Ligand_Instance>  (263) 
nan

>  <PDB_ID>  (263) 
nan

>  <Standardized_SMILES>  (263) 
COc1cc(N2CCN(C)CC2)ccc1Nc1ncc2c(n1)-c1c(c(C(=O)NC3CCCCC3)nn1C)CCC2

>  <Name>  (263) 
nan

>  <Pocket>  (263) 
nan

>  <ATP_Site>  (263) 
nan

>  <Peripheral>  (263) 
nan

>  <Num_H_Atoms_ProtBoundConf>  (263) 
nan

>  <Num_Resolved_Atoms>  (263) 
nan

>  <Num_Not_Resolved_Atoms>  (263) 
nan

$$$$
CHEMBL3668396
     RDKit          3D

  0  0  0  0  0  0  0  0  0  0999 V3000
M  V30 BEGIN CTAB
M  V30 COUNTS 49 52 0 0 0
M  V30 BEGIN ATOM
M  V30 1 C 5.128627 -0.586871 2.267301 0
M  V30 2 O 4.112722 0.008590 1.471278 0
M  V30 3 C 4.154618 -0.252116 0.105624 0
M  V30 4 C 5.134805 -1.055421 -0.481296 0
M  V30 5 C 5.157419 -1.301532 -1.842574 0
M  V30 6 C 4.188832 -0.742491 -2.652879 0
M  V30 7 F 4.276501 -1.027627 -3.968453 0
M  V30 8 C 3.203426 0.056711 -2.112466 0
M  V30 9 C 3.210756 0.281851 -0.747963 0
M  V30 10 C 2.185651 1.117063 -0.162558 0
M  V30 11 C 2.315016 2.479793 -0.012591 0
M  V30 12 C 1.277979 3.188791 0.559002 0
M  V30 13 N 0.138393 2.586504 0.976482 0
M  V30 14 C -0.044576 1.255208 0.855267 0
M  V30 15 N -1.023186 0.383628 1.159687 0
M  V30 16 C -0.711418 -0.874369 0.828501 0
M  V30 17 C -1.513512 -2.088460 1.001942 0
M  V30 18 C -1.752812 -2.407798 2.470066 0
M  V30 19 C -3.134254 -3.077586 2.418342 0
M  V30 20 N -3.859634 -2.304993 1.429396 0
M  V30 21 C -4.423782 -1.164293 2.076509 0
M  V30 22 C -5.207494 -0.271890 1.150830 0
M  V30 23 N -6.309610 -0.923204 0.524282 0
M  V30 24 C -2.883787 -2.043565 0.426865 0
M  V30 25 C 0.556203 -0.756695 0.279937 0
M  V30 26 C 0.999459 0.549974 0.281121 0
M  V30 27 H 5.116062 -1.688545 2.088115 0
M  V30 28 H 6.100748 -0.177757 1.957056 0
M  V30 29 H 4.939186 -0.462725 3.349907 0
M  V30 30 H 5.892129 -1.491621 0.157655 0
M  V30 31 H 5.956272 -1.936257 -2.202624 0
M  V30 32 H 2.453829 0.483642 -2.773388 0
M  V30 33 H 3.234521 2.905202 -0.358676 0
M  V30 34 H 1.368055 4.243313 0.679542 0
M  V30 35 H -1.880214 0.745640 1.597782 0
M  V30 36 H -0.920580 -2.948213 0.598324 0
M  V30 37 H -1.027002 -3.119578 2.884458 0
M  V30 38 H -1.771609 -1.503433 3.087870 0
M  V30 39 H -3.577518 -3.025728 3.434561 0
M  V30 40 H -3.028169 -4.138645 2.150457 0
M  V30 41 H -5.088955 -1.508422 2.896165 0
M  V30 42 H -3.617133 -0.592856 2.559716 0
M  V30 43 H -5.604316 0.591501 1.743391 0
M  V30 44 H -4.523240 0.189212 0.414308 0
M  V30 45 H -6.599919 -1.811198 0.984959 0
M  V30 46 H -7.101327 -0.300105 0.285619 0
M  V30 47 H -2.974870 -2.886984 -0.320588 0
M  V30 48 H -3.075026 -1.123211 -0.161622 0
M  V30 49 H 1.145633 -1.579886 -0.109040 0
M  V30 END ATOM
M  V30 BEGIN BOND
M  V30 1 1 1 2
M  V30 2 1 2 3
M  V30 3 2 3 4
M  V30 4 1 4 5
M  V30 5 2 5 6
M  V30 6 1 6 7
M  V30 7 1 6 8
M  V30 8 2 8 9
M  V30 9 1 9 10
M  V30 10 2 10 11
M  V30 11 1 11 12
M  V30 12 2 12 13
M  V30 13 1 13 14
M  V30 14 1 14 15
M  V30 15 1 15 16
M  V30 16 1 16 17
M  V30 17 1 17 18
M  V30 18 1 18 19
M  V30 19 1 19 20
M  V30 20 1 20 21
M  V30 21 1 21 22
M  V30 22 1 22 23
M  V30 23 1 20 24
M  V30 24 2 16 25
M  V30 25 1 25 26
M  V30 26 1 9 3
M  V30 27 1 26 10
M  V30 28 2 26 14
M  V30 29 1 24 17
M  V30 30 1 1 27
M  V30 31 1 1 28
M  V30 32 1 1 29
M  V30 33 1 4 30
M  V30 34 1 5 31
M  V30 35 1 8 32
M  V30 36 1 11 33
M  V30 37 1 12 34
M  V30 38 1 15 35
M  V30 39 1 17 36
M  V30 40 1 18 37
M  V30 41 1 18 38
M  V30 42 1 19 39
M  V30 43 1 19 40
M  V30 44 1 21 41
M  V30 45 1 21 42
M  V30 46 1 22 43
M  V30 47 1 22 44
M  V30 48 1 23 45
M  V30 49 1 23 46
M  V30 50 1 24 47
M  V30 51 1 24 48
M  V30 52 1 25 49
M  V30 END BOND
M  V30 END CTAB
M  END
>  <Dataset>  (264) 
ChEMBL_Kinases

>  <Ligand_Instance>  (264) 
nan

>  <PDB_ID>  (264) 
nan

>  <Standardized_SMILES>  (264) 
COc1ccc(F)cc1-c1ccnc2[nH]c(C3CCN(CCN)C3)cc12

>  <Name>  (264) 
nan

>  <Pocket>  (264) 
nan

>  <ATP_Site>  (264) 
nan

>  <Peripheral>  (264) 
nan

>  <Num_H_Atoms_ProtBoundConf>  (264) 
nan

>  <Num_Resolved_Atoms>  (264) 
nan

>  <Num_Not_Resolved_Atoms>  (264) 
nan

$$$$
CHEMBL3668397
     RDKit          3D

  0  0  0  0  0  0  0  0  0  0999 V3000
M  V30 BEGIN CTAB
M  V30 COUNTS 53 57 0 0 0
M  V30 BEGIN ATOM
M  V30 1 C 3.543189 -3.260472 3.358826 0
M  V30 2 O 3.336104 -1.934757 2.878877 0
M  V30 3 C 3.902924 -1.578081 1.671752 0
M  V30 4 C 4.671694 -2.369229 0.840877 0
M  V30 5 C 5.180332 -1.885562 -0.345787 0
M  V30 6 C 4.927405 -0.580061 -0.733450 0
M  V30 7 F 5.446481 -0.136467 -1.912943 0
M  V30 8 C 4.157138 0.215251 0.097395 0
M  V30 9 C 3.643543 -0.275188 1.296918 0
M  V30 10 C 2.862769 0.744337 2.003984 0
M  V30 11 C 3.442340 1.606804 2.916920 0
M  V30 12 C 2.726569 2.572771 3.593036 0
M  V30 13 N 1.399553 2.692808 3.362872 0
M  V30 14 C 0.783311 1.868510 2.474525 0
M  V30 15 N -0.507204 1.809146 2.094338 0
M  V30 16 C -0.618085 0.817540 1.185687 0
M  V30 17 C -1.885349 0.422989 0.514505 0
M  V30 18 C -1.830564 0.580034 -0.991137 0
M  V30 19 C -1.739636 -0.834478 -1.460008 0
M  V30 20 N -2.712350 -1.500032 -0.583845 0
M  V30 21 C -4.033159 -0.975336 -0.711002 0
M  V30 22 C -4.972391 -1.768696 0.168439 0
M  V30 23 C -5.625081 -2.765036 -0.770421 0
M  V30 24 N -5.198421 -2.459478 -2.103522 0
M  V30 25 C -4.634837 -1.126018 -2.069544 0
M  V30 26 C -2.182439 -1.071580 0.699680 0
M  V30 27 C 0.604063 0.220382 0.965562 0
M  V30 28 C 1.495500 0.904408 1.799149 0
M  V30 29 H 3.264802 -3.365159 4.426332 0
M  V30 30 H 4.635732 -3.497468 3.313803 0
M  V30 31 H 3.043133 -3.971348 2.688805 0
M  V30 32 H 4.825801 -3.392178 1.220864 0
M  V30 33 H 5.773995 -2.576467 -0.936853 0
M  V30 34 H 4.013518 1.221753 -0.290409 0
M  V30 35 H 4.515674 1.528058 3.119412 0
M  V30 36 H 3.220391 3.230006 4.301953 0
M  V30 37 H -1.284877 2.412474 2.432726 0
M  V30 38 H -2.737421 1.045562 0.862142 0
M  V30 39 H -2.678939 1.141017 -1.415016 0
M  V30 40 H -0.862133 1.100834 -1.246143 0
M  V30 41 H -0.753508 -1.254815 -1.269798 0
M  V30 42 H -1.995949 -0.968992 -2.526369 0
M  V30 43 H -4.066226 0.097382 -0.353127 0
M  V30 44 H -5.785598 -1.064877 0.502505 0
M  V30 45 H -4.485111 -2.260514 1.019455 0
M  V30 46 H -6.727104 -2.748794 -0.652645 0
M  V30 47 H -5.288061 -3.804176 -0.506764 0
M  V30 48 H -4.566751 -3.172500 -2.528460 0
M  V30 49 H -3.995110 -0.898351 -2.917038 0
M  V30 50 H -5.503153 -0.416526 -2.133086 0
M  V30 51 H -1.198343 -1.562480 0.851809 0
M  V30 52 H -2.865484 -1.185459 1.535712 0
M  V30 53 H 0.903390 -0.585475 0.326108 0
M  V30 END ATOM
M  V30 BEGIN BOND
M  V30 1 1 1 2
M  V30 2 1 2 3
M  V30 3 2 3 4
M  V30 4 1 4 5
M  V30 5 2 5 6
M  V30 6 1 6 7
M  V30 7 1 6 8
M  V30 8 2 8 9
M  V30 9 1 9 10
M  V30 10 2 10 11
M  V30 11 1 11 12
M  V30 12 2 12 13
M  V30 13 1 13 14
M  V30 14 1 14 15
M  V30 15 1 15 16
M  V30 16 1 16 17
M  V30 17 1 17 18
M  V30 18 1 18 19
M  V30 19 1 19 20
M  V30 20 1 20 21
M  V30 21 1 21 22
M  V30 22 1 22 23
M  V30 23 1 23 24
M  V30 24 1 24 25
M  V30 25 1 20 26
M  V30 26 2 16 27
M  V30 27 1 27 28
M  V30 28 1 9 3
M  V30 29 1 28 10
M  V30 30 2 28 14
M  V30 31 1 26 17
M  V30 32 1 25 21
M  V30 33 1 1 29
M  V30 34 1 1 30
M  V30 35 1 1 31
M  V30 36 1 4 32
M  V30 37 1 5 33
M  V30 38 1 8 34
M  V30 39 1 11 35
M  V30 40 1 12 36
M  V30 41 1 15 37
M  V30 42 1 17 38
M  V30 43 1 18 39
M  V30 44 1 18 40
M  V30 45 1 19 41
M  V30 46 1 19 42
M  V30 47 1 21 43
M  V30 48 1 22 44
M  V30 49 1 22 45
M  V30 50 1 23 46
M  V30 51 1 23 47
M  V30 52 1 24 48
M  V30 53 1 25 49
M  V30 54 1 25 50
M  V30 55 1 26 51
M  V30 56 1 26 52
M  V30 57 1 27 53
M  V30 END BOND
M  V30 END CTAB
M  END
>  <Dataset>  (265) 
ChEMBL_Kinases

>  <Ligand_Instance>  (265) 
nan

>  <PDB_ID>  (265) 
nan

>  <Standardized_SMILES>  (265) 
COc1ccc(F)cc1-c1ccnc2[nH]c(C3CCN(C4CCNC4)C3)cc12

>  <Name>  (265) 
nan

>  <Pocket>  (265) 
nan

>  <ATP_Site>  (265) 
nan

>  <Peripheral>  (265) 
nan

>  <Num_H_Atoms_ProtBoundConf>  (265) 
nan

>  <Num_Resolved_Atoms>  (265) 
nan

>  <Num_Not_Resolved_Atoms>  (265) 
nan

$$$$
CHEMBL3668398
     RDKit          3D

  0  0  0  0  0  0  0  0  0  0999 V3000
M  V30 BEGIN CTAB
M  V30 COUNTS 45 48 0 0 0
M  V30 BEGIN ATOM
M  V30 1 C -0.794381 -4.813762 -0.877935 0
M  V30 2 O -0.467291 -3.454504 -1.177600 0
M  V30 3 C 0.824987 -3.117763 -1.512707 0
M  V30 4 C 1.904546 -3.995247 -1.597240 0
M  V30 5 C 3.132725 -3.473981 -1.949661 0
M  V30 6 C 3.351493 -2.150722 -2.219925 0
M  V30 7 F 4.626260 -1.801215 -2.553418 0
M  V30 8 C 2.281921 -1.279347 -2.136511 0
M  V30 9 C 1.027179 -1.779043 -1.782009 0
M  V30 10 C 0.011102 -0.722572 -1.741330 0
M  V30 11 C -0.718173 -0.419851 -2.882494 0
M  V30 12 C -1.662839 0.580789 -2.797332 0
M  V30 13 N -1.902189 1.266222 -1.666121 0
M  V30 14 C -1.214481 1.000680 -0.538810 0
M  V30 15 N -1.242457 1.517741 0.716028 0
M  V30 16 C -0.341565 0.896820 1.491265 0
M  V30 17 C -0.013057 1.112399 2.909509 0
M  V30 18 O 1.322850 0.730194 3.157776 0
M  V30 19 C -0.864174 0.243026 3.795497 0
M  V30 20 C -0.823373 0.758718 5.212769 0
M  V30 21 N 0.404820 1.465502 5.525843 0
M  V30 22 C 0.668975 2.588904 4.676994 0
M  V30 23 C -0.134108 2.528468 3.369851 0
M  V30 24 C 0.267272 -0.047193 0.667919 0
M  V30 25 C -0.273756 0.013115 -0.600750 0
M  V30 26 H -1.898128 -4.938121 -1.008058 0
M  V30 27 H -0.299556 -5.494704 -1.591989 0
M  V30 28 H -0.503777 -4.977234 0.181848 0
M  V30 29 H 1.697663 -5.034166 -1.377488 0
M  V30 30 H 3.930476 -4.221900 -1.995348 0
M  V30 31 H 2.502060 -0.251195 -2.357304 0
M  V30 32 H -0.550146 -0.951504 -3.806236 0
M  V30 33 H -2.239002 0.826478 -3.682162 0
M  V30 34 H -1.869160 2.286143 1.041204 0
M  V30 35 H 1.838277 0.879828 2.322159 0
M  V30 36 H -1.917808 0.311874 3.400672 0
M  V30 37 H -0.500320 -0.797751 3.690276 0
M  V30 38 H -1.737839 1.338396 5.405036 0
M  V30 39 H -0.808097 -0.149976 5.878627 0
M  V30 40 H 1.165051 0.723934 5.498848 0
M  V30 41 H 0.598116 3.574604 5.158087 0
M  V30 42 H 1.741024 2.489844 4.355581 0
M  V30 43 H -1.163524 2.892785 3.497678 0
M  V30 44 H 0.421064 3.212802 2.672493 0
M  V30 45 H 1.050172 -0.740522 0.946612 0
M  V30 END ATOM
M  V30 BEGIN BOND
M  V30 1 1 1 2
M  V30 2 1 2 3
M  V30 3 2 3 4
M  V30 4 1 4 5
M  V30 5 2 5 6
M  V30 6 1 6 7
M  V30 7 1 6 8
M  V30 8 2 8 9
M  V30 9 1 9 10
M  V30 10 2 10 11
M  V30 11 1 11 12
M  V30 12 2 12 13
M  V30 13 1 13 14
M  V30 14 1 14 15
M  V30 15 1 15 16
M  V30 16 1 16 17
M  V30 17 1 17 18
M  V30 18 1 17 19
M  V30 19 1 19 20
M  V30 20 1 20 21
M  V30 21 1 21 22
M  V30 22 1 22 23
M  V30 23 2 16 24
M  V30 24 1 24 25
M  V30 25 1 9 3
M  V30 26 1 25 10
M  V30 27 2 25 14
M  V30 28 1 23 17
M  V30 29 1 1 26
M  V30 30 1 1 27
M  V30 31 1 1 28
M  V30 32 1 4 29
M  V30 33 1 5 30
M  V30 34 1 8 31
M  V30 35 1 11 32
M  V30 36 1 12 33
M  V30 37 1 15 34
M  V30 38 1 18 35
M  V30 39 1 19 36
M  V30 40 1 19 37
M  V30 41 1 20 38
M  V30 42 1 20 39
M  V30 43 1 21 40
M  V30 44 1 22 41
M  V30 45 1 22 42
M  V30 46 1 23 43
M  V30 47 1 23 44
M  V30 48 1 24 45
M  V30 END BOND
M  V30 END CTAB
M  END
>  <Dataset>  (266) 
ChEMBL_Kinases

>  <Ligand_Instance>  (266) 
nan

>  <PDB_ID>  (266) 
nan

>  <Standardized_SMILES>  (266) 
COc1ccc(F)cc1-c1ccnc2[nH]c(C3(O)CCNCC3)cc12

>  <Name>  (266) 
nan

>  <Pocket>  (266) 
nan

>  <ATP_Site>  (266) 
nan

>  <Peripheral>  (266) 
nan

>  <Num_H_Atoms_ProtBoundConf>  (266) 
nan

>  <Num_Resolved_Atoms>  (266) 
nan

>  <Num_Not_Resolved_Atoms>  (266) 
nan

$$$$
CHEMBL3668399
     RDKit          3D

  0  0  0  0  0  0  0  0  0  0999 V3000
M  V30 BEGIN CTAB
M  V30 COUNTS 71 75 0 0 0
M  V30 BEGIN ATOM
M  V30 1 C 0.667806 -2.168784 5.372310 0
M  V30 2 O 0.202895 -1.056758 4.618792 0
M  V30 3 C 1.038713 -0.489139 3.681675 0
M  V30 4 C 2.323653 -0.846843 3.339000 0
M  V30 5 C 3.050799 -0.186505 2.374989 0
M  V30 6 C 2.474363 0.877757 1.721969 0
M  V30 7 F 3.221528 1.493482 0.787398 0
M  V30 8 C 1.177029 1.253954 2.054407 0
M  V30 9 C 0.445863 0.575180 3.037158 0
M  V30 10 C -0.870050 1.183121 3.175698 0
M  V30 11 C -1.022879 2.231732 4.078034 0
M  V30 12 C -2.256539 2.834338 4.226221 0
M  V30 13 N -3.316279 2.424058 3.511236 0
M  V30 14 C -3.214275 1.404549 2.619002 0
M  V30 15 N -4.091836 0.798798 1.786250 0
M  V30 16 C -3.462541 -0.175793 1.106299 0
M  V30 17 C -4.160732 -1.024359 0.104027 0
M  V30 18 C -4.305539 -2.391131 0.710928 0
M  V30 19 C -4.586253 -3.467202 -0.294498 0
M  V30 20 C -4.063796 -3.220001 -1.664972 0
M  V30 21 N -3.013967 -2.258995 -1.685582 0
M  V30 22 C -1.748526 -2.686810 -1.187804 0
M  V30 23 C -1.093399 -3.734330 -2.093752 0
M  V30 24 C 0.240751 -4.102524 -1.443328 0
M  V30 25 N 1.045026 -2.878277 -1.355196 0
M  V30 26 C 1.392251 -2.170163 -2.539027 0
M  V30 27 O 1.070898 -2.494021 -3.703771 0
M  V30 28 O 2.152903 -1.023529 -2.372973 0
M  V30 29 C 2.588674 -0.195773 -3.442555 0
M  V30 30 C 3.383945 0.959942 -2.942960 0
M  V30 31 C 2.696573 2.117875 -2.632165 0
M  V30 32 C 3.351218 3.244441 -2.161922 0
M  V30 33 C 4.728389 3.222837 -1.994669 0
M  V30 34 C 5.346584 2.036004 -2.324260 0
M  V30 35 C 4.752669 0.886477 -2.794524 0
M  V30 36 C -3.386950 -0.986239 -1.161123 0
M  V30 37 C -2.141987 -0.199354 1.511452 0
M  V30 38 C -1.984945 0.792264 2.460806 0
M  V30 39 H 1.722191 -2.040549 5.685568 0
M  V30 40 H 0.039379 -2.309392 6.269528 0
M  V30 41 H 0.600625 -3.099957 4.790222 0
M  V30 42 H 2.708471 -1.689167 3.892340 0
M  V30 43 H 4.058728 -0.540928 2.172219 0
M  V30 44 H 0.846037 2.116586 1.454759 0
M  V30 45 H -0.166788 2.549143 4.643156 0
M  V30 46 H -2.326842 3.651345 4.945513 0
M  V30 47 H -5.105619 1.112185 1.742808 0
M  V30 48 H -5.193416 -0.597504 -0.026055 0
M  V30 49 H -5.197976 -2.347066 1.389237 0
M  V30 50 H -3.463614 -2.607189 1.396800 0
M  V30 51 H -5.696255 -3.666737 -0.385114 0
M  V30 52 H -4.166179 -4.454605 0.061939 0
M  V30 53 H -4.884144 -2.828244 -2.298128 0
M  V30 54 H -3.722482 -4.165424 -2.136637 0
M  V30 55 H -1.103543 -1.792834 -1.094684 0
M  V30 56 H -1.761120 -3.154368 -0.184942 0
M  V30 57 H -0.998698 -3.416545 -3.130768 0
M  V30 58 H -1.743811 -4.641792 -1.977970 0
M  V30 59 H 0.006672 -4.429058 -0.428693 0
M  V30 60 H 0.782166 -4.866113 -2.009075 0
M  V30 61 H 1.368353 -2.521496 -0.408087 0
M  V30 62 H 1.648586 0.166673 -3.933927 0
M  V30 63 H 3.141762 -0.774248 -4.204796 0
M  V30 64 H 1.613282 2.163679 -2.753502 0
M  V30 65 H 2.792374 4.146590 -1.922475 0
M  V30 66 H 5.295582 4.067454 -1.632234 0
M  V30 67 H 6.431667 1.999062 -2.199122 0
M  V30 68 H 5.303217 -0.006250 -3.031661 0
M  V30 69 H -3.999345 -0.476747 -1.947861 0
M  V30 70 H -2.436971 -0.385136 -1.097577 0
M  V30 71 H -1.387047 -0.871080 1.146247 0
M  V30 END ATOM
M  V30 BEGIN BOND
M  V30 1 1 1 2
M  V30 2 1 2 3
M  V30 3 2 3 4
M  V30 4 1 4 5
M  V30 5 2 5 6
M  V30 6 1 6 7
M  V30 7 1 6 8
M  V30 8 2 8 9
M  V30 9 1 9 10
M  V30 10 2 10 11
M  V30 11 1 11 12
M  V30 12 2 12 13
M  V30 13 1 13 14
M  V30 14 1 14 15
M  V30 15 1 15 16
M  V30 16 1 16 17
M  V30 17 1 17 18
M  V30 18 1 18 19
M  V30 19 1 19 20
M  V30 20 1 20 21
M  V30 21 1 21 22
M  V30 22 1 22 23
M  V30 23 1 23 24
M  V30 24 1 24 25
M  V30 25 1 25 26
M  V30 26 2 26 27
M  V30 27 1 26 28
M  V30 28 1 28 29
M  V30 29 1 29 30
M  V30 30 2 30 31
M  V30 31 1 31 32
M  V30 32 2 32 33
M  V30 33 1 33 34
M  V30 34 2 34 35
M  V30 35 1 21 36
M  V30 36 2 16 37
M  V30 37 1 37 38
M  V30 38 1 9 3
M  V30 39 1 38 10
M  V30 40 2 38 14
M  V30 41 1 36 17
M  V30 42 1 35 30
M  V30 43 1 1 39
M  V30 44 1 1 40
M  V30 45 1 1 41
M  V30 46 1 4 42
M  V30 47 1 5 43
M  V30 48 1 8 44
M  V30 49 1 11 45
M  V30 50 1 12 46
M  V30 51 1 15 47
M  V30 52 1 17 48
M  V30 53 1 18 49
M  V30 54 1 18 50
M  V30 55 1 19 51
M  V30 56 1 19 52
M  V30 57 1 20 53
M  V30 58 1 20 54
M  V30 59 1 22 55
M  V30 60 1 22 56
M  V30 61 1 23 57
M  V30 62 1 23 58
M  V30 63 1 24 59
M  V30 64 1 24 60
M  V30 65 1 25 61
M  V30 66 1 29 62
M  V30 67 1 29 63
M  V30 68 1 31 64
M  V30 69 1 32 65
M  V30 70 1 33 66
M  V30 71 1 34 67
M  V30 72 1 35 68
M  V30 73 1 36 69
M  V30 74 1 36 70
M  V30 75 1 37 71
M  V30 END BOND
M  V30 END CTAB
M  END
>  <Dataset>  (267) 
ChEMBL_Kinases

>  <Ligand_Instance>  (267) 
nan

>  <PDB_ID>  (267) 
nan

>  <Standardized_SMILES>  (267) 
COc1ccc(F)cc1-c1ccnc2[nH]c(C3CCCN(CCCNC(=O)OCc4ccccc4)C3)cc12

>  <Name>  (267) 
nan

>  <Pocket>  (267) 
nan

>  <ATP_Site>  (267) 
nan

>  <Peripheral>  (267) 
nan

>  <Num_H_Atoms_ProtBoundConf>  (267) 
nan

>  <Num_Resolved_Atoms>  (267) 
nan

>  <Num_Not_Resolved_Atoms>  (267) 
nan

$$$$
CHEMBL3668400
     RDKit          3D

  0  0  0  0  0  0  0  0  0  0999 V3000
M  V30 BEGIN CTAB
M  V30 COUNTS 51 54 0 0 0
M  V30 BEGIN ATOM
M  V30 1 C 5.349733 -0.657642 2.083220 0
M  V30 2 O 4.271066 -0.233422 1.258230 0
M  V30 3 C 4.162411 -0.827476 0.007828 0
M  V30 4 C 5.024246 -1.797765 -0.490539 0
M  V30 5 C 4.855593 -2.344178 -1.742707 0
M  V30 6 C 3.810294 -1.941125 -2.556673 0
M  V30 7 F 3.682941 -2.507522 -3.784330 0
M  V30 8 C 2.924778 -0.965154 -2.083089 0
M  V30 9 C 3.126798 -0.439294 -0.819041 0
M  V30 10 C 2.165399 0.579414 -0.380124 0
M  V30 11 C 2.335773 1.941121 -0.604328 0
M  V30 12 C 1.389358 2.849078 -0.163244 0
M  V30 13 N 0.280407 2.445962 0.492893 0
M  V30 14 C 0.094478 1.126811 0.721694 0
M  V30 15 N -0.920792 0.506241 1.346147 0
M  V30 16 C -0.723116 -0.823691 1.362200 0
M  V30 17 C -1.541666 -1.945521 1.924443 0
M  V30 18 C -1.781318 -1.693421 3.369063 0
M  V30 19 C -3.115089 -1.178161 3.757285 0
M  V30 20 C -3.991795 -0.627568 2.709284 0
M  V30 21 N -3.477404 -0.695436 1.368495 0
M  V30 22 C -4.468661 -0.390258 0.388909 0
M  V30 23 C -3.959708 -0.449864 -1.040154 0
M  V30 24 O -2.921138 0.458265 -1.234709 0
M  V30 25 C -2.877951 -1.993818 1.209351 0
M  V30 26 C 0.496073 -0.985969 0.698432 0
M  V30 27 C 1.026373 0.202764 0.290201 0
M  V30 28 H 6.294404 -0.295349 1.632971 0
M  V30 29 H 5.247337 -0.221844 3.106023 0
M  V30 30 H 5.267105 -1.754842 2.158263 0
M  V30 31 H 5.834977 -2.105768 0.149310 0
M  V30 32 H 5.545136 -3.096890 -2.098148 0
M  V30 33 H 2.131388 -0.686854 -2.751531 0
M  V30 34 H 3.217756 2.244934 -1.124432 0
M  V30 35 H 1.515664 3.909677 -0.334301 0
M  V30 36 H -1.758797 0.959877 1.770052 0
M  V30 37 H -1.028880 -2.913808 1.732406 0
M  V30 38 H -0.945405 -1.031655 3.746332 0
M  V30 39 H -1.568841 -2.668356 3.902414 0
M  V30 40 H -2.950289 -0.351604 4.511293 0
M  V30 41 H -3.649715 -1.958649 4.375086 0
M  V30 42 H -4.952194 -1.211294 2.693094 0
M  V30 43 H -4.312743 0.418768 2.890596 0
M  V30 44 H -4.737503 0.696336 0.541557 0
M  V30 45 H -5.426518 -0.935919 0.501728 0
M  V30 46 H -3.733547 -1.461344 -1.373209 0
M  V30 47 H -4.802622 -0.071040 -1.680166 0
M  V30 48 H -2.902770 0.817257 -2.156260 0
M  V30 49 H -3.511156 -2.755952 1.734936 0
M  V30 50 H -2.692357 -2.298275 0.169339 0
M  V30 51 H 0.950192 -1.966481 0.538572 0
M  V30 END ATOM
M  V30 BEGIN BOND
M  V30 1 1 1 2
M  V30 2 1 2 3
M  V30 3 2 3 4
M  V30 4 1 4 5
M  V30 5 2 5 6
M  V30 6 1 6 7
M  V30 7 1 6 8
M  V30 8 2 8 9
M  V30 9 1 9 10
M  V30 10 2 10 11
M  V30 11 1 11 12
M  V30 12 2 12 13
M  V30 13 1 13 14
M  V30 14 1 14 15
M  V30 15 1 15 16
M  V30 16 1 16 17
M  V30 17 1 17 18
M  V30 18 1 18 19
M  V30 19 1 19 20
M  V30 20 1 20 21
M  V30 21 1 21 22
M  V30 22 1 22 23
M  V30 23 1 23 24
M  V30 24 1 21 25
M  V30 25 2 16 26
M  V30 26 1 26 27
M  V30 27 1 9 3
M  V30 28 1 27 10
M  V30 29 2 27 14
M  V30 30 1 25 17
M  V30 31 1 1 28
M  V30 32 1 1 29
M  V30 33 1 1 30
M  V30 34 1 4 31
M  V30 35 1 5 32
M  V30 36 1 8 33
M  V30 37 1 11 34
M  V30 38 1 12 35
M  V30 39 1 15 36
M  V30 40 1 17 37
M  V30 41 1 18 38
M  V30 42 1 18 39
M  V30 43 1 19 40
M  V30 44 1 19 41
M  V30 45 1 20 42
M  V30 46 1 20 43
M  V30 47 1 22 44
M  V30 48 1 22 45
M  V30 49 1 23 46
M  V30 50 1 23 47
M  V30 51 1 24 48
M  V30 52 1 25 49
M  V30 53 1 25 50
M  V30 54 1 26 51
M  V30 END BOND
M  V30 END CTAB
M  END
>  <Dataset>  (268) 
ChEMBL_Kinases

>  <Ligand_Instance>  (268) 
nan

>  <PDB_ID>  (268) 
nan

>  <Standardized_SMILES>  (268) 
COc1ccc(F)cc1-c1ccnc2[nH]c(C3CCCN(CCO)C3)cc12

>  <Name>  (268) 
nan

>  <Pocket>  (268) 
nan

>  <ATP_Site>  (268) 
nan

>  <Peripheral>  (268) 
nan

>  <Num_H_Atoms_ProtBoundConf>  (268) 
nan

>  <Num_Resolved_Atoms>  (268) 
nan

>  <Num_Not_Resolved_Atoms>  (268) 
nan

$$$$
CHEMBL3668401
     RDKit          3D

  0  0  0  0  0  0  0  0  0  0999 V3000
M  V30 BEGIN CTAB
M  V30 COUNTS 55 58 0 0 0
M  V30 BEGIN ATOM
M  V30 1 C 4.999516 -1.780759 2.489689 0
M  V30 2 O 4.279011 -0.672130 2.003757 0
M  V30 3 C 4.265019 -0.285175 0.669032 0
M  V30 4 C 5.007034 -1.050193 -0.202681 0
M  V30 5 C 5.005966 -0.681911 -1.528967 0
M  V30 6 C 4.325039 0.385240 -2.050562 0
M  V30 7 F 4.324478 0.745041 -3.355072 0
M  V30 8 C 3.587332 1.138463 -1.160054 0
M  V30 9 C 3.549819 0.818331 0.181513 0
M  V30 10 C 2.813606 1.516734 1.232899 0
M  V30 11 C 3.468958 2.517442 1.940795 0
M  V30 12 C 2.766586 3.168106 2.946304 0
M  V30 13 N 1.485282 2.844850 3.234993 0
M  V30 14 C 0.826684 1.878449 2.563493 0
M  V30 15 N -0.427699 1.405971 2.683133 0
M  V30 16 C -0.574738 0.436825 1.757883 0
M  V30 17 C -1.782851 -0.420536 1.472158 0
M  V30 18 C -1.436002 -1.864764 1.434893 0
M  V30 19 C -1.302475 -2.481513 0.081729 0
M  V30 20 C -1.752419 -1.610376 -1.052768 0
M  V30 21 N -2.912190 -0.856418 -0.682823 0
M  V30 22 C -4.054050 -1.597830 -0.323644 0
M  V30 23 C -4.712146 -2.358032 -1.437607 0
M  V30 24 C -5.918989 -3.117537 -0.903974 0
M  V30 25 N -6.917975 -2.270860 -0.317161 0
M  V30 26 C -2.550426 0.103560 0.296778 0
M  V30 27 C 0.615709 0.300222 1.044033 0
M  V30 28 C 1.506560 1.221197 1.561456 0
M  V30 29 H 4.964973 -1.757843 3.595042 0
M  V30 30 H 6.005009 -1.876104 2.055820 0
M  V30 31 H 4.410983 -2.686740 2.189184 0
M  V30 32 H 5.601372 -1.928793 0.059005 0
M  V30 33 H 5.584208 -1.265023 -2.259236 0
M  V30 34 H 2.990650 2.021389 -1.430050 0
M  V30 35 H 4.495023 2.772209 1.704495 0
M  V30 36 H 3.323263 3.947680 3.474279 0
M  V30 37 H -1.187893 1.700183 3.350536 0
M  V30 38 H -2.464624 -0.269849 2.353767 0
M  V30 39 H -2.056312 -2.482142 2.150413 0
M  V30 40 H -0.407009 -1.956208 1.898585 0
M  V30 41 H -0.272349 -2.821097 -0.175232 0
M  V30 42 H -1.890412 -3.441778 0.120470 0
M  V30 43 H -1.857481 -2.211958 -1.966977 0
M  V30 44 H -0.942472 -0.876054 -1.245131 0
M  V30 45 H -3.828493 -2.298061 0.512877 0
M  V30 46 H -4.815264 -0.899741 0.094729 0
M  V30 47 H -5.128087 -1.651829 -2.204847 0
M  V30 48 H -4.088919 -3.082134 -1.952256 0
M  V30 49 H -6.386615 -3.718607 -1.733955 0
M  V30 50 H -5.626563 -3.880460 -0.140994 0
M  V30 51 H -6.674252 -2.003772 0.680191 0
M  V30 52 H -7.779943 -2.878856 -0.197947 0
M  V30 53 H -3.474458 0.660802 0.584142 0
M  V30 54 H -1.915898 0.882609 -0.215976 0
M  V30 55 H 0.882005 -0.371158 0.227091 0
M  V30 END ATOM
M  V30 BEGIN BOND
M  V30 1 1 1 2
M  V30 2 1 2 3
M  V30 3 2 3 4
M  V30 4 1 4 5
M  V30 5 2 5 6
M  V30 6 1 6 7
M  V30 7 1 6 8
M  V30 8 2 8 9
M  V30 9 1 9 10
M  V30 10 2 10 11
M  V30 11 1 11 12
M  V30 12 2 12 13
M  V30 13 1 13 14
M  V30 14 1 14 15
M  V30 15 1 15 16
M  V30 16 1 16 17
M  V30 17 1 17 18
M  V30 18 1 18 19
M  V30 19 1 19 20
M  V30 20 1 20 21
M  V30 21 1 21 22
M  V30 22 1 22 23
M  V30 23 1 23 24
M  V30 24 1 24 25
M  V30 25 1 21 26
M  V30 26 2 16 27
M  V30 27 1 27 28
M  V30 28 1 9 3
M  V30 29 1 28 10
M  V30 30 2 28 14
M  V30 31 1 26 17
M  V30 32 1 1 29
M  V30 33 1 1 30
M  V30 34 1 1 31
M  V30 35 1 4 32
M  V30 36 1 5 33
M  V30 37 1 8 34
M  V30 38 1 11 35
M  V30 39 1 12 36
M  V30 40 1 15 37
M  V30 41 1 17 38
M  V30 42 1 18 39
M  V30 43 1 18 40
M  V30 44 1 19 41
M  V30 45 1 19 42
M  V30 46 1 20 43
M  V30 47 1 20 44
M  V30 48 1 22 45
M  V30 49 1 22 46
M  V30 50 1 23 47
M  V30 51 1 23 48
M  V30 52 1 24 49
M  V30 53 1 24 50
M  V30 54 1 25 51
M  V30 55 1 25 52
M  V30 56 1 26 53
M  V30 57 1 26 54
M  V30 58 1 27 55
M  V30 END BOND
M  V30 END CTAB
M  END
>  <Dataset>  (269) 
ChEMBL_Kinases

>  <Ligand_Instance>  (269) 
nan

>  <PDB_ID>  (269) 
nan

>  <Standardized_SMILES>  (269) 
COc1ccc(F)cc1-c1ccnc2[nH]c(C3CCCN(CCCN)C3)cc12

>  <Name>  (269) 
nan

>  <Pocket>  (269) 
nan

>  <ATP_Site>  (269) 
nan

>  <Peripheral>  (269) 
nan

>  <Num_H_Atoms_ProtBoundConf>  (269) 
nan

>  <Num_Resolved_Atoms>  (269) 
nan

>  <Num_Not_Resolved_Atoms>  (269) 
nan

$$$$
CHEMBL3668402
     RDKit          3D

  0  0  0  0  0  0  0  0  0  0999 V3000
M  V30 BEGIN CTAB
M  V30 COUNTS 54 57 0 0 0
M  V30 BEGIN ATOM
M  V30 1 C -1.181584 -2.266911 3.526679 0
M  V30 2 O -0.011871 -1.850528 4.125911 0
M  V30 3 C 1.087264 -2.460572 3.554811 0
M  V30 4 C 1.276092 -2.169051 2.107552 0
M  V30 5 N 2.408601 -2.784629 1.486817 0
M  V30 6 C 3.662484 -2.275561 1.906633 0
M  V30 7 C 4.135176 -1.062545 1.144808 0
M  V30 8 C 3.307882 -0.675120 -0.019555 0
M  V30 9 C 2.598771 -1.745915 -0.750754 0
M  V30 10 C 1.397046 -1.176081 -1.438827 0
M  V30 11 C 0.392937 -0.435699 -0.834534 0
M  V30 12 C -0.562577 -0.071958 -1.782258 0
M  V30 13 C -1.750760 0.667196 -1.700151 0
M  V30 14 C -2.199193 1.224281 -0.423394 0
M  V30 15 C -1.668690 2.489358 -0.209398 0
M  V30 16 C -1.935037 3.236239 0.928748 0
M  V30 17 F -1.438604 4.467561 1.175438 0
M  V30 18 C -2.775964 2.671779 1.889068 0
M  V30 19 C -3.301089 1.415323 1.672909 0
M  V30 20 C -3.028256 0.685923 0.539121 0
M  V30 21 O -3.495300 -0.573202 0.220265 0
M  V30 22 C -4.361466 -1.311670 1.064777 0
M  V30 23 C -2.506521 0.867159 -2.860965 0
M  V30 24 C -2.011941 0.306031 -4.035546 0
M  V30 25 N -0.870850 -0.393426 -4.069005 0
M  V30 26 C -0.110253 -0.613067 -2.983294 0
M  V30 27 N 1.045881 -1.255957 -2.741423 0
M  V30 28 C 2.246737 -2.943832 0.071319 0
M  V30 29 H -2.059804 -1.771279 4.037202 0
M  V30 30 H -1.284919 -3.362585 3.597543 0
M  V30 31 H -1.288364 -1.967260 2.454645 0
M  V30 32 H 0.997537 -3.571870 3.735967 0
M  V30 33 H 2.016008 -2.185936 4.133154 0
M  V30 34 H 1.426551 -1.056163 2.024332 0
M  V30 35 H 0.355737 -2.463521 1.537778 0
M  V30 36 H 4.458621 -3.082450 1.826519 0
M  V30 37 H 3.633971 -2.051359 2.986655 0
M  V30 38 H 5.203803 -1.198251 0.847487 0
M  V30 39 H 4.171931 -0.188990 1.854408 0
M  V30 40 H 4.002873 -0.168989 -0.752398 0
M  V30 41 H 2.602641 0.130418 0.272711 0
M  V30 42 H 3.256495 -2.130328 -1.582408 0
M  V30 43 H 0.271856 -0.136125 0.174589 0
M  V30 44 H -1.002103 3.030336 -0.883318 0
M  V30 45 H -3.046706 3.171574 2.812044 0
M  V30 46 H -3.955951 0.952416 2.396300 0
M  V30 47 H -4.143842 -1.053048 2.117720 0
M  V30 48 H -5.439448 -1.076199 0.851183 0
M  V30 49 H -4.209382 -2.389166 0.878892 0
M  V30 50 H -3.415445 1.441542 -2.764331 0
M  V30 51 H -2.618775 0.476801 -4.917453 0
M  V30 52 H 1.597656 -1.750598 -3.462053 0
M  V30 53 H 1.180477 -3.220652 -0.106048 0
M  V30 54 H 2.830624 -3.866900 -0.228174 0
M  V30 END ATOM
M  V30 BEGIN BOND
M  V30 1 1 1 2
M  V30 2 1 2 3
M  V30 3 1 3 4
M  V30 4 1 4 5
M  V30 5 1 5 6
M  V30 6 1 6 7
M  V30 7 1 7 8
M  V30 8 1 8 9
M  V30 9 1 9 10
M  V30 10 2 10 11
M  V30 11 1 11 12
M  V30 12 2 12 13
M  V30 13 1 13 14
M  V30 14 2 14 15
M  V30 15 1 15 16
M  V30 16 1 16 17
M  V30 17 2 16 18
M  V30 18 1 18 19
M  V30 19 2 19 20
M  V30 20 1 20 21
M  V30 21 1 21 22
M  V30 22 1 13 23
M  V30 23 2 23 24
M  V30 24 1 24 25
M  V30 25 2 25 26
M  V30 26 1 26 27
M  V30 27 1 9 28
M  V30 28 1 28 5
M  V30 29 1 27 10
M  V30 30 1 26 12
M  V30 31 1 20 14
M  V30 32 1 1 29
M  V30 33 1 1 30
M  V30 34 1 1 31
M  V30 35 1 3 32
M  V30 36 1 3 33
M  V30 37 1 4 34
M  V30 38 1 4 35
M  V30 39 1 6 36
M  V30 40 1 6 37
M  V30 41 1 7 38
M  V30 42 1 7 39
M  V30 43 1 8 40
M  V30 44 1 8 41
M  V30 45 1 9 42
M  V30 46 1 11 43
M  V30 47 1 15 44
M  V30 48 1 18 45
M  V30 49 1 19 46
M  V30 50 1 22 47
M  V30 51 1 22 48
M  V30 52 1 22 49
M  V30 53 1 23 50
M  V30 54 1 24 51
M  V30 55 1 27 52
M  V30 56 1 28 53
M  V30 57 1 28 54
M  V30 END BOND
M  V30 END CTAB
M  END
>  <Dataset>  (270) 
ChEMBL_Kinases

>  <Ligand_Instance>  (270) 
nan

>  <PDB_ID>  (270) 
nan

>  <Standardized_SMILES>  (270) 
COCCN1CCCC(c2cc3c(-c4cc(F)ccc4OC)ccnc3[nH]2)C1

>  <Name>  (270) 
nan

>  <Pocket>  (270) 
nan

>  <ATP_Site>  (270) 
nan

>  <Peripheral>  (270) 
nan

>  <Num_H_Atoms_ProtBoundConf>  (270) 
nan

>  <Num_Resolved_Atoms>  (270) 
nan

>  <Num_Not_Resolved_Atoms>  (270) 
nan

$$$$
CHEMBL3668412
     RDKit          3D

  0  0  0  0  0  0  0  0  0  0999 V3000
M  V30 BEGIN CTAB
M  V30 COUNTS 54 58 0 0 0
M  V30 BEGIN ATOM
M  V30 1 Cl 4.572489 -2.215140 2.963254 0
M  V30 2 C 3.916213 -2.243322 1.335923 0
M  V30 3 C 3.160768 -3.257492 0.809432 0
M  V30 4 C 2.672711 -3.232504 -0.483941 0
M  V30 5 C 2.951862 -2.155445 -1.273891 0
M  V30 6 C 3.720614 -1.118161 -0.743521 0
M  V30 7 C 4.212644 -1.144471 0.564456 0
M  V30 8 C 5.005495 0.057720 0.991442 0
M  V30 9 N 4.613138 1.205224 0.163121 0
M  V30 10 C 3.218148 1.488225 0.184095 0
M  V30 11 C 2.741640 2.530058 -0.592151 0
M  V30 12 C 1.408033 2.854095 -0.638014 0
M  V30 13 C 0.562960 2.088079 0.129131 0
M  V30 14 C 0.986830 1.048255 0.912056 0
M  V30 15 C 0.225919 0.207760 1.807851 0
M  V30 16 C 0.868653 -0.369430 2.911205 0
M  V30 17 C 0.263778 -1.197436 3.819609 0
M  V30 18 N -1.046713 -1.506293 3.681446 0
M  V30 19 C -1.732299 -0.997228 2.652764 0
M  V30 20 N -3.003868 -1.181296 2.269717 0
M  V30 21 C -3.221539 -0.494888 1.132407 0
M  V30 22 C -4.442167 -0.413235 0.300833 0
M  V30 23 C -5.287684 -1.650563 0.468709 0
M  V30 24 C -4.459710 -2.856917 0.102161 0
M  V30 25 N -3.960483 -2.823013 -1.247675 0
M  V30 26 C -3.201888 -1.626343 -1.478304 0
M  V30 27 C -4.055167 -0.400371 -1.185466 0
M  V30 28 C -2.032320 0.134231 0.817217 0
M  V30 29 C -1.095273 -0.174993 1.766174 0
M  V30 30 N 2.307127 0.807652 0.893488 0
M  V30 31 H 2.957492 -4.105961 1.469148 0
M  V30 32 H 2.073437 -4.057456 -0.874594 0
M  V30 33 H 2.565217 -2.135144 -2.299945 0
M  V30 34 H 3.888360 -0.305779 -1.443715 0
M  V30 35 H 4.698544 0.288091 2.027910 0
M  V30 36 H 6.080081 -0.141249 0.976381 0
M  V30 37 H 5.255839 1.782699 -0.405621 0
M  V30 38 H 3.476412 3.089723 -1.173531 0
M  V30 39 H 1.016387 3.673679 -1.238227 0
M  V30 40 H -0.464900 2.356140 0.114491 0
M  V30 41 H 1.930868 -0.192714 3.132459 0
M  V30 42 H 0.772206 -1.634962 4.669042 0
M  V30 43 H -3.723684 -1.764924 2.778546 0
M  V30 44 H -5.025577 0.474469 0.500142 0
M  V30 45 H -5.696678 -1.783197 1.487116 0
M  V30 46 H -6.110034 -1.566490 -0.276265 0
M  V30 47 H -3.578082 -2.987749 0.758849 0
M  V30 48 H -5.148541 -3.739496 0.171215 0
M  V30 49 H -3.273406 -3.626259 -1.321164 0
M  V30 50 H -2.919970 -1.581239 -2.539185 0
M  V30 51 H -2.294514 -1.650134 -0.847092 0
M  V30 52 H -3.525148 0.494377 -1.487647 0
M  V30 53 H -4.993837 -0.506518 -1.747529 0
M  V30 54 H -1.939424 0.733883 -0.055616 0
M  V30 END ATOM
M  V30 BEGIN BOND
M  V30 1 1 1 2
M  V30 2 2 2 3
M  V30 3 1 3 4
M  V30 4 2 4 5
M  V30 5 1 5 6
M  V30 6 2 6 7
M  V30 7 1 7 8
M  V30 8 1 8 9
M  V30 9 1 9 10
M  V30 10 2 10 11
M  V30 11 1 11 12
M  V30 12 2 12 13
M  V30 13 1 13 14
M  V30 14 1 14 15
M  V30 15 2 15 16
M  V30 16 1 16 17
M  V30 17 2 17 18
M  V30 18 1 18 19
M  V30 19 1 19 20
M  V30 20 1 20 21
M  V30 21 1 21 22
M  V30 22 1 22 23
M  V30 23 1 23 24
M  V30 24 1 24 25
M  V30 25 1 25 26
M  V30 26 1 26 27
M  V30 27 2 21 28
M  V30 28 1 28 29
M  V30 29 2 14 30
M  V30 30 1 7 2
M  V30 31 1 30 10
M  V30 32 1 29 15
M  V30 33 2 29 19
M  V30 34 1 27 22
M  V30 35 1 3 31
M  V30 36 1 4 32
M  V30 37 1 5 33
M  V30 38 1 6 34
M  V30 39 1 8 35
M  V30 40 1 8 36
M  V30 41 1 9 37
M  V30 42 1 11 38
M  V30 43 1 12 39
M  V30 44 1 13 40
M  V30 45 1 16 41
M  V30 46 1 17 42
M  V30 47 1 20 43
M  V30 48 1 22 44
M  V30 49 1 23 45
M  V30 50 1 23 46
M  V30 51 1 24 47
M  V30 52 1 24 48
M  V30 53 1 25 49
M  V30 54 1 26 50
M  V30 55 1 26 51
M  V30 56 1 27 52
M  V30 57 1 27 53
M  V30 58 1 28 54
M  V30 END BOND
M  V30 END CTAB
M  END
>  <Dataset>  (271) 
ChEMBL_Kinases

>  <Ligand_Instance>  (271) 
nan

>  <PDB_ID>  (271) 
nan

>  <Standardized_SMILES>  (271) 
Clc1ccccc1CNc1cccc(-c2ccnc3[nH]c(C4CCNCC4)cc23)n1

>  <Name>  (271) 
nan

>  <Pocket>  (271) 
nan

>  <ATP_Site>  (271) 
nan

>  <Peripheral>  (271) 
nan

>  <Num_H_Atoms_ProtBoundConf>  (271) 
nan

>  <Num_Resolved_Atoms>  (271) 
nan

>  <Num_Not_Resolved_Atoms>  (271) 
nan

$$$$
CHEMBL3668404
     RDKit          3D

  0  0  0  0  0  0  0  0  0  0999 V3000
M  V30 BEGIN CTAB
M  V30 COUNTS 44 47 0 0 0
M  V30 BEGIN ATOM
M  V30 1 C -0.284408 -5.631828 2.176633 0
M  V30 2 N -0.115820 -4.369903 1.477036 0
M  V30 3 C -0.416964 -4.504047 0.074047 0
M  V30 4 C 0.285971 -3.524317 -0.797174 0
M  V30 5 C 0.816304 -2.309839 -0.137561 0
M  V30 6 C -0.201621 -1.251058 0.104871 0
M  V30 7 C 0.301262 0.050284 0.226170 0
M  V30 8 C -0.754014 0.921747 0.463610 0
M  V30 9 C -0.899267 2.298568 0.681893 0
M  V30 10 C 0.398292 2.994234 0.629483 0
M  V30 11 N 1.292010 3.119853 -0.380267 0
M  V30 12 C 2.465619 3.785152 -0.156206 0
M  V30 13 N 3.326023 3.863146 -1.283717 0
M  V30 14 C 2.788495 4.342781 1.065125 0
M  V30 15 C 1.865426 4.216988 2.114355 0
M  V30 16 C 0.669834 3.531605 1.866073 0
M  V30 17 Cl -0.337394 3.469089 3.303235 0
M  V30 18 C -2.140919 2.842996 0.907359 0
M  V30 19 C -3.233492 2.010254 0.912389 0
M  V30 20 N -3.094042 0.670201 0.699882 0
M  V30 21 C -1.876898 0.134932 0.480103 0
M  V30 22 N -1.540813 -1.154485 0.266730 0
M  V30 23 C 1.567835 -2.623902 1.153224 0
M  V30 24 C 1.266290 -3.970698 1.706548 0
M  V30 25 H -0.078752 -5.504143 3.262075 0
M  V30 26 H -1.290403 -6.036102 1.964382 0
M  V30 27 H 0.460241 -6.349040 1.778594 0
M  V30 28 H -0.126204 -5.552503 -0.236062 0
M  V30 29 H -1.500555 -4.452571 -0.127268 0
M  V30 30 H 1.173075 -4.054799 -1.258275 0
M  V30 31 H -0.406896 -3.194282 -1.622997 0
M  V30 32 H 1.616795 -1.864389 -0.812623 0
M  V30 33 H 1.311397 0.404790 0.160627 0
M  V30 34 H 3.274586 4.912245 -1.473142 0
M  V30 35 H 3.925601 3.287276 -1.912587 0
M  V30 36 H 3.744784 4.843131 1.135888 0
M  V30 37 H 2.186107 4.671475 3.052437 0
M  V30 38 H -2.120725 3.916065 1.065379 0
M  V30 39 H -4.171904 2.495906 1.091753 0
M  V30 40 H -2.085199 -2.046554 0.205569 0
M  V30 41 H 2.671942 -2.570837 1.005854 0
M  V30 42 H 1.317019 -1.797377 1.879005 0
M  V30 43 H 1.949685 -4.749546 1.339904 0
M  V30 44 H 1.399584 -3.941318 2.825231 0
M  V30 END ATOM
M  V30 BEGIN BOND
M  V30 1 1 1 2
M  V30 2 1 2 3
M  V30 3 1 3 4
M  V30 4 1 4 5
M  V30 5 1 5 6
M  V30 6 2 6 7
M  V30 7 1 7 8
M  V30 8 2 8 9
M  V30 9 1 9 10
M  V30 10 2 10 11
M  V30 11 1 11 12
M  V30 12 1 12 13
M  V30 13 2 12 14
M  V30 14 1 14 15
M  V30 15 2 15 16
M  V30 16 1 16 17
M  V30 17 1 9 18
M  V30 18 2 18 19
M  V30 19 1 19 20
M  V30 20 2 20 21
M  V30 21 1 21 22
M  V30 22 1 5 23
M  V30 23 1 23 24
M  V30 24 1 24 2
M  V30 25 1 22 6
M  V30 26 1 21 8
M  V30 27 1 16 10
M  V30 28 1 1 25
M  V30 29 1 1 26
M  V30 30 1 1 27
M  V30 31 1 3 28
M  V30 32 1 3 29
M  V30 33 1 4 30
M  V30 34 1 4 31
M  V30 35 1 5 32
M  V30 36 1 7 33
M  V30 37 1 13 34
M  V30 38 1 13 35
M  V30 39 1 14 36
M  V30 40 1 15 37
M  V30 41 1 18 38
M  V30 42 1 19 39
M  V30 43 1 22 40
M  V30 44 1 23 41
M  V30 45 1 23 42
M  V30 46 1 24 43
M  V30 47 1 24 44
M  V30 END BOND
M  V30 END CTAB
M  END
>  <Dataset>  (272) 
ChEMBL_Kinases

>  <Ligand_Instance>  (272) 
nan

>  <PDB_ID>  (272) 
nan

>  <Standardized_SMILES>  (272) 
CN1CCC(c2cc3c(-c4nc(N)ccc4Cl)ccnc3[nH]2)CC1

>  <Name>  (272) 
nan

>  <Pocket>  (272) 
nan

>  <ATP_Site>  (272) 
nan

>  <Peripheral>  (272) 
nan

>  <Num_H_Atoms_ProtBoundConf>  (272) 
nan

>  <Num_Resolved_Atoms>  (272) 
nan

>  <Num_Not_Resolved_Atoms>  (272) 
nan

$$$$
CHEMBL3668405
     RDKit          3D

  0  0  0  0  0  0  0  0  0  0999 V3000
M  V30 BEGIN CTAB
M  V30 COUNTS 55 59 0 0 0
M  V30 BEGIN ATOM
M  V30 1 C 0.072411 0.179635 5.041724 0
M  V30 2 N 0.173452 -0.819359 4.035878 0
M  V30 3 C 1.224003 -1.758798 4.146319 0
M  V30 4 C 2.423927 -1.520929 3.326984 0
M  V30 5 C 2.256639 -0.659342 2.102858 0
M  V30 6 C 2.181955 -1.521916 0.870887 0
M  V30 7 C 1.246774 -1.564403 -0.133458 0
M  V30 8 C 1.556173 -2.541592 -1.055687 0
M  V30 9 C 0.990516 -3.025820 -2.213448 0
M  V30 10 C -0.201253 -2.372425 -2.694691 0
M  V30 11 N -0.621279 -1.264546 -2.109876 0
M  V30 12 C -1.710908 -0.570392 -2.437509 0
M  V30 13 N -1.985238 0.604982 -1.714428 0
M  V30 14 C -2.449922 1.450230 -0.698670 0
M  V30 15 N -1.577836 1.807195 0.260870 0
M  V30 16 C -1.948818 2.617643 1.269512 0
M  V30 17 N -1.141433 3.092604 2.356632 0
M  V30 18 C -3.260848 3.027022 1.220274 0
M  V30 19 C -4.215649 2.707650 0.274996 0
M  V30 20 C -3.758699 1.863371 -0.741356 0
M  V30 21 Cl -4.921012 1.423421 -1.969289 0
M  V30 22 C -2.543264 -0.957097 -3.462090 0
M  V30 23 C -2.168483 -2.107362 -4.119642 0
M  V30 24 C -1.033731 -2.754122 -3.714661 0
M  V30 25 Cl -0.693695 -4.203830 -4.608247 0
M  V30 26 C 1.700849 -4.052365 -2.760310 0
M  V30 27 C 2.860557 -4.618799 -2.296259 0
M  V30 28 N 3.380611 -4.101834 -1.145755 0
M  V30 29 C 2.728845 -3.071194 -0.534457 0
M  V30 30 N 3.083854 -2.456965 0.602417 0
M  V30 31 C 1.140556 0.313604 2.172596 0
M  V30 32 C -0.098545 -0.381951 2.689086 0
M  V30 33 H 0.934803 0.839336 5.174642 0
M  V30 34 H -0.818137 0.814310 4.778034 0
M  V30 35 H -0.197931 -0.276245 6.034979 0
M  V30 36 H 0.783170 -2.777748 3.946147 0
M  V30 37 H 1.511614 -1.821225 5.237071 0
M  V30 38 H 2.794069 -2.522107 2.962299 0
M  V30 39 H 3.248492 -1.138873 3.970498 0
M  V30 40 H 3.215731 -0.114848 1.991155 0
M  V30 41 H 0.425942 -0.888570 -0.114530 0
M  V30 42 H -1.565938 1.341249 -2.359014 0
M  V30 43 H -1.138010 2.719309 3.332878 0
M  V30 44 H -0.595616 3.867722 1.915299 0
M  V30 45 H -3.621470 3.684227 2.009505 0
M  V30 46 H -5.214118 3.076903 0.322123 0
M  V30 47 H -3.434393 -0.426414 -3.763304 0
M  V30 48 H -2.804232 -2.433232 -4.927251 0
M  V30 49 H 1.372484 -4.498005 -3.653584 0
M  V30 50 H 3.375171 -5.430057 -2.775213 0
M  V30 51 H 3.937324 -2.678640 1.187240 0
M  V30 52 H 0.960004 0.715987 1.162588 0
M  V30 53 H 1.383746 1.128437 2.875049 0
M  V30 54 H -0.904777 0.358753 2.751610 0
M  V30 55 H -0.393357 -1.243521 2.087823 0
M  V30 END ATOM
M  V30 BEGIN BOND
M  V30 1 1 1 2
M  V30 2 1 2 3
M  V30 3 1 3 4
M  V30 4 1 4 5
M  V30 5 1 5 6
M  V30 6 2 6 7
M  V30 7 1 7 8
M  V30 8 2 8 9
M  V30 9 1 9 10
M  V30 10 2 10 11
M  V30 11 1 11 12
M  V30 12 1 12 13
M  V30 13 1 13 14
M  V30 14 2 14 15
M  V30 15 1 15 16
M  V30 16 1 16 17
M  V30 17 2 16 18
M  V30 18 1 18 19
M  V30 19 2 19 20
M  V30 20 1 20 21
M  V30 21 2 12 22
M  V30 22 1 22 23
M  V30 23 2 23 24
M  V30 24 1 24 25
M  V30 25 1 9 26
M  V30 26 2 26 27
M  V30 27 1 27 28
M  V30 28 2 28 29
M  V30 29 1 29 30
M  V30 30 1 5 31
M  V30 31 1 31 32
M  V30 32 1 32 2
M  V30 33 1 30 6
M  V30 34 1 29 8
M  V30 35 1 24 10
M  V30 36 1 20 14
M  V30 37 1 1 33
M  V30 38 1 1 34
M  V30 39 1 1 35
M  V30 40 1 3 36
M  V30 41 1 3 37
M  V30 42 1 4 38
M  V30 43 1 4 39
M  V30 44 1 5 40
M  V30 45 1 7 41
M  V30 46 1 13 42
M  V30 47 1 17 43
M  V30 48 1 17 44
M  V30 49 1 18 45
M  V30 50 1 19 46
M  V30 51 1 22 47
M  V30 52 1 23 48
M  V30 53 1 26 49
M  V30 54 1 27 50
M  V30 55 1 30 51
M  V30 56 1 31 52
M  V30 57 1 31 53
M  V30 58 1 32 54
M  V30 59 1 32 55
M  V30 END BOND
M  V30 END CTAB
M  END
>  <Dataset>  (273) 
ChEMBL_Kinases

>  <Ligand_Instance>  (273) 
nan

>  <PDB_ID>  (273) 
nan

>  <Standardized_SMILES>  (273) 
CN1CCC(c2cc3c(-c4nc(Nc5nc(N)ccc5Cl)ccc4Cl)ccnc3[nH]2)CC1

>  <Name>  (273) 
nan

>  <Pocket>  (273) 
nan

>  <ATP_Site>  (273) 
nan

>  <Peripheral>  (273) 
nan

>  <Num_H_Atoms_ProtBoundConf>  (273) 
nan

>  <Num_Resolved_Atoms>  (273) 
nan

>  <Num_Not_Resolved_Atoms>  (273) 
nan

$$$$
CHEMBL3668406
     RDKit          3D

  0  0  0  0  0  0  0  0  0  0999 V3000
M  V30 BEGIN CTAB
M  V30 COUNTS 61 65 0 0 0
M  V30 BEGIN ATOM
M  V30 1 C -0.484460 0.096233 5.387399 0
M  V30 2 N -0.520406 -0.742884 4.237842 0
M  V30 3 C -0.083145 -2.091787 4.425664 0
M  V30 4 C 1.278774 -2.411821 3.994898 0
M  V30 5 C 2.018415 -1.494601 3.111064 0
M  V30 6 C 2.117211 -1.972400 1.702227 0
M  V30 7 C 1.743374 -1.507271 0.447855 0
M  V30 8 C 2.117068 -2.449623 -0.519895 0
M  V30 9 C 1.988304 -2.458117 -1.888876 0
M  V30 10 C 1.334629 -1.366943 -2.556355 0
M  V30 11 N 0.685788 -0.430932 -1.866040 0
M  V30 12 C 0.079042 0.656699 -2.332666 0
M  V30 13 N -0.616895 1.587230 -1.519238 0
M  V30 14 C -1.092970 1.626315 -0.173376 0
M  V30 15 C -2.394289 0.905575 0.026404 0
M  V30 16 C -2.399688 -0.547845 -0.301832 0
M  V30 17 C -3.851221 -1.006364 -0.200392 0
M  V30 18 O -4.626487 -0.438142 -1.204468 0
M  V30 19 C -3.981437 0.585323 -1.865830 0
M  V30 20 C -3.468626 1.568583 -0.840963 0
M  V30 21 C 0.099956 0.880584 -3.679752 0
M  V30 22 C 0.734372 -0.001500 -4.528115 0
M  V30 23 C 1.316929 -1.079663 -3.902633 0
M  V30 24 Cl 2.137291 -2.133117 -5.028327 0
M  V30 25 C 2.522651 -3.599127 -2.429162 0
M  V30 26 C 3.125527 -4.646047 -1.777660 0
M  V30 27 N 3.208406 -4.551148 -0.434205 0
M  V30 28 C 2.702802 -3.448432 0.199934 0
M  V30 29 N 2.705238 -3.170738 1.515186 0
M  V30 30 C 1.521532 -0.086568 3.191929 0
M  V30 31 C 0.019200 -0.114459 3.068861 0
M  V30 32 H -0.604163 -0.475160 6.331436 0
M  V30 33 H -1.404329 0.745535 5.343815 0
M  V30 34 H 0.359144 0.812975 5.416051 0
M  V30 35 H -0.214906 -2.328006 5.503900 0
M  V30 36 H -0.820554 -2.781027 3.917113 0
M  V30 37 H 1.284512 -3.424686 3.480430 0
M  V30 38 H 1.923577 -2.622641 4.905022 0
M  V30 39 H 3.098647 -1.457293 3.459373 0
M  V30 40 H 1.260810 -0.568024 0.373163 0
M  V30 41 H -0.877230 2.515114 -1.985017 0
M  V30 42 H -0.323133 1.219634 0.548989 0
M  V30 43 H -1.243283 2.663722 0.168910 0
M  V30 44 H -2.720052 0.996789 1.096928 0
M  V30 45 H -1.955842 -0.828839 -1.263461 0
M  V30 46 H -1.865571 -1.143693 0.482242 0
M  V30 47 H -3.964334 -2.097559 -0.178395 0
M  V30 48 H -4.213963 -0.600852 0.766807 0
M  V30 49 H -4.707945 1.120490 -2.511995 0
M  V30 50 H -3.202856 0.154431 -2.511892 0
M  V30 51 H -4.329639 1.876959 -0.219105 0
M  V30 52 H -3.046968 2.484302 -1.305636 0
M  V30 53 H -0.383104 1.763839 -4.125129 0
M  V30 54 H 0.744637 0.184281 -5.587706 0
M  V30 55 H 2.477864 -3.753719 -3.483488 0
M  V30 56 H 3.522028 -5.512373 -2.281634 0
M  V30 57 H 3.120643 -3.835797 2.224084 0
M  V30 58 H 1.941063 0.438239 2.281540 0
M  V30 59 H 1.863571 0.411552 4.120383 0
M  V30 60 H -0.412293 0.906178 3.025567 0
M  V30 61 H -0.271034 -0.682001 2.183656 0
M  V30 END ATOM
M  V30 BEGIN BOND
M  V30 1 1 1 2
M  V30 2 1 2 3
M  V30 3 1 3 4
M  V30 4 1 4 5
M  V30 5 1 5 6
M  V30 6 2 6 7
M  V30 7 1 7 8
M  V30 8 2 8 9
M  V30 9 1 9 10
M  V30 10 2 10 11
M  V30 11 1 11 12
M  V30 12 1 12 13
M  V30 13 1 13 14
M  V30 14 1 14 15
M  V30 15 1 15 16
M  V30 16 1 16 17
M  V30 17 1 17 18
M  V30 18 1 18 19
M  V30 19 1 19 20
M  V30 20 2 12 21
M  V30 21 1 21 22
M  V30 22 2 22 23
M  V30 23 1 23 24
M  V30 24 1 9 25
M  V30 25 2 25 26
M  V30 26 1 26 27
M  V30 27 2 27 28
M  V30 28 1 28 29
M  V30 29 1 5 30
M  V30 30 1 30 31
M  V30 31 1 31 2
M  V30 32 1 29 6
M  V30 33 1 28 8
M  V30 34 1 23 10
M  V30 35 1 20 15
M  V30 36 1 1 32
M  V30 37 1 1 33
M  V30 38 1 1 34
M  V30 39 1 3 35
M  V30 40 1 3 36
M  V30 41 1 4 37
M  V30 42 1 4 38
M  V30 43 1 5 39
M  V30 44 1 7 40
M  V30 45 1 13 41
M  V30 46 1 14 42
M  V30 47 1 14 43
M  V30 48 1 15 44
M  V30 49 1 16 45
M  V30 50 1 16 46
M  V30 51 1 17 47
M  V30 52 1 17 48
M  V30 53 1 19 49
M  V30 54 1 19 50
M  V30 55 1 20 51
M  V30 56 1 20 52
M  V30 57 1 21 53
M  V30 58 1 22 54
M  V30 59 1 25 55
M  V30 60 1 26 56
M  V30 61 1 29 57
M  V30 62 1 30 58
M  V30 63 1 30 59
M  V30 64 1 31 60
M  V30 65 1 31 61
M  V30 END BOND
M  V30 END CTAB
M  END
>  <Dataset>  (274) 
ChEMBL_Kinases

>  <Ligand_Instance>  (274) 
nan

>  <PDB_ID>  (274) 
nan

>  <Standardized_SMILES>  (274) 
CN1CCC(c2cc3c(-c4nc(NCC5CCOCC5)ccc4Cl)ccnc3[nH]2)CC1

>  <Name>  (274) 
nan

>  <Pocket>  (274) 
nan

>  <ATP_Site>  (274) 
nan

>  <Peripheral>  (274) 
nan

>  <Num_H_Atoms_ProtBoundConf>  (274) 
nan

>  <Num_Resolved_Atoms>  (274) 
nan

>  <Num_Not_Resolved_Atoms>  (274) 
nan

$$$$
CHEMBL3668407
     RDKit          3D

  0  0  0  0  0  0  0  0  0  0999 V3000
M  V30 BEGIN CTAB
M  V30 COUNTS 49 52 0 0 0
M  V30 BEGIN ATOM
M  V30 1 C 4.568522 -1.821365 3.198179 0
M  V30 2 O 3.922040 -1.281653 2.065902 0
M  V30 3 C 4.015352 -1.914211 0.832101 0
M  V30 4 C 4.715943 -3.080885 0.593604 0
M  V30 5 C 4.775407 -3.662841 -0.643176 0
M  V30 6 C 4.124452 -3.097059 -1.727031 0
M  V30 7 F 4.210564 -3.709675 -2.938259 0
M  V30 8 C 3.415542 -1.926894 -1.511812 0
M  V30 9 C 3.360167 -1.343350 -0.255281 0
M  V30 10 C 2.581505 -0.122149 -0.180314 0
M  V30 11 C 3.152704 1.137821 -0.393264 0
M  V30 12 C 2.365511 2.275565 -0.310356 0
M  V30 13 N 1.031176 2.217748 -0.024282 0
M  V30 14 C 0.439593 1.016381 0.188696 0
M  V30 15 N -0.815008 0.657883 0.479942 0
M  V30 16 C -0.948524 -0.674234 0.605580 0
M  V30 17 C -2.113303 -1.546140 0.911794 0
M  V30 18 C -2.782759 -1.136647 2.191855 0
M  V30 19 C -4.192829 -0.604116 1.934836 0
M  V30 20 N -4.202241 0.365650 0.880644 0
M  V30 21 C -4.525124 1.746370 0.942512 0
M  V30 22 C -4.899026 2.227104 2.284048 0
M  V30 23 O -4.473564 2.451898 -0.119043 0
M  V30 24 C -3.817414 -0.238658 -0.376571 0
M  V30 25 C -3.097011 -1.534105 -0.230034 0
M  V30 26 C 0.353254 -1.132576 0.364297 0
M  V30 27 C 1.236909 -0.105943 0.102512 0
M  V30 28 H 4.530678 -2.921908 3.224863 0
M  V30 29 H 5.577448 -1.388611 3.328442 0
M  V30 30 H 3.949059 -1.499997 4.085619 0
M  V30 31 H 5.225637 -3.537298 1.408444 0
M  V30 32 H 5.346337 -4.580654 -0.754562 0
M  V30 33 H 2.926941 -1.523257 -2.378367 0
M  V30 34 H 4.214307 1.222034 -0.623674 0
M  V30 35 H 2.881417 3.227756 -0.489071 0
M  V30 36 H -1.598856 1.327782 0.598821 0
M  V30 37 H -1.753600 -2.599009 1.031872 0
M  V30 38 H -2.190798 -0.278746 2.616245 0
M  V30 39 H -2.806729 -1.990782 2.893750 0
M  V30 40 H -4.824878 -1.467204 1.621797 0
M  V30 41 H -4.592067 -0.134612 2.856947 0
M  V30 42 H -4.053473 2.207757 3.006127 0
M  V30 43 H -5.729240 1.584064 2.648836 0
M  V30 44 H -5.294377 3.265225 2.198520 0
M  V30 45 H -4.741511 -0.377363 -1.016310 0
M  V30 46 H -3.205999 0.494964 -0.951679 0
M  V30 47 H -2.534032 -1.704989 -1.192114 0
M  V30 48 H -3.785874 -2.407641 -0.114873 0
M  V30 49 H 0.650672 -2.188882 0.378886 0
M  V30 END ATOM
M  V30 BEGIN BOND
M  V30 1 1 1 2
M  V30 2 1 2 3
M  V30 3 2 3 4
M  V30 4 1 4 5
M  V30 5 2 5 6
M  V30 6 1 6 7
M  V30 7 1 6 8
M  V30 8 2 8 9
M  V30 9 1 9 10
M  V30 10 2 10 11
M  V30 11 1 11 12
M  V30 12 2 12 13
M  V30 13 1 13 14
M  V30 14 1 14 15
M  V30 15 1 15 16
M  V30 16 1 16 17
M  V30 17 1 17 18
M  V30 18 1 18 19
M  V30 19 1 19 20
M  V30 20 1 20 21
M  V30 21 1 21 22
M  V30 22 2 21 23
M  V30 23 1 20 24
M  V30 24 1 24 25
M  V30 25 2 16 26
M  V30 26 1 26 27
M  V30 27 1 9 3
M  V30 28 1 27 10
M  V30 29 2 27 14
M  V30 30 1 25 17
M  V30 31 1 1 28
M  V30 32 1 1 29
M  V30 33 1 1 30
M  V30 34 1 4 31
M  V30 35 1 5 32
M  V30 36 1 8 33
M  V30 37 1 11 34
M  V30 38 1 12 35
M  V30 39 1 15 36
M  V30 40 1 17 37
M  V30 41 1 18 38
M  V30 42 1 18 39
M  V30 43 1 19 40
M  V30 44 1 19 41
M  V30 45 1 22 42
M  V30 46 1 22 43
M  V30 47 1 22 44
M  V30 48 1 24 45
M  V30 49 1 24 46
M  V30 50 1 25 47
M  V30 51 1 25 48
M  V30 52 1 26 49
M  V30 END BOND
M  V30 END CTAB
M  END
>  <Dataset>  (275) 
ChEMBL_Kinases

>  <Ligand_Instance>  (275) 
nan

>  <PDB_ID>  (275) 
nan

>  <Standardized_SMILES>  (275) 
COc1ccc(F)cc1-c1ccnc2[nH]c(C3CCN(C(C)=O)CC3)cc12

>  <Name>  (275) 
nan

>  <Pocket>  (275) 
nan

>  <ATP_Site>  (275) 
nan

>  <Peripheral>  (275) 
nan

>  <Num_H_Atoms_ProtBoundConf>  (275) 
nan

>  <Num_Resolved_Atoms>  (275) 
nan

>  <Num_Not_Resolved_Atoms>  (275) 
nan

$$$$
CHEMBL3668408
     RDKit          3D

  0  0  0  0  0  0  0  0  0  0999 V3000
M  V30 BEGIN CTAB
M  V30 COUNTS 50 53 0 0 0
M  V30 BEGIN ATOM
M  V30 1 C 4.787005 -2.770688 0.750789 0
M  V30 2 O 4.088075 -1.594315 0.482890 0
M  V30 3 C 4.052338 -0.910880 -0.712857 0
M  V30 4 C 4.768259 -1.391604 -1.811965 0
M  V30 5 C 4.781430 -0.760151 -3.046491 0
M  V30 6 C 4.043607 0.402510 -3.179144 0
M  V30 7 F 4.032913 1.048311 -4.373849 0
M  V30 8 C 3.321257 0.913508 -2.119391 0
M  V30 9 C 3.324484 0.266004 -0.900485 0
M  V30 10 C 2.601956 0.708326 0.289986 0
M  V30 11 C 3.202078 1.569246 1.212974 0
M  V30 12 C 2.416145 1.914430 2.296313 0
M  V30 13 N 1.160263 1.460535 2.462472 0
M  V30 14 C 0.554001 0.627423 1.587031 0
M  V30 15 N -0.642921 0.018303 1.470618 0
M  V30 16 C -0.721546 -0.724385 0.369301 0
M  V30 17 C -1.930926 -1.521264 -0.030704 0
M  V30 18 C -2.187184 -2.683245 0.878532 0
M  V30 19 C -2.989731 -2.368520 2.098275 0
M  V30 20 N -3.812944 -1.196549 1.890827 0
M  V30 21 C -4.046865 -0.417821 3.041417 0
M  V30 22 O -3.456195 -0.946556 4.037493 0
M  V30 23 C -4.862566 0.826213 3.060383 0
M  V30 24 O -4.870008 1.318159 4.365021 0
M  V30 25 C -4.305379 -0.944333 0.548748 0
M  V30 26 C -3.107353 -0.674735 -0.331345 0
M  V30 27 C 0.511254 -0.583647 -0.268223 0
M  V30 28 C 1.307259 0.261434 0.494013 0
M  V30 29 H 5.733812 -2.846347 0.164169 0
M  V30 30 H 5.133618 -2.696871 1.822316 0
M  V30 31 H 4.176428 -3.686808 0.689837 0
M  V30 32 H 5.361428 -2.295122 -1.764491 0
M  V30 33 H 5.345577 -1.156560 -3.879213 0
M  V30 34 H 2.729089 1.824588 -2.184031 0
M  V30 35 H 4.206217 1.905253 1.038249 0
M  V30 36 H 2.866927 2.578934 3.017356 0
M  V30 37 H -1.331725 0.199165 2.230715 0
M  V30 38 H -1.620915 -2.008614 -1.004465 0
M  V30 39 H -1.176496 -3.044875 1.220758 0
M  V30 40 H -2.606586 -3.557985 0.306188 0
M  V30 41 H -2.405974 -2.354889 3.030255 0
M  V30 42 H -3.720945 -3.215656 2.236323 0
M  V30 43 H -4.451622 1.621477 2.400577 0
M  V30 44 H -5.883240 0.550453 2.710972 0
M  V30 45 H -3.958393 1.096863 4.735866 0
M  V30 46 H -4.846756 -1.844979 0.137074 0
M  V30 47 H -5.000022 -0.079451 0.541918 0
M  V30 48 H -3.496035 -0.813842 -1.378275 0
M  V30 49 H -2.926913 0.412450 -0.263922 0
M  V30 50 H 0.755341 -1.074330 -1.201538 0
M  V30 END ATOM
M  V30 BEGIN BOND
M  V30 1 1 1 2
M  V30 2 1 2 3
M  V30 3 2 3 4
M  V30 4 1 4 5
M  V30 5 2 5 6
M  V30 6 1 6 7
M  V30 7 1 6 8
M  V30 8 2 8 9
M  V30 9 1 9 10
M  V30 10 2 10 11
M  V30 11 1 11 12
M  V30 12 2 12 13
M  V30 13 1 13 14
M  V30 14 1 14 15
M  V30 15 1 15 16
M  V30 16 1 16 17
M  V30 17 1 17 18
M  V30 18 1 18 19
M  V30 19 1 19 20
M  V30 20 1 20 21
M  V30 21 2 21 22
M  V30 22 1 21 23
M  V30 23 1 23 24
M  V30 24 1 20 25
M  V30 25 1 25 26
M  V30 26 2 16 27
M  V30 27 1 27 28
M  V30 28 1 9 3
M  V30 29 1 28 10
M  V30 30 2 28 14
M  V30 31 1 26 17
M  V30 32 1 1 29
M  V30 33 1 1 30
M  V30 34 1 1 31
M  V30 35 1 4 32
M  V30 36 1 5 33
M  V30 37 1 8 34
M  V30 38 1 11 35
M  V30 39 1 12 36
M  V30 40 1 15 37
M  V30 41 1 17 38
M  V30 42 1 18 39
M  V30 43 1 18 40
M  V30 44 1 19 41
M  V30 45 1 19 42
M  V30 46 1 23 43
M  V30 47 1 23 44
M  V30 48 1 24 45
M  V30 49 1 25 46
M  V30 50 1 25 47
M  V30 51 1 26 48
M  V30 52 1 26 49
M  V30 53 1 27 50
M  V30 END BOND
M  V30 END CTAB
M  END
>  <Dataset>  (276) 
ChEMBL_Kinases

>  <Ligand_Instance>  (276) 
nan

>  <PDB_ID>  (276) 
nan

>  <Standardized_SMILES>  (276) 
COc1ccc(F)cc1-c1ccnc2[nH]c(C3CCN(C(=O)CO)CC3)cc12

>  <Name>  (276) 
nan

>  <Pocket>  (276) 
nan

>  <ATP_Site>  (276) 
nan

>  <Peripheral>  (276) 
nan

>  <Num_H_Atoms_ProtBoundConf>  (276) 
nan

>  <Num_Resolved_Atoms>  (276) 
nan

>  <Num_Not_Resolved_Atoms>  (276) 
nan

$$$$
CHEMBL3668409
     RDKit          3D

  0  0  0  0  0  0  0  0  0  0999 V3000
M  V30 BEGIN CTAB
M  V30 COUNTS 45 48 0 0 0
M  V30 BEGIN ATOM
M  V30 1 C -1.820459 -4.160871 0.186681 0
M  V30 2 O -1.581378 -2.869351 -0.294928 0
M  V30 3 C -0.546426 -2.521468 -1.132130 0
M  V30 4 C 0.453751 -3.338388 -1.666812 0
M  V30 5 C 1.411992 -2.801409 -2.493100 0
M  V30 6 C 2.407781 -3.695151 -3.006312 0
M  V30 7 N 3.213004 -4.421566 -3.403355 0
M  V30 8 C 1.459064 -1.473108 -2.843494 0
M  V30 9 C 0.470976 -0.660197 -2.316672 0
M  V30 10 C -0.515628 -1.174067 -1.475209 0
M  V30 11 C -1.492059 -0.194737 -0.996507 0
M  V30 12 C -2.677638 0.130095 -1.626039 0
M  V30 13 C -3.537797 1.070697 -1.095240 0
M  V30 14 N -3.208817 1.689224 0.072205 0
M  V30 15 C -2.042369 1.372319 0.695339 0
M  V30 16 N -1.591007 1.900036 1.847543 0
M  V30 17 C -0.408744 1.332110 2.133500 0
M  V30 18 C 0.641552 1.415523 3.211236 0
M  V30 19 C 0.834457 0.061370 3.833289 0
M  V30 20 C 2.303834 -0.339250 3.861563 0
M  V30 21 C 3.181746 0.834967 4.300670 0
M  V30 22 N 3.012389 1.987553 3.456565 0
M  V30 23 C 1.919212 1.852653 2.536694 0
M  V30 24 C -0.097968 0.411860 1.128620 0
M  V30 25 C -1.150283 0.440152 0.205567 0
M  V30 26 H -2.917868 -4.361972 0.151413 0
M  V30 27 H -1.301321 -4.968634 -0.352887 0
M  V30 28 H -1.475270 -4.231625 1.249242 0
M  V30 29 H 0.369118 -4.366365 -1.360511 0
M  V30 30 H 2.234124 -1.114760 -3.493742 0
M  V30 31 H 0.516398 0.386395 -2.598832 0
M  V30 32 H -2.843756 -0.422916 -2.552722 0
M  V30 33 H -4.445367 1.266268 -1.651518 0
M  V30 34 H -1.928891 2.609300 2.532044 0
M  V30 35 H 0.318896 2.160390 3.959966 0
M  V30 36 H 0.315222 -0.737405 3.239377 0
M  V30 37 H 0.398626 -0.007208 4.851136 0
M  V30 38 H 2.487933 -1.135745 4.593913 0
M  V30 39 H 2.655998 -0.649895 2.864212 0
M  V30 40 H 2.995210 1.137276 5.343722 0
M  V30 41 H 4.229968 0.453468 4.210395 0
M  V30 42 H 3.875451 2.170458 2.904541 0
M  V30 43 H 1.789303 2.801223 1.991534 0
M  V30 44 H 2.191693 1.063004 1.798231 0
M  V30 45 H 0.724185 -0.273258 0.920958 0
M  V30 END ATOM
M  V30 BEGIN BOND
M  V30 1 1 1 2
M  V30 2 1 2 3
M  V30 3 2 3 4
M  V30 4 1 4 5
M  V30 5 1 5 6
M  V30 6 3 6 7
M  V30 7 2 5 8
M  V30 8 1 8 9
M  V30 9 2 9 10
M  V30 10 1 10 11
M  V30 11 2 11 12
M  V30 12 1 12 13
M  V30 13 2 13 14
M  V30 14 1 14 15
M  V30 15 1 15 16
M  V30 16 1 16 17
M  V30 17 1 17 18
M  V30 18 1 18 19
M  V30 19 1 19 20
M  V30 20 1 20 21
M  V30 21 1 21 22
M  V30 22 1 22 23
M  V30 23 2 17 24
M  V30 24 1 24 25
M  V30 25 1 10 3
M  V30 26 1 25 11
M  V30 27 2 25 15
M  V30 28 1 23 18
M  V30 29 1 1 26
M  V30 30 1 1 27
M  V30 31 1 1 28
M  V30 32 1 4 29
M  V30 33 1 8 30
M  V30 34 1 9 31
M  V30 35 1 12 32
M  V30 36 1 13 33
M  V30 37 1 16 34
M  V30 38 1 18 35
M  V30 39 1 19 36
M  V30 40 1 19 37
M  V30 41 1 20 38
M  V30 42 1 20 39
M  V30 43 1 21 40
M  V30 44 1 21 41
M  V30 45 1 22 42
M  V30 46 1 23 43
M  V30 47 1 23 44
M  V30 48 1 24 45
M  V30 END BOND
M  V30 END CTAB
M  END
>  <Dataset>  (277) 
ChEMBL_Kinases

>  <Ligand_Instance>  (277) 
nan

>  <PDB_ID>  (277) 
nan

>  <Standardized_SMILES>  (277) 
COc1cc(C#N)ccc1-c1ccnc2[nH]c(C3CCCNC3)cc12

>  <Name>  (277) 
nan

>  <Pocket>  (277) 
nan

>  <ATP_Site>  (277) 
nan

>  <Peripheral>  (277) 
nan

>  <Num_H_Atoms_ProtBoundConf>  (277) 
nan

>  <Num_Resolved_Atoms>  (277) 
nan

>  <Num_Not_Resolved_Atoms>  (277) 
nan

$$$$
CHEMBL3668410
     RDKit          3D

  0  0  0  0  0  0  0  0  0  0999 V3000
M  V30 BEGIN CTAB
M  V30 COUNTS 57 61 0 0 0
M  V30 BEGIN ATOM
M  V30 1 C 1.961565 -5.718589 3.579977 0
M  V30 2 C 2.279112 -4.905481 4.675138 0
M  V30 3 C 2.493171 -3.554827 4.538267 0
M  V30 4 C 2.401687 -2.937527 3.291291 0
M  V30 5 C 2.588017 -1.539525 2.895429 0
M  V30 6 C 4.004134 -1.261516 2.525004 0
M  V30 7 N 4.153304 0.134578 2.085764 0
M  V30 8 C 3.224046 0.151701 0.971301 0
M  V30 9 C 3.545483 -0.563036 -0.168242 0
M  V30 10 C 2.650050 -0.556307 -1.248674 0
M  V30 11 C 1.524516 0.190646 -1.024872 0
M  V30 12 C 1.149119 0.910200 0.059953 0
M  V30 13 C 0.012603 1.754848 0.318612 0
M  V30 14 C 0.166624 2.769641 1.275758 0
M  V30 15 C -0.811008 3.656599 1.652997 0
M  V30 16 N -2.027410 3.533827 1.042333 0
M  V30 17 C -2.254363 2.586863 0.117889 0
M  V30 18 N -3.377192 2.261071 -0.590511 0
M  V30 19 C -3.060991 1.202512 -1.358828 0
M  V30 20 C -4.045995 0.567394 -2.266946 0
M  V30 21 C -4.682729 -0.572195 -1.448245 0
M  V30 22 C -3.687525 -1.642476 -1.148773 0
M  V30 23 N -3.066469 -2.142153 -2.342117 0
M  V30 24 C -3.551582 -1.535331 -3.541955 0
M  V30 25 C -3.474303 -0.008874 -3.509463 0
M  V30 26 C -1.758940 0.867927 -1.140140 0
M  V30 27 C -1.247545 1.724538 -0.224375 0
M  V30 28 N 2.083231 0.839143 1.048691 0
M  V30 29 C 2.082170 -3.807234 2.243311 0
M  V30 30 C 1.859831 -5.154618 2.327500 0
M  V30 31 H 1.795709 -6.782427 3.712264 0
M  V30 32 H 2.360584 -5.341478 5.651324 0
M  V30 33 H 2.739900 -2.861965 5.327856 0
M  V30 34 H 2.322074 -0.906243 3.782719 0
M  V30 35 H 1.934976 -1.298816 2.039815 0
M  V30 36 H 4.306579 -1.965793 1.711966 0
M  V30 37 H 4.695072 -1.435167 3.391664 0
M  V30 38 H 4.813003 0.766237 2.592048 0
M  V30 39 H 4.469120 -1.135119 -0.261487 0
M  V30 40 H 2.821954 -1.085851 -2.172831 0
M  V30 41 H 0.855342 0.216373 -1.866707 0
M  V30 42 H 1.122156 2.897404 1.783860 0
M  V30 43 H -0.622560 4.414069 2.398783 0
M  V30 44 H -4.261164 2.805062 -0.474551 0
M  V30 45 H -4.886604 1.239079 -2.501393 0
M  V30 46 H -5.117666 -0.184165 -0.504692 0
M  V30 47 H -5.510402 -0.960602 -2.046274 0
M  V30 48 H -2.904940 -1.285567 -0.441300 0
M  V30 49 H -4.226158 -2.437139 -0.588355 0
M  V30 50 H -2.035094 -2.123730 -2.334690 0
M  V30 51 H -4.597586 -1.864117 -3.707345 0
M  V30 52 H -2.916324 -1.914539 -4.383659 0
M  V30 53 H -4.079427 0.327624 -4.397666 0
M  V30 54 H -2.429046 0.323813 -3.725937 0
M  V30 55 H -1.320688 0.052862 -1.640999 0
M  V30 56 H 1.981147 -3.438639 1.207753 0
M  V30 57 H 1.619445 -5.786716 1.502849 0
M  V30 END ATOM
M  V30 BEGIN BOND
M  V30 1 2 1 2
M  V30 2 1 2 3
M  V30 3 2 3 4
M  V30 4 1 4 5
M  V30 5 1 5 6
M  V30 6 1 6 7
M  V30 7 1 7 8
M  V30 8 2 8 9
M  V30 9 1 9 10
M  V30 10 2 10 11
M  V30 11 1 11 12
M  V30 12 1 12 13
M  V30 13 2 13 14
M  V30 14 1 14 15
M  V30 15 2 15 16
M  V30 16 1 16 17
M  V30 17 1 17 18
M  V30 18 1 18 19
M  V30 19 1 19 20
M  V30 20 1 20 21
M  V30 21 1 21 22
M  V30 22 1 22 23
M  V30 23 1 23 24
M  V30 24 1 24 25
M  V30 25 2 19 26
M  V30 26 1 26 27
M  V30 27 2 12 28
M  V30 28 1 4 29
M  V30 29 2 29 30
M  V30 30 1 30 1
M  V30 31 1 28 8
M  V30 32 1 27 13
M  V30 33 2 27 17
M  V30 34 1 25 20
M  V30 35 1 1 31
M  V30 36 1 2 32
M  V30 37 1 3 33
M  V30 38 1 5 34
M  V30 39 1 5 35
M  V30 40 1 6 36
M  V30 41 1 6 37
M  V30 42 1 7 38
M  V30 43 1 9 39
M  V30 44 1 10 40
M  V30 45 1 11 41
M  V30 46 1 14 42
M  V30 47 1 15 43
M  V30 48 1 18 44
M  V30 49 1 20 45
M  V30 50 1 21 46
M  V30 51 1 21 47
M  V30 52 1 22 48
M  V30 53 1 22 49
M  V30 54 1 23 50
M  V30 55 1 24 51
M  V30 56 1 24 52
M  V30 57 1 25 53
M  V30 58 1 25 54
M  V30 59 1 26 55
M  V30 60 1 29 56
M  V30 61 1 30 57
M  V30 END BOND
M  V30 END CTAB
M  END
>  <Dataset>  (278) 
ChEMBL_Kinases

>  <Ligand_Instance>  (278) 
nan

>  <PDB_ID>  (278) 
nan

>  <Standardized_SMILES>  (278) 
c1ccc(CCNc2cccc(-c3ccnc4[nH]c(C5CCNCC5)cc34)n2)cc1

>  <Name>  (278) 
nan

>  <Pocket>  (278) 
nan

>  <ATP_Site>  (278) 
nan

>  <Peripheral>  (278) 
nan

>  <Num_H_Atoms_ProtBoundConf>  (278) 
nan

>  <Num_Resolved_Atoms>  (278) 
nan

>  <Num_Not_Resolved_Atoms>  (278) 
nan

$$$$
CHEMBL3668411
     RDKit          3D

  0  0  0  0  0  0  0  0  0  0999 V3000
M  V30 BEGIN CTAB
M  V30 COUNTS 63 67 0 0 0
M  V30 BEGIN ATOM
M  V30 1 C 0.742103 1.388332 6.506901 0
M  V30 2 N -0.100229 0.654166 5.597055 0
M  V30 3 C 0.358288 -0.657710 5.270460 0
M  V30 4 C 0.697756 -0.829018 3.811569 0
M  V30 5 C 1.460653 0.438612 3.419196 0
M  V30 6 C 2.134603 0.252349 2.106112 0
M  V30 7 C 1.629728 0.067243 0.836526 0
M  V30 8 C 2.638486 -0.072564 -0.093810 0
M  V30 9 C 2.629686 -0.276803 -1.458779 0
M  V30 10 C 1.359976 -0.377191 -2.171901 0
M  V30 11 C 1.294332 -0.615673 -3.524768 0
M  V30 12 C 0.124639 -0.719764 -4.236138 0
M  V30 13 C -1.086096 -0.582705 -3.592534 0
M  V30 14 C -1.020030 -0.340912 -2.223003 0
M  V30 15 N -2.103218 -0.159432 -1.318679 0
M  V30 16 C -2.562297 1.236477 -1.427606 0
M  V30 17 C -2.946720 -0.763626 -0.322965 0
M  V30 18 C -2.651483 -2.193226 -0.039140 0
M  V30 19 C -2.827866 -3.023196 -1.227260 0
M  V30 20 C -4.146185 -3.442562 -1.440576 0
M  V30 21 C -4.498704 -4.250391 -2.505392 0
M  V30 22 C -3.551762 -4.673311 -3.400777 0
M  V30 23 C -2.239270 -4.295319 -3.245360 0
M  V30 24 C -1.947791 -3.492438 -2.169175 0
M  V30 25 N 0.149572 -0.253290 -1.603169 0
M  V30 26 C 3.865732 -0.372915 -2.060112 0
M  V30 27 C 5.028061 -0.268448 -1.325766 0
M  V30 28 N 5.002072 -0.068276 0.008802 0
M  V30 29 C 3.804242 0.032100 0.641262 0
M  V30 30 N 3.489810 0.225671 1.950448 0
M  V30 31 C 0.401290 1.517232 3.345600 0
M  V30 32 C -0.555311 1.430238 4.484235 0
M  V30 33 H 1.582928 0.753779 6.843055 0
M  V30 34 H 0.201583 1.805600 7.382960 0
M  V30 35 H 1.114416 2.271720 5.923160 0
M  V30 36 H -0.393386 -1.394064 5.558874 0
M  V30 37 H 1.289255 -0.870193 5.835504 0
M  V30 38 H 1.305626 -1.728487 3.616425 0
M  V30 39 H -0.204459 -0.863791 3.168416 0
M  V30 40 H 2.197787 0.670882 4.209557 0
M  V30 41 H 0.560537 0.049138 0.703425 0
M  V30 42 H 2.180453 -0.739187 -4.126588 0
M  V30 43 H 0.048092 -0.905912 -5.299797 0
M  V30 44 H -2.090048 -0.634215 -3.987751 0
M  V30 45 H -3.654122 1.234428 -1.702490 0
M  V30 46 H -2.509769 1.745408 -0.424304 0
M  V30 47 H -1.989905 1.855584 -2.105078 0
M  V30 48 H -4.032842 -0.607699 -0.586471 0
M  V30 49 H -2.828798 -0.158846 0.627874 0
M  V30 50 H -1.604422 -2.239213 0.356234 0
M  V30 51 H -3.269001 -2.612303 0.785639 0
M  V30 52 H -4.999809 -3.194160 -0.827138 0
M  V30 53 H -5.497106 -4.597996 -2.708963 0
M  V30 54 H -3.798028 -5.307304 -4.247422 0
M  V30 55 H -1.410893 -4.576570 -3.900805 0
M  V30 56 H -0.923949 -3.174111 -1.993680 0
M  V30 57 H 3.927869 -0.533023 -3.124205 0
M  V30 58 H 5.976138 -0.349507 -1.826769 0
M  V30 59 H 4.248593 0.331317 2.678672 0
M  V30 60 H 0.829880 2.534589 3.201027 0
M  V30 61 H -0.174746 1.283105 2.401030 0
M  V30 62 H -1.559647 1.040108 4.151308 0
M  V30 63 H -0.751761 2.464707 4.847342 0
M  V30 END ATOM
M  V30 BEGIN BOND
M  V30 1 1 1 2
M  V30 2 1 2 3
M  V30 3 1 3 4
M  V30 4 1 4 5
M  V30 5 1 5 6
M  V30 6 2 6 7
M  V30 7 1 7 8
M  V30 8 2 8 9
M  V30 9 1 9 10
M  V30 10 2 10 11
M  V30 11 1 11 12
M  V30 12 2 12 13
M  V30 13 1 13 14
M  V30 14 1 14 15
M  V30 15 1 15 16
M  V30 16 1 15 17
M  V30 17 1 17 18
M  V30 18 1 18 19
M  V30 19 2 19 20
M  V30 20 1 20 21
M  V30 21 2 21 22
M  V30 22 1 22 23
M  V30 23 2 23 24
M  V30 24 2 14 25
M  V30 25 1 9 26
M  V30 26 2 26 27
M  V30 27 1 27 28
M  V30 28 2 28 29
M  V30 29 1 29 30
M  V30 30 1 5 31
M  V30 31 1 31 32
M  V30 32 1 32 2
M  V30 33 1 30 6
M  V30 34 1 29 8
M  V30 35 1 25 10
M  V30 36 1 24 19
M  V30 37 1 1 33
M  V30 38 1 1 34
M  V30 39 1 1 35
M  V30 40 1 3 36
M  V30 41 1 3 37
M  V30 42 1 4 38
M  V30 43 1 4 39
M  V30 44 1 5 40
M  V30 45 1 7 41
M  V30 46 1 11 42
M  V30 47 1 12 43
M  V30 48 1 13 44
M  V30 49 1 16 45
M  V30 50 1 16 46
M  V30 51 1 16 47
M  V30 52 1 17 48
M  V30 53 1 17 49
M  V30 54 1 18 50
M  V30 55 1 18 51
M  V30 56 1 20 52
M  V30 57 1 21 53
M  V30 58 1 22 54
M  V30 59 1 23 55
M  V30 60 1 24 56
M  V30 61 1 26 57
M  V30 62 1 27 58
M  V30 63 1 30 59
M  V30 64 1 31 60
M  V30 65 1 31 61
M  V30 66 1 32 62
M  V30 67 1 32 63
M  V30 END BOND
M  V30 END CTAB
M  END
>  <Dataset>  (279) 
ChEMBL_Kinases

>  <Ligand_Instance>  (279) 
nan

>  <PDB_ID>  (279) 
nan

>  <Standardized_SMILES>  (279) 
CN1CCC(c2cc3c(-c4cccc(N(C)CCc5ccccc5)n4)ccnc3[nH]2)CC1

>  <Name>  (279) 
nan

>  <Pocket>  (279) 
nan

>  <ATP_Site>  (279) 
nan

>  <Peripheral>  (279) 
nan

>  <Num_H_Atoms_ProtBoundConf>  (279) 
nan

>  <Num_Resolved_Atoms>  (279) 
nan

>  <Num_Not_Resolved_Atoms>  (279) 
nan

$$$$
CHEMBL3668403
     RDKit          3D

  0  0  0  0  0  0  0  0  0  0999 V3000
M  V30 BEGIN CTAB
M  V30 COUNTS 59 62 0 0 0
M  V30 BEGIN ATOM
M  V30 1 C 0.897766 0.845763 6.357923 0
M  V30 2 O 1.480350 1.227468 5.118292 0
M  V30 3 C 2.693840 0.696311 4.681452 0
M  V30 4 C 3.495524 -0.218542 5.300017 0
M  V30 5 C 4.669435 -0.625226 4.705398 0
M  V30 6 C 5.075972 -0.129586 3.474631 0
M  V30 7 F 6.246029 -0.574414 2.950454 0
M  V30 8 C 4.248804 0.803152 2.853252 0
M  V30 9 C 3.055263 1.217388 3.456479 0
M  V30 10 C 2.399769 2.182356 2.571791 0
M  V30 11 C 2.687522 3.515183 2.803882 0
M  V30 12 C 2.070909 4.422046 1.966461 0
M  V30 13 N 1.237429 4.039246 0.979757 0
M  V30 14 C 0.939690 2.757192 0.731523 0
M  V30 15 N 0.168594 2.076420 -0.157178 0
M  V30 16 C 0.244048 0.740069 0.054125 0
M  V30 17 C -0.452642 -0.313087 -0.729257 0 CFG=1
M  V30 18 C -1.906759 -0.097662 -0.685923 0
M  V30 19 C -2.692802 -0.448023 -1.913401 0
M  V30 20 C -2.000224 -1.640613 -2.530838 0 CFG=2
M  V30 21 N -1.768760 -2.609892 -1.510193 0
M  V30 22 C -2.911478 -3.238562 -0.947218 0
M  V30 23 C -3.610755 -4.170507 -1.917577 0
M  V30 24 C -2.682465 -5.280132 -2.372958 0
M  V30 25 C -3.443609 -6.148604 -3.315661 0
M  V30 26 O -4.637608 -6.067740 -3.739995 0
M  V30 27 O -2.696237 -7.236279 -3.809085 0
M  V30 28 C -0.719525 -1.100776 -3.107435 0
M  V30 29 C 0.163702 -0.458465 -2.083413 0
M  V30 30 C 1.114430 0.577084 1.140321 0
M  V30 31 C 1.540662 1.826660 1.551964 0
M  V30 32 H -0.190114 0.934242 6.328750 0
M  V30 33 H 1.162885 -0.209769 6.570940 0
M  V30 34 H 1.345439 1.475935 7.168500 0
M  V30 35 H 3.136580 -0.574453 6.250978 0
M  V30 36 H 5.287081 -1.354022 5.219638 0
M  V30 37 H 4.670830 1.114446 1.901392 0
M  V30 38 H 3.349004 3.887593 3.579277 0
M  V30 39 H 2.281046 5.484443 2.129238 0
M  V30 40 H -0.404600 2.539442 -0.902899 0
M  V30 41 H -0.223110 -1.285841 -0.201394 0
M  V30 42 H -2.159376 0.970183 -0.396040 0
M  V30 43 H -2.366903 -0.675656 0.162875 0
M  V30 44 H -2.715967 0.389022 -2.653328 0
M  V30 45 H -3.720530 -0.745492 -1.636782 0
M  V30 46 H -2.581109 -2.053782 -3.386084 0
M  V30 47 H -0.944204 -3.216745 -1.650959 0
M  V30 48 H -3.652187 -2.498117 -0.641922 0
M  V30 49 H -2.576852 -3.834678 -0.077773 0
M  V30 50 H -4.450513 -4.641691 -1.365488 0
M  V30 51 H -4.047253 -3.617452 -2.762774 0
M  V30 52 H -1.759724 -4.915580 -2.842532 0
M  V30 53 H -2.413764 -5.930842 -1.502591 0
M  V30 54 H -3.001865 -7.641097 -4.697414 0
M  V30 55 H -0.991173 -0.391136 -3.916352 0
M  V30 56 H -0.225190 -1.964175 -3.624467 0
M  V30 57 H 1.115216 -1.031834 -2.051886 0
M  V30 58 H 0.430828 0.554004 -2.451865 0
M  V30 59 H 1.407519 -0.350110 1.582921 0
M  V30 END ATOM
M  V30 BEGIN BOND
M  V30 1 1 1 2
M  V30 2 1 2 3
M  V30 3 2 3 4
M  V30 4 1 4 5
M  V30 5 2 5 6
M  V30 6 1 6 7
M  V30 7 1 6 8
M  V30 8 2 8 9
M  V30 9 1 9 10
M  V30 10 2 10 11
M  V30 11 1 11 12
M  V30 12 2 12 13
M  V30 13 1 13 14
M  V30 14 1 14 15
M  V30 15 1 15 16
M  V30 16 1 16 17
M  V30 17 1 17 18
M  V30 18 1 18 19
M  V30 19 1 19 20
M  V30 20 1 20 21
M  V30 21 1 21 22
M  V30 22 1 22 23
M  V30 23 1 23 24
M  V30 24 1 24 25
M  V30 25 2 25 26
M  V30 26 1 25 27
M  V30 27 1 20 28
M  V30 28 1 28 29
M  V30 29 2 16 30
M  V30 30 1 30 31
M  V30 31 1 9 3
M  V30 32 1 31 10
M  V30 33 2 31 14
M  V30 34 1 29 17
M  V30 35 1 1 32
M  V30 36 1 1 33
M  V30 37 1 1 34
M  V30 38 1 4 35
M  V30 39 1 5 36
M  V30 40 1 8 37
M  V30 41 1 11 38
M  V30 42 1 12 39
M  V30 43 1 15 40
M  V30 44 1 17 41 CFG=1
M  V30 45 1 18 42
M  V30 46 1 18 43
M  V30 47 1 19 44
M  V30 48 1 19 45
M  V30 49 1 20 46 CFG=3
M  V30 50 1 21 47
M  V30 51 1 22 48
M  V30 52 1 22 49
M  V30 53 1 23 50
M  V30 54 1 23 51
M  V30 55 1 24 52
M  V30 56 1 24 53
M  V30 57 1 27 54
M  V30 58 1 28 55
M  V30 59 1 28 56
M  V30 60 1 29 57
M  V30 61 1 29 58
M  V30 62 1 30 59
M  V30 END BOND
M  V30 END CTAB
M  END
>  <Dataset>  (280) 
ChEMBL_Kinases

>  <Ligand_Instance>  (280) 
nan

>  <PDB_ID>  (280) 
nan

>  <Standardized_SMILES>  (280) 
COc1ccc(F)cc1-c1ccnc2[nH]c([C@H]3CC[C@H](NCCCC(=O)O)CC3)cc12

>  <Name>  (280) 
nan

>  <Pocket>  (280) 
nan

>  <ATP_Site>  (280) 
nan

>  <Peripheral>  (280) 
nan

>  <Num_H_Atoms_ProtBoundConf>  (280) 
nan

>  <Num_Resolved_Atoms>  (280) 
nan

>  <Num_Not_Resolved_Atoms>  (280) 
nan

$$$$
CHEMBL3668461
     RDKit          3D

  0  0  0  0  0  0  0  0  0  0999 V3000
M  V30 BEGIN CTAB
M  V30 COUNTS 64 68 0 0 0
M  V30 BEGIN ATOM
M  V30 1 C 4.927296 2.206821 4.660782 0
M  V30 2 N 4.798073 2.858602 3.405444 0
M  V30 3 C 5.394401 2.216176 2.296517 0
M  V30 4 C 4.824996 2.546002 0.955882 0
M  V30 5 C 3.333498 2.453222 1.007193 0
M  V30 6 C 2.823750 1.064514 1.164185 0
M  V30 7 C 2.127648 0.397729 0.154216 0
M  V30 8 C 1.772892 -0.880018 0.581345 0
M  V30 9 C 1.100539 -1.955565 0.039340 0
M  V30 10 C 0.584959 -1.837933 -1.322905 0
M  V30 11 C -0.677211 -1.361399 -1.603158 0
M  V30 12 C -1.226640 -1.223171 -2.841248 0
M  V30 13 N -2.528278 -0.737971 -3.120970 0
M  V30 14 C -3.604386 -0.295937 -2.292940 0
M  V30 15 C -4.207645 -1.327130 -1.427026 0
M  V30 16 C -4.006020 -1.688858 -0.116117 0
M  V30 17 C -4.698583 -2.723775 0.467696 0
M  V30 18 C -5.640337 -3.466017 -0.221872 0
M  V30 19 S -6.434025 -4.745453 0.654926 0
M  V30 20 C -7.913698 -4.143397 1.451490 0
M  V30 21 O -5.541096 -5.313494 1.709079 0
M  V30 22 O -6.827632 -5.884605 -0.266274 0
M  V30 23 C -5.852527 -3.117017 -1.528756 0
M  V30 24 C -5.151789 -2.070569 -2.118870 0
M  V30 25 C -0.400024 -1.610405 -3.875545 0
M  V30 26 C 0.870251 -2.095037 -3.677342 0
M  V30 27 C 1.364529 -2.209394 -2.398587 0
M  V30 28 F 2.615180 -2.687033 -2.210615 0
M  V30 29 C 0.910684 -3.132920 0.763843 0
M  V30 30 C 1.439835 -3.140042 2.047800 0
M  V30 31 N 2.092719 -2.096780 2.575241 0
M  V30 32 C 2.266197 -0.969400 1.861455 0
M  V30 33 N 2.877316 0.186211 2.175572 0
M  V30 34 C 2.794374 3.373280 2.043014 0
M  V30 35 C 3.672888 3.675959 3.196574 0
M  V30 36 H 5.097479 1.101767 4.530437 0
M  V30 37 H 5.850838 2.606112 5.170602 0
M  V30 38 H 4.099791 2.394132 5.365592 0
M  V30 39 H 5.518368 1.101575 2.429914 0
M  V30 40 H 6.468947 2.572503 2.262446 0
M  V30 41 H 5.071786 3.608616 0.752597 0
M  V30 42 H 5.276018 1.863357 0.206964 0
M  V30 43 H 2.981702 2.789862 -0.017258 0
M  V30 44 H 1.849942 0.720914 -0.840465 0
M  V30 45 H -1.233143 -1.084793 -0.743527 0
M  V30 46 H -2.765930 -0.690104 -4.160160 0
M  V30 47 H -3.264818 0.524192 -1.582808 0
M  V30 48 H -4.377773 0.205986 -2.903632 0
M  V30 49 H -3.272202 -1.072377 0.376296 0
M  V30 50 H -4.451780 -2.913276 1.505077 0
M  V30 51 H -8.709454 -3.886422 0.741520 0
M  V30 52 H -8.306410 -4.928824 2.118109 0
M  V30 53 H -7.621176 -3.283244 2.091339 0
M  V30 54 H -6.600336 -3.722315 -2.040100 0
M  V30 55 H -5.450529 -1.941359 -3.150828 0
M  V30 56 H -0.725571 -1.548007 -4.926135 0
M  V30 57 H 1.482130 -2.386455 -4.519301 0
M  V30 58 H 0.382571 -3.968207 0.328589 0
M  V30 59 H 1.312308 -4.027162 2.631130 0
M  V30 60 H 3.330601 0.384912 3.073035 0
M  V30 61 H 1.760670 3.028677 2.341775 0
M  V30 62 H 2.580504 4.364490 1.543245 0
M  V30 63 H 3.028070 3.586618 4.120009 0
M  V30 64 H 4.015730 4.748254 3.239885 0
M  V30 END ATOM
M  V30 BEGIN BOND
M  V30 1 1 1 2
M  V30 2 1 2 3
M  V30 3 1 3 4
M  V30 4 1 4 5
M  V30 5 1 5 6
M  V30 6 2 6 7
M  V30 7 1 7 8
M  V30 8 2 8 9
M  V30 9 1 9 10
M  V30 10 2 10 11
M  V30 11 1 11 12
M  V30 12 1 12 13
M  V30 13 1 13 14
M  V30 14 1 14 15
M  V30 15 2 15 16
M  V30 16 1 16 17
M  V30 17 2 17 18
M  V30 18 1 18 19
M  V30 19 1 19 20
M  V30 20 2 19 21
M  V30 21 2 19 22
M  V30 22 1 18 23
M  V30 23 2 23 24
M  V30 24 2 12 25
M  V30 25 1 25 26
M  V30 26 2 26 27
M  V30 27 1 27 28
M  V30 28 1 9 29
M  V30 29 2 29 30
M  V30 30 1 30 31
M  V30 31 2 31 32
M  V30 32 1 32 33
M  V30 33 1 5 34
M  V30 34 1 34 35
M  V30 35 1 35 2
M  V30 36 1 33 6
M  V30 37 1 32 8
M  V30 38 1 27 10
M  V30 39 1 24 15
M  V30 40 1 1 36
M  V30 41 1 1 37
M  V30 42 1 1 38
M  V30 43 1 3 39
M  V30 44 1 3 40
M  V30 45 1 4 41
M  V30 46 1 4 42
M  V30 47 1 5 43
M  V30 48 1 7 44
M  V30 49 1 11 45
M  V30 50 1 13 46
M  V30 51 1 14 47
M  V30 52 1 14 48
M  V30 53 1 16 49
M  V30 54 1 17 50
M  V30 55 1 20 51
M  V30 56 1 20 52
M  V30 57 1 20 53
M  V30 58 1 23 54
M  V30 59 1 24 55
M  V30 60 1 25 56
M  V30 61 1 26 57
M  V30 62 1 29 58
M  V30 63 1 30 59
M  V30 64 1 33 60
M  V30 65 1 34 61
M  V30 66 1 34 62
M  V30 67 1 35 63
M  V30 68 1 35 64
M  V30 END BOND
M  V30 END CTAB
M  END
>  <Dataset>  (281) 
ChEMBL_Kinases

>  <Ligand_Instance>  (281) 
nan

>  <PDB_ID>  (281) 
nan

>  <Standardized_SMILES>  (281) 
CN1CCC(c2cc3c(-c4cc(NCc5ccc(S(C)(=O)=O)cc5)ccc4F)ccnc3[nH]2)CC1

>  <Name>  (281) 
nan

>  <Pocket>  (281) 
nan

>  <ATP_Site>  (281) 
nan

>  <Peripheral>  (281) 
nan

>  <Num_H_Atoms_ProtBoundConf>  (281) 
nan

>  <Num_Resolved_Atoms>  (281) 
nan

>  <Num_Not_Resolved_Atoms>  (281) 
nan

$$$$
CHEMBL3668460
     RDKit          3D

  0  0  0  0  0  0  0  0  0  0999 V3000
M  V30 BEGIN CTAB
M  V30 COUNTS 57 61 0 0 0
M  V30 BEGIN ATOM
M  V30 1 C -0.045354 -4.473831 6.859440 0
M  V30 2 N 0.164003 -4.257961 5.472705 0
M  V30 3 C 1.488755 -4.115907 5.037965 0
M  V30 4 C 1.881150 -2.849054 4.357932 0
M  V30 5 C 0.837907 -2.161683 3.568169 0
M  V30 6 C 0.791572 -2.614957 2.154112 0
M  V30 7 C 1.021290 -1.773101 1.069831 0
M  V30 8 C 0.893257 -2.545122 -0.070399 0
M  V30 9 C 1.021636 -2.200538 -1.401844 0
M  V30 10 C 1.344474 -0.832831 -1.862144 0
M  V30 11 C 0.187641 -0.075581 -2.070814 0
M  V30 12 C 0.237411 1.232716 -2.502147 0
M  V30 13 N -0.917250 2.030009 -2.724043 0
M  V30 14 C -0.848487 3.404376 -3.177716 0
M  V30 15 C -2.232003 3.943688 -3.307025 0
M  V30 16 C -2.902742 4.579271 -2.278830 0
M  V30 17 C -4.192082 5.037856 -2.527702 0
M  V30 18 N -4.814012 4.896794 -3.704078 0
M  V30 19 C -4.203502 4.278508 -4.755922 0
M  V30 20 C -2.914524 3.816302 -4.518055 0
M  V30 21 C 1.495384 1.778325 -2.724802 0
M  V30 22 C 2.638067 1.032500 -2.519396 0
M  V30 23 C 2.582349 -0.264699 -2.091500 0
M  V30 24 F 3.604621 -1.111591 -1.848743 0
M  V30 25 C 0.838607 -3.188885 -2.367860 0
M  V30 26 C 0.537289 -4.469093 -1.959233 0
M  V30 27 N 0.419390 -4.768034 -0.635552 0
M  V30 28 C 0.590526 -3.836281 0.311590 0
M  V30 29 N 0.539098 -3.832903 1.659600 0
M  V30 30 C -0.510802 -2.242291 4.235338 0
M  V30 31 C -0.859641 -3.591579 4.754340 0
M  V30 32 H -1.128228 -4.700482 7.023652 0
M  V30 33 H 0.556007 -5.354959 7.193725 0
M  V30 34 H 0.225253 -3.566255 7.443592 0
M  V30 35 H 1.745261 -4.980895 4.387687 0
M  V30 36 H 2.165299 -4.228730 5.936732 0
M  V30 37 H 2.745541 -3.080859 3.672038 0
M  V30 38 H 2.304612 -2.128191 5.114860 0
M  V30 39 H 1.084527 -1.059245 3.548892 0
M  V30 40 H 1.259866 -0.704891 1.060759 0
M  V30 41 H -0.836531 -0.442410 -1.914949 0
M  V30 42 H -1.858113 1.574640 -2.541998 0
M  V30 43 H -0.206947 4.041222 -2.513033 0
M  V30 44 H -0.410207 3.407503 -4.202570 0
M  V30 45 H -2.397770 4.689373 -1.336604 0
M  V30 46 H -4.736147 5.535341 -1.746371 0
M  V30 47 H -4.666618 4.148191 -5.705604 0
M  V30 48 H -2.436796 3.320509 -5.376063 0
M  V30 49 H 1.611509 2.796337 -3.063109 0
M  V30 50 H 3.650069 1.420997 -2.681954 0
M  V30 51 H 0.921253 -2.999810 -3.413769 0
M  V30 52 H 0.392676 -5.247780 -2.709668 0
M  V30 53 H 0.329691 -4.670866 2.241673 0
M  V30 54 H -1.270053 -2.001937 3.435197 0
M  V30 55 H -0.633153 -1.454734 4.993507 0
M  V30 56 H -1.299183 -4.211726 3.944373 0
M  V30 57 H -1.723832 -3.438518 5.466876 0
M  V30 END ATOM
M  V30 BEGIN BOND
M  V30 1 1 1 2
M  V30 2 1 2 3
M  V30 3 1 3 4
M  V30 4 1 4 5
M  V30 5 1 5 6
M  V30 6 2 6 7
M  V30 7 1 7 8
M  V30 8 2 8 9
M  V30 9 1 9 10
M  V30 10 2 10 11
M  V30 11 1 11 12
M  V30 12 1 12 13
M  V30 13 1 13 14
M  V30 14 1 14 15
M  V30 15 2 15 16
M  V30 16 1 16 17
M  V30 17 2 17 18
M  V30 18 1 18 19
M  V30 19 2 19 20
M  V30 20 2 12 21
M  V30 21 1 21 22
M  V30 22 2 22 23
M  V30 23 1 23 24
M  V30 24 1 9 25
M  V30 25 2 25 26
M  V30 26 1 26 27
M  V30 27 2 27 28
M  V30 28 1 28 29
M  V30 29 1 5 30
M  V30 30 1 30 31
M  V30 31 1 31 2
M  V30 32 1 29 6
M  V30 33 1 28 8
M  V30 34 1 23 10
M  V30 35 1 20 15
M  V30 36 1 1 32
M  V30 37 1 1 33
M  V30 38 1 1 34
M  V30 39 1 3 35
M  V30 40 1 3 36
M  V30 41 1 4 37
M  V30 42 1 4 38
M  V30 43 1 5 39
M  V30 44 1 7 40
M  V30 45 1 11 41
M  V30 46 1 13 42
M  V30 47 1 14 43
M  V30 48 1 14 44
M  V30 49 1 16 45
M  V30 50 1 17 46
M  V30 51 1 19 47
M  V30 52 1 20 48
M  V30 53 1 21 49
M  V30 54 1 22 50
M  V30 55 1 25 51
M  V30 56 1 26 52
M  V30 57 1 29 53
M  V30 58 1 30 54
M  V30 59 1 30 55
M  V30 60 1 31 56
M  V30 61 1 31 57
M  V30 END BOND
M  V30 END CTAB
M  END
>  <Dataset>  (282) 
ChEMBL_Kinases

>  <Ligand_Instance>  (282) 
nan

>  <PDB_ID>  (282) 
nan

>  <Standardized_SMILES>  (282) 
CN1CCC(c2cc3c(-c4cc(NCc5ccncc5)ccc4F)ccnc3[nH]2)CC1

>  <Name>  (282) 
nan

>  <Pocket>  (282) 
nan

>  <ATP_Site>  (282) 
nan

>  <Peripheral>  (282) 
nan

>  <Num_H_Atoms_ProtBoundConf>  (282) 
nan

>  <Num_Resolved_Atoms>  (282) 
nan

>  <Num_Not_Resolved_Atoms>  (282) 
nan

$$$$
CHEMBL3668459
     RDKit          3D

  0  0  0  0  0  0  0  0  0  0999 V3000
M  V30 BEGIN CTAB
M  V30 COUNTS 63 67 0 0 0
M  V30 BEGIN ATOM
M  V30 1 C 1.689418 -1.049896 5.438126 0
M  V30 2 N 2.558410 -0.307092 4.515970 0
M  V30 3 C 2.666826 -1.122975 3.331221 0
M  V30 4 C 3.368168 -0.410879 2.196160 0
M  V30 5 C 2.936635 1.029589 2.058130 0
M  V30 6 C 2.808976 1.446928 0.642774 0
M  V30 7 C 1.893302 1.016041 -0.304663 0
M  V30 8 C 2.138313 1.666093 -1.495605 0
M  V30 9 C 1.603219 1.682120 -2.776967 0
M  V30 10 C 0.461348 0.754740 -2.886621 0
M  V30 11 N -0.564060 0.896664 -2.052544 0
M  V30 12 C -1.647296 0.067548 -2.084982 0
M  V30 13 N -2.779702 0.158661 -1.248307 0
M  V30 14 C -3.314547 -0.132436 0.059490 0
M  V30 15 C -3.133077 -1.579840 0.325511 0
M  V30 16 C -1.969337 -1.979800 0.960542 0
M  V30 17 C -1.693184 -3.296506 1.278318 0
M  V30 18 C -2.641624 -4.244990 0.933882 0
M  V30 19 C -3.807897 -3.867491 0.299177 0
M  V30 20 S -5.068393 -4.999320 -0.159963 0
M  V30 21 C -6.346425 -4.988325 1.096104 0
M  V30 22 O -4.534185 -6.403437 -0.218016 0
M  V30 23 O -5.667125 -4.528576 -1.437096 0
M  V30 24 C -4.067748 -2.527517 -0.013925 0
M  V30 25 C -1.656866 -0.954467 -3.031206 0
M  V30 26 C -0.622431 -1.160638 -3.932475 0
M  V30 27 C 0.418197 -0.262918 -3.807099 0
M  V30 28 Cl 1.780251 -0.422299 -4.889881 0
M  V30 29 C 2.126262 2.493775 -3.764787 0
M  V30 30 C 3.196085 3.291768 -3.451787 0
M  V30 31 N 3.754371 3.312756 -2.218800 0
M  V30 32 C 3.228324 2.507173 -1.251114 0
M  V30 33 N 3.604126 2.356366 0.022378 0
M  V30 34 C 1.639747 1.205057 2.798936 0
M  V30 35 C 1.933554 0.962098 4.269635 0
M  V30 36 H 2.329804 -1.709599 6.042603 0
M  V30 37 H 1.096584 -0.351225 6.060921 0
M  V30 38 H 0.932471 -1.614814 4.833759 0
M  V30 39 H 3.273034 -2.011318 3.592441 0
M  V30 40 H 1.678639 -1.506085 3.039461 0
M  V30 41 H 3.189774 -0.986147 1.274969 0
M  V30 42 H 4.465442 -0.464537 2.438929 0
M  V30 43 H 3.708917 1.640485 2.573510 0
M  V30 44 H 1.102722 0.288775 -0.160000 0
M  V30 45 H -3.449733 0.645526 -1.919149 0
M  V30 46 H -2.722760 0.433173 0.794209 0
M  V30 47 H -4.391239 0.154818 0.125147 0
M  V30 48 H -1.220455 -1.242333 1.234802 0
M  V30 49 H -0.765990 -3.606662 1.785929 0
M  V30 50 H -2.502800 -5.290679 1.147385 0
M  V30 51 H -5.861858 -4.999862 2.088806 0
M  V30 52 H -7.039562 -5.822172 0.906237 0
M  V30 53 H -6.951203 -4.040890 1.013907 0
M  V30 54 H -4.973179 -2.191055 -0.516094 0
M  V30 55 H -2.509711 -1.638718 -3.087328 0
M  V30 56 H -0.631060 -1.950668 -4.664673 0
M  V30 57 H 1.598665 2.389355 -4.698648 0
M  V30 58 H 3.555906 3.900120 -4.260624 0
M  V30 59 H 4.397694 2.856367 0.505505 0
M  V30 60 H 1.247869 2.241025 2.733093 0
M  V30 61 H 0.902494 0.460075 2.454481 0
M  V30 62 H 0.977390 1.102876 4.840624 0
M  V30 63 H 2.615044 1.773627 4.639572 0
M  V30 END ATOM
M  V30 BEGIN BOND
M  V30 1 1 1 2
M  V30 2 1 2 3
M  V30 3 1 3 4
M  V30 4 1 4 5
M  V30 5 1 5 6
M  V30 6 2 6 7
M  V30 7 1 7 8
M  V30 8 2 8 9
M  V30 9 1 9 10
M  V30 10 2 10 11
M  V30 11 1 11 12
M  V30 12 1 12 13
M  V30 13 1 13 14
M  V30 14 1 14 15
M  V30 15 2 15 16
M  V30 16 1 16 17
M  V30 17 2 17 18
M  V30 18 1 18 19
M  V30 19 1 19 20
M  V30 20 1 20 21
M  V30 21 2 20 22
M  V30 22 2 20 23
M  V30 23 2 19 24
M  V30 24 2 12 25
M  V30 25 1 25 26
M  V30 26 2 26 27
M  V30 27 1 27 28
M  V30 28 1 9 29
M  V30 29 2 29 30
M  V30 30 1 30 31
M  V30 31 2 31 32
M  V30 32 1 32 33
M  V30 33 1 5 34
M  V30 34 1 34 35
M  V30 35 1 35 2
M  V30 36 1 33 6
M  V30 37 1 32 8
M  V30 38 1 27 10
M  V30 39 1 24 15
M  V30 40 1 1 36
M  V30 41 1 1 37
M  V30 42 1 1 38
M  V30 43 1 3 39
M  V30 44 1 3 40
M  V30 45 1 4 41
M  V30 46 1 4 42
M  V30 47 1 5 43
M  V30 48 1 7 44
M  V30 49 1 13 45
M  V30 50 1 14 46
M  V30 51 1 14 47
M  V30 52 1 16 48
M  V30 53 1 17 49
M  V30 54 1 18 50
M  V30 55 1 21 51
M  V30 56 1 21 52
M  V30 57 1 21 53
M  V30 58 1 24 54
M  V30 59 1 25 55
M  V30 60 1 26 56
M  V30 61 1 29 57
M  V30 62 1 30 58
M  V30 63 1 33 59
M  V30 64 1 34 60
M  V30 65 1 34 61
M  V30 66 1 35 62
M  V30 67 1 35 63
M  V30 END BOND
M  V30 END CTAB
M  END
>  <Dataset>  (283) 
ChEMBL_Kinases

>  <Ligand_Instance>  (283) 
nan

>  <PDB_ID>  (283) 
nan

>  <Standardized_SMILES>  (283) 
CN1CCC(c2cc3c(-c4nc(NCc5cccc(S(C)(=O)=O)c5)ccc4Cl)ccnc3[nH]2)CC1

>  <Name>  (283) 
nan

>  <Pocket>  (283) 
nan

>  <ATP_Site>  (283) 
nan

>  <Peripheral>  (283) 
nan

>  <Num_H_Atoms_ProtBoundConf>  (283) 
nan

>  <Num_Resolved_Atoms>  (283) 
nan

>  <Num_Not_Resolved_Atoms>  (283) 
nan

$$$$
CHEMBL3668458
     RDKit          3D

  0  0  0  0  0  0  0  0  0  0999 V3000
M  V30 BEGIN CTAB
M  V30 COUNTS 42 45 0 0 0
M  V30 BEGIN ATOM
M  V30 1 N 1.786761 -5.025801 -1.101174 0
M  V30 2 C 2.074443 -4.141461 -0.022892 0
M  V30 3 C 2.107313 -4.568821 1.288200 0
M  V30 4 C 2.391107 -3.689816 2.336941 0
M  V30 5 C 2.638636 -2.365391 1.997825 0
M  V30 6 F 2.907172 -1.577216 3.088177 0
M  V30 7 C 2.607277 -1.926535 0.677004 0
M  V30 8 C 2.899101 -0.500383 0.581275 0
M  V30 9 C 4.181873 0.011377 0.425027 0
M  V30 10 C 4.356323 1.367230 0.344678 0
M  V30 11 N 3.327675 2.229930 0.411484 0
M  V30 12 C 2.069244 1.799887 0.561460 0
M  V30 13 N 0.850482 2.399110 0.660030 0
M  V30 14 C -0.134229 1.473808 0.804420 0
M  V30 15 C -1.586428 1.841729 0.938301 0
M  V30 16 C -2.391850 1.374195 -0.246063 0
M  V30 17 C -2.559545 -0.106662 -0.335781 0
M  V30 18 N -2.789233 -0.662526 0.967052 0
M  V30 19 C -3.281847 0.335987 1.922234 0
M  V30 20 C -2.155837 1.312008 2.213305 0
M  V30 21 C 0.516432 0.260538 0.792857 0
M  V30 22 C 1.863513 0.438905 0.645277 0
M  V30 23 C 2.324212 -2.819499 -0.332605 0
M  V30 24 H 0.842643 -5.457386 -0.900068 0
M  V30 25 H 2.288054 -5.303593 -1.975332 0
M  V30 26 H 1.913459 -5.599134 1.538133 0
M  V30 27 H 2.407312 -4.064103 3.350964 0
M  V30 28 H 5.010078 -0.669905 0.370634 0
M  V30 29 H 5.335566 1.817665 0.222662 0
M  V30 30 H 0.804733 3.432620 0.617279 0
M  V30 31 H -1.597529 2.961339 0.900093 0
M  V30 32 H -3.372482 1.875007 -0.182686 0
M  V30 33 H -1.899181 1.705895 -1.191189 0
M  V30 34 H -1.688485 -0.621837 -0.807160 0
M  V30 35 H -3.415186 -0.358244 -1.017670 0
M  V30 36 H -3.424033 -1.490646 0.956970 0
M  V30 37 H -4.117996 0.865905 1.432455 0
M  V30 38 H -3.582946 -0.233520 2.815903 0
M  V30 39 H -1.395085 0.800663 2.860107 0
M  V30 40 H -2.578648 2.132445 2.846079 0
M  V30 41 H 0.007152 -0.665040 0.888331 0
M  V30 42 H 2.324870 -2.381269 -1.310822 0
M  V30 END ATOM
M  V30 BEGIN BOND
M  V30 1 1 1 2
M  V30 2 2 2 3
M  V30 3 1 3 4
M  V30 4 2 4 5
M  V30 5 1 5 6
M  V30 6 1 5 7
M  V30 7 1 7 8
M  V30 8 2 8 9
M  V30 9 1 9 10
M  V30 10 2 10 11
M  V30 11 1 11 12
M  V30 12 1 12 13
M  V30 13 1 13 14
M  V30 14 1 14 15
M  V30 15 1 15 16
M  V30 16 1 16 17
M  V30 17 1 17 18
M  V30 18 1 18 19
M  V30 19 1 19 20
M  V30 20 2 14 21
M  V30 21 1 21 22
M  V30 22 2 7 23
M  V30 23 1 23 2
M  V30 24 1 22 8
M  V30 25 2 22 12
M  V30 26 1 20 15
M  V30 27 1 1 24
M  V30 28 1 1 25
M  V30 29 1 3 26
M  V30 30 1 4 27
M  V30 31 1 9 28
M  V30 32 1 10 29
M  V30 33 1 13 30
M  V30 34 1 15 31
M  V30 35 1 16 32
M  V30 36 1 16 33
M  V30 37 1 17 34
M  V30 38 1 17 35
M  V30 39 1 18 36
M  V30 40 1 19 37
M  V30 41 1 19 38
M  V30 42 1 20 39
M  V30 43 1 20 40
M  V30 44 1 21 41
M  V30 45 1 23 42
M  V30 END BOND
M  V30 END CTAB
M  END
>  <Dataset>  (284) 
ChEMBL_Kinases

>  <Ligand_Instance>  (284) 
nan

>  <PDB_ID>  (284) 
nan

>  <Standardized_SMILES>  (284) 
Nc1ccc(F)c(-c2ccnc3[nH]c(C4CCNCC4)cc23)c1

>  <Name>  (284) 
nan

>  <Pocket>  (284) 
nan

>  <ATP_Site>  (284) 
nan

>  <Peripheral>  (284) 
nan

>  <Num_H_Atoms_ProtBoundConf>  (284) 
nan

>  <Num_Resolved_Atoms>  (284) 
nan

>  <Num_Not_Resolved_Atoms>  (284) 
nan

$$$$
CHEMBL3668456
     RDKit          3D

  0  0  0  0  0  0  0  0  0  0999 V3000
M  V30 BEGIN CTAB
M  V30 COUNTS 44 47 0 0 0
M  V30 BEGIN ATOM
M  V30 1 C 1.269048 -3.125487 -3.371913 0
M  V30 2 O 1.229471 -1.852793 -2.711686 0
M  V30 3 C 2.397240 -1.175169 -2.440180 0
M  V30 4 C 3.632480 -1.719862 -2.804761 0
M  V30 5 C 4.860808 -1.112131 -2.573447 0
M  V30 6 C 4.829331 0.110181 -1.939788 0
M  V30 7 F 6.027285 0.727846 -1.701295 0
M  V30 8 C 3.649768 0.709375 -1.550796 0
M  V30 9 C 2.445430 0.067597 -1.801317 0
M  V30 10 C 1.135912 0.613408 -1.431198 0
M  V30 11 C 0.448737 1.422004 -2.325897 0
M  V30 12 C -0.793216 1.933438 -1.961900 0
M  V30 13 N -1.346622 1.663554 -0.761664 0
M  V30 14 C -0.687202 0.879806 0.113186 0
M  V30 15 N -0.970631 0.439454 1.357934 0
M  V30 16 C 0.002003 -0.336049 1.854812 0
M  V30 17 C -0.064424 -0.946174 3.203595 0
M  V30 18 C -0.598594 -0.122445 4.311381 0
M  V30 19 N -1.540553 -1.154454 4.655226 0
M  V30 20 S -3.115879 -0.627914 5.071619 0
M  V30 21 C -3.168679 0.406869 6.477236 0
M  V30 22 O -3.925176 -1.862345 5.367771 0
M  V30 23 O -3.809618 0.085471 3.935579 0
M  V30 24 C -1.385597 -1.676285 3.329326 0
M  V30 25 C 0.965076 -0.394338 0.867067 0
M  V30 26 C 0.547440 0.354246 -0.212936 0
M  V30 27 H 1.587101 -3.017163 -4.437479 0
M  V30 28 H 1.956976 -3.816369 -2.821626 0
M  V30 29 H 0.259864 -3.595478 -3.317733 0
M  V30 30 H 3.607005 -2.692777 -3.305737 0
M  V30 31 H 5.747952 -1.636903 -2.904304 0
M  V30 32 H 3.619393 1.652609 -1.061402 0
M  V30 33 H 0.845566 1.671951 -3.304207 0
M  V30 34 H -1.327934 2.572312 -2.678279 0
M  V30 35 H -1.878984 0.717872 1.823616 0
M  V30 36 H 0.836344 -1.539603 3.403627 0
M  V30 37 H 0.174260 -0.058344 5.132987 0
M  V30 38 H -0.967038 0.878321 4.094955 0
M  V30 39 H -3.528919 -0.145702 7.383598 0
M  V30 40 H -3.905578 1.242194 6.345083 0
M  V30 41 H -2.214126 0.896239 6.749208 0
M  V30 42 H -2.151698 -1.392104 2.596123 0
M  V30 43 H -1.182632 -2.763836 3.254876 0
M  V30 44 H 1.886495 -0.951841 0.968331 0
M  V30 END ATOM
M  V30 BEGIN BOND
M  V30 1 1 1 2
M  V30 2 1 2 3
M  V30 3 2 3 4
M  V30 4 1 4 5
M  V30 5 2 5 6
M  V30 6 1 6 7
M  V30 7 1 6 8
M  V30 8 2 8 9
M  V30 9 1 9 10
M  V30 10 2 10 11
M  V30 11 1 11 12
M  V30 12 2 12 13
M  V30 13 1 13 14
M  V30 14 1 14 15
M  V30 15 1 15 16
M  V30 16 1 16 17
M  V30 17 1 17 18
M  V30 18 1 18 19
M  V30 19 1 19 20
M  V30 20 1 20 21
M  V30 21 2 20 22
M  V30 22 2 20 23
M  V30 23 1 19 24
M  V30 24 2 16 25
M  V30 25 1 25 26
M  V30 26 1 9 3
M  V30 27 1 26 10
M  V30 28 2 26 14
M  V30 29 1 24 17
M  V30 30 1 1 27
M  V30 31 1 1 28
M  V30 32 1 1 29
M  V30 33 1 4 30
M  V30 34 1 5 31
M  V30 35 1 8 32
M  V30 36 1 11 33
M  V30 37 1 12 34
M  V30 38 1 15 35
M  V30 39 1 17 36
M  V30 40 1 18 37
M  V30 41 1 18 38
M  V30 42 1 21 39
M  V30 43 1 21 40
M  V30 44 1 21 41
M  V30 45 1 24 42
M  V30 46 1 24 43
M  V30 47 1 25 44
M  V30 END BOND
M  V30 END CTAB
M  END
>  <Dataset>  (285) 
ChEMBL_Kinases

>  <Ligand_Instance>  (285) 
nan

>  <PDB_ID>  (285) 
nan

>  <Standardized_SMILES>  (285) 
COc1ccc(F)cc1-c1ccnc2[nH]c(C3CN(S(C)(=O)=O)C3)cc12

>  <Name>  (285) 
nan

>  <Pocket>  (285) 
nan

>  <ATP_Site>  (285) 
nan

>  <Peripheral>  (285) 
nan

>  <Num_H_Atoms_ProtBoundConf>  (285) 
nan

>  <Num_Resolved_Atoms>  (285) 
nan

>  <Num_Not_Resolved_Atoms>  (285) 
nan

$$$$
CHEMBL3668455
     RDKit          3D

  0  0  0  0  0  0  0  0  0  0999 V3000
M  V30 BEGIN CTAB
M  V30 COUNTS 41 44 0 0 0
M  V30 BEGIN ATOM
M  V30 1 C 2.201238 -4.374291 -0.283915 0
M  V30 2 O 2.138152 -2.981901 -0.358577 0
M  V30 3 C 3.080623 -2.189760 0.262307 0
M  V30 4 C 4.122161 -2.722798 0.980698 0
M  V30 5 C 5.103425 -2.016960 1.629857 0
M  V30 6 C 5.009214 -0.650083 1.534683 0
M  V30 7 F 5.947133 0.124623 2.152881 0
M  V30 8 C 3.990808 -0.042767 0.830275 0
M  V30 9 C 3.020731 -0.794613 0.189756 0
M  V30 10 C 1.901183 -0.258227 -0.581609 0
M  V30 11 C 2.039044 -0.024458 -1.943439 0
M  V30 12 C 0.964555 0.487195 -2.668533 0
M  V30 13 N -0.215797 0.756373 -2.041946 0
M  V30 14 C -0.309174 0.512045 -0.701714 0
M  V30 15 N -1.374406 0.706646 0.098596 0
M  V30 16 C -1.069718 0.342541 1.368443 0
M  V30 17 C -1.921237 0.378766 2.588108 0
M  V30 18 C -3.279256 -0.270120 2.328384 0
M  V30 19 N -3.681348 0.998010 1.746251 0
M  V30 20 C -5.080599 1.322391 1.933217 0
M  V30 21 C -2.790108 1.612930 2.727162 0
M  V30 22 C 0.246128 -0.101302 1.368458 0
M  V30 23 C 0.716246 0.006819 0.072585 0
M  V30 24 H 2.194541 -4.722299 0.779454 0
M  V30 25 H 1.300671 -4.802498 -0.759148 0
M  V30 26 H 3.119930 -4.779581 -0.790541 0
M  V30 27 H 4.157267 -3.820589 1.029633 0
M  V30 28 H 5.891699 -2.534390 2.176166 0
M  V30 29 H 3.887294 1.033240 0.735455 0
M  V30 30 H 2.968774 -0.234034 -2.448873 0
M  V30 31 H 1.124412 0.651012 -3.726512 0
M  V30 32 H -2.318348 1.087059 -0.202765 0
M  V30 33 H -1.424839 0.021951 3.509298 0
M  V30 34 H -3.807655 -0.505228 3.272081 0
M  V30 35 H -3.223394 -1.118248 1.613221 0
M  V30 36 H -5.449380 0.847903 2.870112 0
M  V30 37 H -5.629036 0.842378 1.096837 0
M  V30 38 H -5.272292 2.402565 1.886246 0
M  V30 39 H -3.255241 1.629983 3.715720 0
M  V30 40 H -2.327719 2.558328 2.385614 0
M  V30 41 H 0.857151 -0.474660 2.181155 0
M  V30 END ATOM
M  V30 BEGIN BOND
M  V30 1 1 1 2
M  V30 2 1 2 3
M  V30 3 2 3 4
M  V30 4 1 4 5
M  V30 5 2 5 6
M  V30 6 1 6 7
M  V30 7 1 6 8
M  V30 8 2 8 9
M  V30 9 1 9 10
M  V30 10 2 10 11
M  V30 11 1 11 12
M  V30 12 2 12 13
M  V30 13 1 13 14
M  V30 14 1 14 15
M  V30 15 1 15 16
M  V30 16 1 16 17
M  V30 17 1 17 18
M  V30 18 1 18 19
M  V30 19 1 19 20
M  V30 20 1 19 21
M  V30 21 2 16 22
M  V30 22 1 22 23
M  V30 23 1 9 3
M  V30 24 1 23 10
M  V30 25 2 23 14
M  V30 26 1 21 17
M  V30 27 1 1 24
M  V30 28 1 1 25
M  V30 29 1 1 26
M  V30 30 1 4 27
M  V30 31 1 5 28
M  V30 32 1 8 29
M  V30 33 1 11 30
M  V30 34 1 12 31
M  V30 35 1 15 32
M  V30 36 1 17 33
M  V30 37 1 18 34
M  V30 38 1 18 35
M  V30 39 1 20 36
M  V30 40 1 20 37
M  V30 41 1 20 38
M  V30 42 1 21 39
M  V30 43 1 21 40
M  V30 44 1 22 41
M  V30 END BOND
M  V30 END CTAB
M  END
>  <Dataset>  (286) 
ChEMBL_Kinases

>  <Ligand_Instance>  (286) 
nan

>  <PDB_ID>  (286) 
nan

>  <Standardized_SMILES>  (286) 
COc1ccc(F)cc1-c1ccnc2[nH]c(C3CN(C)C3)cc12

>  <Name>  (286) 
nan

>  <Pocket>  (286) 
nan

>  <ATP_Site>  (286) 
nan

>  <Peripheral>  (286) 
nan

>  <Num_H_Atoms_ProtBoundConf>  (286) 
nan

>  <Num_Resolved_Atoms>  (286) 
nan

>  <Num_Not_Resolved_Atoms>  (286) 
nan

$$$$
CHEMBL3668454
     RDKit          3D

  0  0  0  0  0  0  0  0  0  0999 V3000
M  V30 BEGIN CTAB
M  V30 COUNTS 58 61 0 0 0
M  V30 BEGIN ATOM
M  V30 1 C 3.719871 3.481676 4.026517 0
M  V30 2 O 2.689442 2.524992 3.749116 0
M  V30 3 C 2.960203 1.242550 4.212123 0
M  V30 4 C 4.088355 0.828509 4.884478 0
M  V30 5 C 4.264926 -0.472684 5.304983 0
M  V30 6 C 3.235287 -1.336558 5.007856 0
M  V30 7 F 3.399096 -2.639873 5.421853 0
M  V30 8 C 2.064316 -0.971636 4.327106 0
M  V30 9 C 1.931928 0.365157 3.919448 0
M  V30 10 C 0.671280 0.551637 3.240787 0
M  V30 11 C -0.417397 0.911038 4.042870 0
M  V30 12 C -1.629110 1.080479 3.397753 0
M  V30 13 N -1.755729 0.909030 2.069382 0
M  V30 14 C -0.739475 0.569315 1.292388 0
M  V30 15 N -0.563333 0.329419 -0.017368 0
M  V30 16 C 0.694901 0.001170 -0.344795 0
M  V30 17 C 1.353524 -0.360696 -1.614128 0
M  V30 18 C 1.234157 -1.842629 -1.946910 0
M  V30 19 C -0.188209 -2.231016 -2.030935 0
M  V30 20 N -0.950842 -1.301604 -2.830796 0
M  V30 21 C -2.386215 -1.123454 -2.888529 0
M  V30 22 O -2.726635 -0.208424 -3.734506 0
M  V30 23 C -3.692161 -1.567040 -2.360514 0
M  V30 24 N -3.681534 -2.602664 -1.401585 0
M  V30 25 C -3.357493 -3.917728 -1.797970 0
M  V30 26 C -4.509771 -4.460448 -2.661890 0
M  V30 27 O -5.680568 -4.464077 -1.932220 0
M  V30 28 C -0.105403 -0.449296 -3.639401 0
M  V30 29 C 0.816880 0.388119 -2.781015 0
M  V30 30 C 1.386243 0.036012 0.874708 0
M  V30 31 C 0.492501 0.387277 1.882475 0
M  V30 32 H 3.913036 3.506256 5.142359 0
M  V30 33 H 3.413124 4.519502 3.791405 0
M  V30 34 H 4.686314 3.216832 3.574628 0
M  V30 35 H 4.833407 1.599095 5.062378 0
M  V30 36 H 5.148882 -0.784819 5.828772 0
M  V30 37 H 1.342837 -1.788426 4.172929 0
M  V30 38 H -0.278070 1.041766 5.124723 0
M  V30 39 H -2.466675 1.356957 4.018378 0
M  V30 40 H -1.351166 0.405812 -0.684845 0
M  V30 41 H 2.461561 -0.106735 -1.530281 0
M  V30 42 H 1.708549 -1.996467 -2.950474 0
M  V30 43 H 1.793069 -2.459759 -1.202800 0
M  V30 44 H -0.241521 -3.270897 -2.444901 0
M  V30 45 H -0.698306 -2.290799 -1.050165 0
M  V30 46 H -4.398457 -1.857389 -3.167708 0
M  V30 47 H -4.193029 -0.653640 -1.901644 0
M  V30 48 H -4.265474 -2.506738 -0.567501 0
M  V30 49 H -3.383179 -4.589870 -0.888550 0
M  V30 50 H -2.399343 -4.068916 -2.293039 0
M  V30 51 H -4.595389 -3.806912 -3.526832 0
M  V30 52 H -4.266914 -5.485271 -3.015558 0
M  V30 53 H -5.574930 -4.691569 -0.972209 0
M  V30 54 H 0.514115 -1.084151 -4.291631 0
M  V30 55 H -0.752169 0.167534 -4.284541 0
M  V30 56 H 0.161730 1.214640 -2.385176 0
M  V30 57 H 1.576854 0.890210 -3.383310 0
M  V30 58 H 2.436715 -0.170652 1.041578 0
M  V30 END ATOM
M  V30 BEGIN BOND
M  V30 1 1 1 2
M  V30 2 1 2 3
M  V30 3 2 3 4
M  V30 4 1 4 5
M  V30 5 2 5 6
M  V30 6 1 6 7
M  V30 7 1 6 8
M  V30 8 2 8 9
M  V30 9 1 9 10
M  V30 10 2 10 11
M  V30 11 1 11 12
M  V30 12 2 12 13
M  V30 13 1 13 14
M  V30 14 1 14 15
M  V30 15 1 15 16
M  V30 16 1 16 17
M  V30 17 1 17 18
M  V30 18 1 18 19
M  V30 19 1 19 20
M  V30 20 1 20 21
M  V30 21 2 21 22
M  V30 22 1 21 23
M  V30 23 1 23 24
M  V30 24 1 24 25
M  V30 25 1 25 26
M  V30 26 1 26 27
M  V30 27 1 20 28
M  V30 28 1 28 29
M  V30 29 2 16 30
M  V30 30 1 30 31
M  V30 31 1 9 3
M  V30 32 1 31 10
M  V30 33 2 31 14
M  V30 34 1 29 17
M  V30 35 1 1 32
M  V30 36 1 1 33
M  V30 37 1 1 34
M  V30 38 1 4 35
M  V30 39 1 5 36
M  V30 40 1 8 37
M  V30 41 1 11 38
M  V30 42 1 12 39
M  V30 43 1 15 40
M  V30 44 1 17 41
M  V30 45 1 18 42
M  V30 46 1 18 43
M  V30 47 1 19 44
M  V30 48 1 19 45
M  V30 49 1 23 46
M  V30 50 1 23 47
M  V30 51 1 24 48
M  V30 52 1 25 49
M  V30 53 1 25 50
M  V30 54 1 26 51
M  V30 55 1 26 52
M  V30 56 1 27 53
M  V30 57 1 28 54
M  V30 58 1 28 55
M  V30 59 1 29 56
M  V30 60 1 29 57
M  V30 61 1 30 58
M  V30 END BOND
M  V30 END CTAB
M  END
>  <Dataset>  (287) 
ChEMBL_Kinases

>  <Ligand_Instance>  (287) 
nan

>  <PDB_ID>  (287) 
nan

>  <Standardized_SMILES>  (287) 
COc1ccc(F)cc1-c1ccnc2[nH]c(C3CCN(C(=O)CNCCO)CC3)cc12

>  <Name>  (287) 
nan

>  <Pocket>  (287) 
nan

>  <ATP_Site>  (287) 
nan

>  <Peripheral>  (287) 
nan

>  <Num_H_Atoms_ProtBoundConf>  (287) 
nan

>  <Num_Resolved_Atoms>  (287) 
nan

>  <Num_Not_Resolved_Atoms>  (287) 
nan

$$$$
CHEMBL3668453
     RDKit          3D

  0  0  0  0  0  0  0  0  0  0999 V3000
M  V30 BEGIN CTAB
M  V30 COUNTS 68 72 0 0 0
M  V30 BEGIN ATOM
M  V30 1 C 3.947332 -1.108483 3.417717 0
M  V30 2 O 3.632229 0.004910 2.625050 0
M  V30 3 C 3.537943 -0.146747 1.247031 0
M  V30 4 C 3.751834 -1.384319 0.653824 0
M  V30 5 C 3.680890 -1.639065 -0.710408 0
M  V30 6 C 3.370396 -0.546438 -1.501154 0
M  V30 7 F 3.294051 -0.766023 -2.833664 0
M  V30 8 C 3.151656 0.690740 -0.962386 0
M  V30 9 C 3.227830 0.914793 0.386840 0
M  V30 10 C 3.014792 2.179640 1.074430 0
M  V30 11 C 3.946207 3.143722 1.385290 0
M  V30 12 C 3.504703 4.267964 2.048834 0
M  V30 13 N 2.238107 4.516201 2.425575 0
M  V30 14 C 1.321279 3.578163 2.125107 0
M  V30 15 N -0.021304 3.514916 2.356958 0
M  V30 16 C -0.545783 2.364056 1.869148 0
M  V30 17 C -1.978375 2.069002 2.004168 0
M  V30 18 C -2.307224 0.725102 2.558589 0
M  V30 19 C -3.524909 0.178065 1.793543 0
M  V30 20 N -3.190522 -0.093839 0.419640 0
M  V30 21 C -3.376181 -1.292100 -0.371380 0
M  V30 22 O -3.851369 -1.639050 0.732418 0
M  V30 23 C -2.916680 -1.247063 -1.772605 0
M  V30 24 N -3.143409 -2.459815 -2.438945 0
M  V30 25 C -2.406548 -3.613157 -2.097539 0
M  V30 26 C -0.899317 -3.398003 -2.150791 0
M  V30 27 C -0.158626 -4.608545 -1.630163 0
M  V30 28 C -0.503619 -4.964231 -0.222810 0
M  V30 29 O -0.459941 -6.340595 -0.098027 0
M  V30 30 C -1.842522 -4.400346 0.216130 0
M  V30 31 C -2.842992 -4.399406 -0.911683 0
M  V30 32 C -2.566622 1.060229 -0.235514 0
M  V30 33 C -2.669995 2.259191 0.649251 0
M  V30 34 C 0.515016 1.710104 1.324837 0
M  V30 35 C 1.698537 2.408433 1.450802 0
M  V30 36 H 4.005406 -0.788711 4.477978 0
M  V30 37 H 3.189975 -1.920939 3.341776 0
M  V30 38 H 4.933463 -1.563279 3.174807 0
M  V30 39 H 3.996900 -2.232122 1.310569 0
M  V30 40 H 3.867844 -2.646247 -1.055649 0
M  V30 41 H 2.908188 1.550142 -1.571682 0
M  V30 42 H 4.939794 2.933916 1.082249 0
M  V30 43 H 4.245182 5.034932 2.297060 0
M  V30 44 H -0.527147 4.302330 2.860513 0
M  V30 45 H -2.488218 2.838599 2.656595 0
M  V30 46 H -2.600999 0.729809 3.632577 0
M  V30 47 H -1.530982 -0.048832 2.430576 0
M  V30 48 H -3.887744 -0.719742 2.321655 0
M  V30 49 H -4.326083 0.969933 1.873049 0
M  V30 50 H -3.465062 -0.394794 -2.280083 0
M  V30 51 H -1.854176 -0.918537 -1.732499 0
M  V30 52 H -3.357857 -2.412782 -3.437510 0
M  V30 53 H -2.569970 -4.330715 -2.978431 0
M  V30 54 H -0.544318 -3.231452 -3.192978 0
M  V30 55 H -0.569286 -2.514010 -1.566157 0
M  V30 56 H -0.304019 -5.491252 -2.285720 0
M  V30 57 H 0.921348 -4.339774 -1.685639 0
M  V30 58 H 0.271772 -4.530714 0.447960 0
M  V30 59 H 0.244936 -6.607567 0.528607 0
M  V30 60 H -2.234120 -5.072343 1.005661 0
M  V30 61 H -1.743502 -3.406729 0.674714 0
M  V30 62 H -3.089250 -5.472958 -1.184094 0
M  V30 63 H -3.796563 -4.001334 -0.534091 0
M  V30 64 H -3.146008 1.319840 -1.164678 0
M  V30 65 H -1.530995 0.839527 -0.501269 0
M  V30 66 H -2.109490 3.083203 0.125346 0
M  V30 67 H -3.722992 2.577801 0.786049 0
M  V30 68 H 0.429884 0.745930 0.849395 0
M  V30 END ATOM
M  V30 BEGIN BOND
M  V30 1 1 1 2
M  V30 2 1 2 3
M  V30 3 2 3 4
M  V30 4 1 4 5
M  V30 5 2 5 6
M  V30 6 1 6 7
M  V30 7 1 6 8
M  V30 8 2 8 9
M  V30 9 1 9 10
M  V30 10 2 10 11
M  V30 11 1 11 12
M  V30 12 2 12 13
M  V30 13 1 13 14
M  V30 14 1 14 15
M  V30 15 1 15 16
M  V30 16 1 16 17
M  V30 17 1 17 18
M  V30 18 1 18 19
M  V30 19 1 19 20
M  V30 20 1 20 21
M  V30 21 2 21 22
M  V30 22 1 21 23
M  V30 23 1 23 24
M  V30 24 1 24 25
M  V30 25 1 25 26
M  V30 26 1 26 27
M  V30 27 1 27 28
M  V30 28 1 28 29
M  V30 29 1 28 30
M  V30 30 1 30 31
M  V30 31 1 20 32
M  V30 32 1 32 33
M  V30 33 2 16 34
M  V30 34 1 34 35
M  V30 35 1 9 3
M  V30 36 1 35 10
M  V30 37 2 35 14
M  V30 38 1 33 17
M  V30 39 1 31 25
M  V30 40 1 1 36
M  V30 41 1 1 37
M  V30 42 1 1 38
M  V30 43 1 4 39
M  V30 44 1 5 40
M  V30 45 1 8 41
M  V30 46 1 11 42
M  V30 47 1 12 43
M  V30 48 1 15 44
M  V30 49 1 17 45
M  V30 50 1 18 46
M  V30 51 1 18 47
M  V30 52 1 19 48
M  V30 53 1 19 49
M  V30 54 1 23 50
M  V30 55 1 23 51
M  V30 56 1 24 52
M  V30 57 1 25 53
M  V30 58 1 26 54
M  V30 59 1 26 55
M  V30 60 1 27 56
M  V30 61 1 27 57
M  V30 62 1 28 58
M  V30 63 1 29 59
M  V30 64 1 30 60
M  V30 65 1 30 61
M  V30 66 1 31 62
M  V30 67 1 31 63
M  V30 68 1 32 64
M  V30 69 1 32 65
M  V30 70 1 33 66
M  V30 71 1 33 67
M  V30 72 1 34 68
M  V30 END BOND
M  V30 END CTAB
M  END
>  <Dataset>  (288) 
ChEMBL_Kinases

>  <Ligand_Instance>  (288) 
nan

>  <PDB_ID>  (288) 
nan

>  <Standardized_SMILES>  (288) 
COc1ccc(F)cc1-c1ccnc2[nH]c(C3CCN(C(=O)CNC4CCC(O)CC4)CC3)cc12

>  <Name>  (288) 
nan

>  <Pocket>  (288) 
nan

>  <ATP_Site>  (288) 
nan

>  <Peripheral>  (288) 
nan

>  <Num_H_Atoms_ProtBoundConf>  (288) 
nan

>  <Num_Resolved_Atoms>  (288) 
nan

>  <Num_Not_Resolved_Atoms>  (288) 
nan

$$$$
CHEMBL3668452
     RDKit          3D

  0  0  0  0  0  0  0  0  0  0999 V3000
M  V30 BEGIN CTAB
M  V30 COUNTS 62 66 0 0 0
M  V30 BEGIN ATOM
M  V30 1 C 3.277686 -0.978941 -1.927861 0
M  V30 2 O 2.931885 -0.071394 -0.914130 0
M  V30 3 C 3.143400 -0.396993 0.417500 0
M  V30 4 C 3.681867 -1.565144 0.921917 0
M  V30 5 C 3.831301 -1.745954 2.281061 0
M  V30 6 C 3.450137 -0.771997 3.174721 0
M  V30 7 F 3.619521 -1.002949 4.493678 0
M  V30 8 C 2.908371 0.403572 2.669770 0
M  V30 9 C 2.753505 0.594881 1.294258 0
M  V30 10 C 2.166275 1.900761 1.015048 0
M  V30 11 C 3.105526 2.898457 0.851178 0
M  V30 12 C 2.657175 4.187855 0.580398 0
M  V30 13 N 1.330921 4.448877 0.481721 0
M  V30 14 C 0.407406 3.482907 0.639865 0
M  V30 15 N -0.933929 3.410022 0.606735 0
M  V30 16 C -1.357849 2.145555 0.841681 0
M  V30 17 C -2.782784 1.721638 0.875319 0
M  V30 18 C -3.135875 0.743124 -0.218542 0
M  V30 19 C -3.783531 -0.505434 0.338462 0
M  V30 20 N -2.926314 -1.043973 1.404447 0
M  V30 21 C -2.291676 -2.315308 1.342310 0
M  V30 22 O -1.568200 -2.679288 2.329133 0
M  V30 23 C -2.539709 -3.102470 0.115388 0
M  V30 24 N -1.891336 -4.376799 0.074555 0
M  V30 25 C -2.193104 -5.078125 -1.161368 0
M  V30 26 C -1.143994 -4.851588 -2.212828 0
M  V30 27 O -0.712185 -3.534397 -2.174892 0
M  V30 28 C 0.015903 -3.325284 -1.016000 0
M  V30 29 C -0.441841 -4.244337 0.096694 0
M  V30 30 C -2.771298 -0.181689 2.533997 0
M  V30 31 C -3.194799 1.226705 2.239907 0
M  V30 32 C -0.243780 1.347519 1.038904 0
M  V30 33 C 0.827006 2.213660 0.905641 0
M  V30 34 H 2.762307 -0.721275 -2.889431 0
M  V30 35 H 4.366639 -0.870387 -2.139311 0
M  V30 36 H 3.068833 -2.032981 -1.637883 0
M  V30 37 H 3.961993 -2.290306 0.186028 0
M  V30 38 H 4.266288 -2.697342 2.623837 0
M  V30 39 H 2.639595 1.108810 3.457248 0
M  V30 40 H 4.183851 2.833507 0.902276 0
M  V30 41 H 3.271877 5.081011 0.425640 0
M  V30 42 H -1.517243 4.271485 0.415765 0
M  V30 43 H -3.383579 2.635202 0.676713 0
M  V30 44 H -3.839857 1.162067 -0.967356 0
M  V30 45 H -2.207912 0.531317 -0.788909 0
M  V30 46 H -3.988235 -1.218182 -0.454226 0
M  V30 47 H -4.721271 -0.192778 0.822313 0
M  V30 48 H -2.239851 -2.498079 -0.744176 0
M  V30 49 H -3.631859 -3.292252 0.024871 0
M  V30 50 H -3.164648 -4.728720 -1.578760 0
M  V30 51 H -2.327460 -6.173394 -0.938995 0
M  V30 52 H -0.287242 -5.583261 -2.149791 0
M  V30 53 H -1.614253 -4.975736 -3.230663 0
M  V30 54 H 1.080516 -3.512008 -1.265201 0
M  V30 55 H -0.067533 -2.254139 -0.734891 0
M  V30 56 H -0.022153 -5.261913 -0.153209 0
M  V30 57 H -0.037683 -3.900013 1.055426 0
M  V30 58 H -1.768843 -0.240987 3.010559 0
M  V30 59 H -3.477910 -0.559946 3.317297 0
M  V30 60 H -2.780241 1.958573 2.962285 0
M  V30 61 H -4.298001 1.346801 2.290688 0
M  V30 62 H -0.222991 0.299218 1.246894 0
M  V30 END ATOM
M  V30 BEGIN BOND
M  V30 1 1 1 2
M  V30 2 1 2 3
M  V30 3 2 3 4
M  V30 4 1 4 5
M  V30 5 2 5 6
M  V30 6 1 6 7
M  V30 7 1 6 8
M  V30 8 2 8 9
M  V30 9 1 9 10
M  V30 10 2 10 11
M  V30 11 1 11 12
M  V30 12 2 12 13
M  V30 13 1 13 14
M  V30 14 1 14 15
M  V30 15 1 15 16
M  V30 16 1 16 17
M  V30 17 1 17 18
M  V30 18 1 18 19
M  V30 19 1 19 20
M  V30 20 1 20 21
M  V30 21 2 21 22
M  V30 22 1 21 23
M  V30 23 1 23 24
M  V30 24 1 24 25
M  V30 25 1 25 26
M  V30 26 1 26 27
M  V30 27 1 27 28
M  V30 28 1 28 29
M  V30 29 1 20 30
M  V30 30 1 30 31
M  V30 31 2 16 32
M  V30 32 1 32 33
M  V30 33 1 9 3
M  V30 34 1 33 10
M  V30 35 2 33 14
M  V30 36 1 31 17
M  V30 37 1 29 24
M  V30 38 1 1 34
M  V30 39 1 1 35
M  V30 40 1 1 36
M  V30 41 1 4 37
M  V30 42 1 5 38
M  V30 43 1 8 39
M  V30 44 1 11 40
M  V30 45 1 12 41
M  V30 46 1 15 42
M  V30 47 1 17 43
M  V30 48 1 18 44
M  V30 49 1 18 45
M  V30 50 1 19 46
M  V30 51 1 19 47
M  V30 52 1 23 48
M  V30 53 1 23 49
M  V30 54 1 25 50
M  V30 55 1 25 51
M  V30 56 1 26 52
M  V30 57 1 26 53
M  V30 58 1 28 54
M  V30 59 1 28 55
M  V30 60 1 29 56
M  V30 61 1 29 57
M  V30 62 1 30 58
M  V30 63 1 30 59
M  V30 64 1 31 60
M  V30 65 1 31 61
M  V30 66 1 32 62
M  V30 END BOND
M  V30 END CTAB
M  END
>  <Dataset>  (289) 
ChEMBL_Kinases

>  <Ligand_Instance>  (289) 
nan

>  <PDB_ID>  (289) 
nan

>  <Standardized_SMILES>  (289) 
COc1ccc(F)cc1-c1ccnc2[nH]c(C3CCN(C(=O)CN4CCOCC4)CC3)cc12

>  <Name>  (289) 
nan

>  <Pocket>  (289) 
nan

>  <ATP_Site>  (289) 
nan

>  <Peripheral>  (289) 
nan

>  <Num_H_Atoms_ProtBoundConf>  (289) 
nan

>  <Num_Resolved_Atoms>  (289) 
nan

>  <Num_Not_Resolved_Atoms>  (289) 
nan

$$$$
CHEMBL3668451
     RDKit          3D

  0  0  0  0  0  0  0  0  0  0999 V3000
M  V30 BEGIN CTAB
M  V30 COUNTS 64 68 0 0 0
M  V30 BEGIN ATOM
M  V30 1 C 5.156308 1.798655 -0.970355 0
M  V30 2 O 4.233397 2.330461 -0.024330 0
M  V30 3 C 4.353028 1.906283 1.283220 0
M  V30 4 C 5.258863 1.019234 1.825081 0
M  V30 5 C 5.262044 0.686232 3.155714 0
M  V30 6 C 4.338104 1.240493 4.014558 0
M  V30 7 F 4.344631 0.907408 5.337843 0
M  V30 8 C 3.423331 2.133498 3.478093 0
M  V30 9 C 3.410389 2.480540 2.124049 0
M  V30 10 C 2.343550 3.439369 1.828316 0
M  V30 11 C 2.579025 4.806026 1.910140 0
M  V30 12 C 1.502642 5.617110 1.615386 0
M  V30 13 N 0.269473 5.187029 1.262245 0
M  V30 14 C 0.015008 3.845100 1.175093 0
M  V30 15 N -1.068439 3.112943 0.860907 0
M  V30 16 C -0.790000 1.802577 0.924518 0
M  V30 17 C -1.619250 0.602707 0.677511 0
M  V30 18 C -2.702506 0.449659 1.721688 0
M  V30 19 C -3.113875 -1.029873 1.692172 0
M  V30 20 N -3.128161 -1.492028 0.290649 0
M  V30 21 C -2.832321 -2.848862 -0.014517 0
M  V30 22 O -2.564337 -3.521737 1.012434 0
M  V30 23 C -2.932308 -3.050164 -1.460004 0
M  V30 24 N -2.641273 -4.402785 -1.890183 0
M  V30 25 C -1.244061 -4.735160 -1.712810 0
M  V30 26 C -1.024368 -6.085915 -2.382179 0
M  V30 27 C -1.739079 -7.102494 -1.550145 0
M  V30 28 C -2.815680 -6.542260 -0.686306 0
M  V30 29 C -3.518241 -5.330096 -1.226493 0
M  V30 30 C -3.462548 -0.374214 -0.570646 0
M  V30 31 C -2.274490 0.582098 -0.660887 0
M  V30 32 C 0.547951 1.746084 1.301620 0
M  V30 33 C 1.078649 3.009612 1.466036 0
M  V30 34 H 5.237165 0.688545 -0.861883 0
M  V30 35 H 6.155320 2.214380 -0.721549 0
M  V30 36 H 4.879228 2.088924 -1.983548 0
M  V30 37 H 5.962735 0.612331 1.109365 0
M  V30 38 H 6.005561 -0.019053 3.506723 0
M  V30 39 H 2.728900 2.522919 4.230679 0
M  V30 40 H 3.544719 5.203467 2.187476 0
M  V30 41 H 1.726278 6.687911 1.689865 0
M  V30 42 H -2.023640 3.494014 0.595664 0
M  V30 43 H -1.009286 -0.340593 0.765238 0
M  V30 44 H -3.588221 1.061397 1.440834 0
M  V30 45 H -2.357678 0.726532 2.726488 0
M  V30 46 H -2.497533 -1.652252 2.339605 0
M  V30 47 H -4.168058 -1.112863 2.035518 0
M  V30 48 H -3.990459 -2.790088 -1.755607 0
M  V30 49 H -2.314883 -2.355467 -2.056573 0
M  V30 50 H -1.006371 -4.853947 -0.649809 0
M  V30 51 H -0.613747 -3.986221 -2.191902 0
M  V30 52 H -1.569213 -6.028208 -3.350684 0
M  V30 53 H 0.031047 -6.359520 -2.478347 0
M  V30 54 H -0.975826 -7.607769 -0.888350 0
M  V30 55 H -2.107247 -7.951172 -2.200042 0
M  V30 56 H -3.595527 -7.343987 -0.580961 0
M  V30 57 H -2.452041 -6.377218 0.368633 0
M  V30 58 H -4.343499 -5.630676 -1.896490 0
M  V30 59 H -3.959884 -4.813904 -0.350727 0
M  V30 60 H -4.371254 0.127636 -0.189530 0
M  V30 61 H -3.696052 -0.687845 -1.602527 0
M  V30 62 H -1.577979 0.241793 -1.482237 0
M  V30 63 H -2.620144 1.623051 -0.886753 0
M  V30 64 H 1.132597 0.844975 1.456729 0
M  V30 END ATOM
M  V30 BEGIN BOND
M  V30 1 1 1 2
M  V30 2 1 2 3
M  V30 3 2 3 4
M  V30 4 1 4 5
M  V30 5 2 5 6
M  V30 6 1 6 7
M  V30 7 1 6 8
M  V30 8 2 8 9
M  V30 9 1 9 10
M  V30 10 2 10 11
M  V30 11 1 11 12
M  V30 12 2 12 13
M  V30 13 1 13 14
M  V30 14 1 14 15
M  V30 15 1 15 16
M  V30 16 1 16 17
M  V30 17 1 17 18
M  V30 18 1 18 19
M  V30 19 1 19 20
M  V30 20 1 20 21
M  V30 21 2 21 22
M  V30 22 1 21 23
M  V30 23 1 23 24
M  V30 24 1 24 25
M  V30 25 1 25 26
M  V30 26 1 26 27
M  V30 27 1 27 28
M  V30 28 1 28 29
M  V30 29 1 20 30
M  V30 30 1 30 31
M  V30 31 2 16 32
M  V30 32 1 32 33
M  V30 33 1 9 3
M  V30 34 1 33 10
M  V30 35 2 33 14
M  V30 36 1 31 17
M  V30 37 1 29 24
M  V30 38 1 1 34
M  V30 39 1 1 35
M  V30 40 1 1 36
M  V30 41 1 4 37
M  V30 42 1 5 38
M  V30 43 1 8 39
M  V30 44 1 11 40
M  V30 45 1 12 41
M  V30 46 1 15 42
M  V30 47 1 17 43
M  V30 48 1 18 44
M  V30 49 1 18 45
M  V30 50 1 19 46
M  V30 51 1 19 47
M  V30 52 1 23 48
M  V30 53 1 23 49
M  V30 54 1 25 50
M  V30 55 1 25 51
M  V30 56 1 26 52
M  V30 57 1 26 53
M  V30 58 1 27 54
M  V30 59 1 27 55
M  V30 60 1 28 56
M  V30 61 1 28 57
M  V30 62 1 29 58
M  V30 63 1 29 59
M  V30 64 1 30 60
M  V30 65 1 30 61
M  V30 66 1 31 62
M  V30 67 1 31 63
M  V30 68 1 32 64
M  V30 END BOND
M  V30 END CTAB
M  END
>  <Dataset>  (290) 
ChEMBL_Kinases

>  <Ligand_Instance>  (290) 
nan

>  <PDB_ID>  (290) 
nan

>  <Standardized_SMILES>  (290) 
COc1ccc(F)cc1-c1ccnc2[nH]c(C3CCN(C(=O)CN4CCCCC4)CC3)cc12

>  <Name>  (290) 
nan

>  <Pocket>  (290) 
nan

>  <ATP_Site>  (290) 
nan

>  <Peripheral>  (290) 
nan

>  <Num_H_Atoms_ProtBoundConf>  (290) 
nan

>  <Num_Resolved_Atoms>  (290) 
nan

>  <Num_Not_Resolved_Atoms>  (290) 
nan

$$$$
CHEMBL3668450
     RDKit          3D

  0  0  0  0  0  0  0  0  0  0999 V3000
M  V30 BEGIN CTAB
M  V30 COUNTS 62 66 0 0 0
M  V30 BEGIN ATOM
M  V30 1 C -0.130885 -0.666684 5.547530 0
M  V30 2 N 0.236545 -1.832688 4.770326 0
M  V30 3 C 1.479540 -1.540366 4.038877 0
M  V30 4 C 1.959991 -2.863420 3.496880 0
M  V30 5 C 0.966128 -3.478043 2.574962 0
M  V30 6 C 1.382311 -3.228048 1.156761 0
M  V30 7 C 1.351953 -2.017794 0.494310 0
M  V30 8 C 1.804957 -2.131779 -0.802806 0
M  V30 9 C 1.993287 -1.298178 -1.888246 0
M  V30 10 C 1.622553 0.094966 -1.657150 0
M  V30 11 C 0.362234 0.593083 -1.907838 0
M  V30 12 C -0.087469 1.869209 -1.729910 0
M  V30 13 N -1.389754 2.326592 -1.998335 0
M  V30 14 C -2.637096 1.848436 -2.446608 0
M  V30 15 C -3.434331 0.981546 -1.522853 0
M  V30 16 C -3.722347 1.727760 -0.238765 0
M  V30 17 C -3.321062 0.877335 0.966446 0
M  V30 18 O -2.026069 0.401537 0.654019 0
M  V30 19 C -2.248632 -0.730665 -0.126415 0
M  V30 20 C -3.041905 -0.426528 -1.362244 0
M  V30 21 C 0.877487 2.722612 -1.237876 0
M  V30 22 C 2.161418 2.323677 -0.956263 0
M  V30 23 C 2.514374 1.022094 -1.168711 0
M  V30 24 F 3.784485 0.647539 -0.885649 0
M  V30 25 C 2.490996 -1.790152 -3.081129 0
M  V30 26 C 2.790408 -3.151504 -3.137080 0
M  V30 27 N 2.606267 -3.966097 -2.076872 0
M  V30 28 C 2.121835 -3.466925 -0.927697 0
M  V30 29 N 1.868767 -4.100629 0.231318 0
M  V30 30 C -0.463091 -3.181557 2.844282 0
M  V30 31 C -0.755798 -2.012768 3.709867 0
M  V30 32 H -0.459096 0.187091 4.951131 0
M  V30 33 H -0.839514 -1.004711 6.307289 0
M  V30 34 H 0.798637 -0.341447 6.088752 0
M  V30 35 H 2.227062 -1.075346 4.711435 0
M  V30 36 H 1.190646 -0.810205 3.255609 0
M  V30 37 H 2.115412 -3.521172 4.390952 0
M  V30 38 H 2.921673 -2.769600 2.952509 0
M  V30 39 H 1.081618 -4.596381 2.699957 0
M  V30 40 H 1.024814 -1.046085 0.875716 0
M  V30 41 H -0.312605 -0.158782 -2.298743 0
M  V30 42 H -1.495416 3.376874 -1.801190 0
M  V30 43 H -3.296216 2.688242 -2.769047 0
M  V30 44 H -2.446650 1.289354 -3.432909 0
M  V30 45 H -4.466423 0.947050 -2.024772 0
M  V30 46 H -4.752401 2.069329 -0.121714 0
M  V30 47 H -3.071995 2.643384 -0.170090 0
M  V30 48 H -4.052456 0.032022 0.971996 0
M  V30 49 H -3.351585 1.479726 1.873729 0
M  V30 50 H -1.279490 -1.195605 -0.369201 0
M  V30 51 H -2.753503 -1.449259 0.553190 0
M  V30 52 H -2.540069 -0.799915 -2.266811 0
M  V30 53 H -3.962796 -1.094219 -1.284781 0
M  V30 54 H 0.670974 3.770167 -1.043907 0
M  V30 55 H 2.887958 3.024765 -0.571086 0
M  V30 56 H 2.618934 -1.097344 -3.897936 0
M  V30 57 H 3.187554 -3.547568 -4.084697 0
M  V30 58 H 1.999842 -5.121525 0.471303 0
M  V30 59 H -1.042984 -4.053823 3.249630 0
M  V30 60 H -0.945098 -2.985322 1.841896 0
M  V30 61 H -0.834927 -1.087763 3.085232 0
M  V30 62 H -1.740178 -2.126732 4.207130 0
M  V30 END ATOM
M  V30 BEGIN BOND
M  V30 1 1 1 2
M  V30 2 1 2 3
M  V30 3 1 3 4
M  V30 4 1 4 5
M  V30 5 1 5 6
M  V30 6 2 6 7
M  V30 7 1 7 8
M  V30 8 2 8 9
M  V30 9 1 9 10
M  V30 10 2 10 11
M  V30 11 1 11 12
M  V30 12 1 12 13
M  V30 13 1 13 14
M  V30 14 1 14 15
M  V30 15 1 15 16
M  V30 16 1 16 17
M  V30 17 1 17 18
M  V30 18 1 18 19
M  V30 19 1 19 20
M  V30 20 2 12 21
M  V30 21 1 21 22
M  V30 22 2 22 23
M  V30 23 1 23 24
M  V30 24 1 9 25
M  V30 25 2 25 26
M  V30 26 1 26 27
M  V30 27 2 27 28
M  V30 28 1 28 29
M  V30 29 1 5 30
M  V30 30 1 30 31
M  V30 31 1 31 2
M  V30 32 1 29 6
M  V30 33 1 28 8
M  V30 34 1 23 10
M  V30 35 1 20 15
M  V30 36 1 1 32
M  V30 37 1 1 33
M  V30 38 1 1 34
M  V30 39 1 3 35
M  V30 40 1 3 36
M  V30 41 1 4 37
M  V30 42 1 4 38
M  V30 43 1 5 39
M  V30 44 1 7 40
M  V30 45 1 11 41
M  V30 46 1 13 42
M  V30 47 1 14 43
M  V30 48 1 14 44
M  V30 49 1 15 45
M  V30 50 1 16 46
M  V30 51 1 16 47
M  V30 52 1 17 48
M  V30 53 1 17 49
M  V30 54 1 19 50
M  V30 55 1 19 51
M  V30 56 1 20 52
M  V30 57 1 20 53
M  V30 58 1 21 54
M  V30 59 1 22 55
M  V30 60 1 25 56
M  V30 61 1 26 57
M  V30 62 1 29 58
M  V30 63 1 30 59
M  V30 64 1 30 60
M  V30 65 1 31 61
M  V30 66 1 31 62
M  V30 END BOND
M  V30 END CTAB
M  END
>  <Dataset>  (291) 
ChEMBL_Kinases

>  <Ligand_Instance>  (291) 
nan

>  <PDB_ID>  (291) 
nan

>  <Standardized_SMILES>  (291) 
CN1CCC(c2cc3c(-c4cc(NCC5CCOCC5)ccc4F)ccnc3[nH]2)CC1

>  <Name>  (291) 
nan

>  <Pocket>  (291) 
nan

>  <ATP_Site>  (291) 
nan

>  <Peripheral>  (291) 
nan

>  <Num_H_Atoms_ProtBoundConf>  (291) 
nan

>  <Num_Resolved_Atoms>  (291) 
nan

>  <Num_Not_Resolved_Atoms>  (291) 
nan

$$$$
CHEMBL3668449
     RDKit          3D

  0  0  0  0  0  0  0  0  0  0999 V3000
M  V30 BEGIN CTAB
M  V30 COUNTS 53 57 0 0 0
M  V30 BEGIN ATOM
M  V30 1 C -2.335696 -2.098843 2.661832 0
M  V30 2 N -0.920012 -2.029857 2.829567 0
M  V30 3 C -0.502662 -2.927043 3.875584 0
M  V30 4 C 1.020783 -2.965675 3.925889 0
M  V30 5 C 1.549729 -2.062972 2.792187 0
M  V30 6 C 1.055640 -2.576166 1.486624 0
M  V30 7 C 0.613750 -1.774016 0.448793 0
M  V30 8 C 0.186290 -2.481822 -0.654746 0
M  V30 9 C -0.328433 -2.083626 -1.889043 0
M  V30 10 C -0.455384 -0.640824 -2.102401 0
M  V30 11 N 0.545475 0.260405 -2.046787 0
M  V30 12 C 0.329039 1.571604 -2.222960 0
M  V30 13 N 1.530204 2.328084 -2.139745 0
M  V30 14 C 1.935225 2.537824 -0.783881 0
M  V30 15 C 0.970782 3.242582 0.064798 0
M  V30 16 N 0.761740 4.525456 0.383465 0
M  V30 17 N -0.246708 4.662201 1.196802 0
M  V30 18 C -0.764677 3.436958 1.457673 0
M  V30 19 N 0.009884 2.602211 0.746193 0
M  V30 20 C -0.952639 2.010726 -2.466767 0
M  V30 21 C -2.012565 1.117620 -2.533978 0
M  V30 22 C -1.747709 -0.226643 -2.347536 0
M  V30 23 Cl -3.127590 -1.292904 -2.447463 0
M  V30 24 C -0.656389 -3.100717 -2.762397 0
M  V30 25 C -0.444759 -4.410772 -2.332482 0
M  V30 26 N 0.049779 -4.760985 -1.145997 0
M  V30 27 C 0.391084 -3.801072 -0.241531 0
M  V30 28 N 0.890846 -3.815782 0.991894 0
M  V30 29 C 1.019970 -0.650803 3.036293 0
M  V30 30 C -0.504824 -0.687627 3.121824 0
M  V30 31 H -2.653264 -1.537732 1.740342 0
M  V30 32 H -2.649370 -3.176296 2.536723 0
M  V30 33 H -2.888894 -1.683547 3.526701 0
M  V30 34 H -0.925548 -2.628094 4.851576 0
M  V30 35 H -0.899478 -3.960584 3.671914 0
M  V30 36 H 1.426740 -2.604739 4.886891 0
M  V30 37 H 1.369867 -3.972517 3.745744 0
M  V30 38 H 2.635808 -2.055178 2.878478 0
M  V30 39 H 0.598632 -0.694387 0.485561 0
M  V30 40 H 2.008447 2.661820 -3.008338 0
M  V30 41 H 2.254355 1.573993 -0.318958 0
M  V30 42 H 2.876098 3.155573 -0.810405 0
M  V30 43 H -1.609212 3.149565 2.089562 0
M  V30 44 H -0.167780 1.558229 0.755047 0
M  V30 45 H -1.049139 3.070482 -2.594409 0
M  V30 46 H -2.998717 1.554876 -2.735347 0
M  V30 47 H -1.046919 -2.792596 -3.701152 0
M  V30 48 H -0.716397 -5.192282 -3.046217 0
M  V30 49 H 1.130300 -4.675282 1.527445 0
M  V30 50 H 1.369153 -0.024716 2.201717 0
M  V30 51 H 1.418673 -0.259916 3.975290 0
M  V30 52 H -0.938850 -0.026529 2.365940 0
M  V30 53 H -0.818612 -0.361650 4.141794 0
M  V30 END ATOM
M  V30 BEGIN BOND
M  V30 1 1 1 2
M  V30 2 1 2 3
M  V30 3 1 3 4
M  V30 4 1 4 5
M  V30 5 1 5 6
M  V30 6 2 6 7
M  V30 7 1 7 8
M  V30 8 2 8 9
M  V30 9 1 9 10
M  V30 10 2 10 11
M  V30 11 1 11 12
M  V30 12 1 12 13
M  V30 13 1 13 14
M  V30 14 1 14 15
M  V30 15 2 15 16
M  V30 16 1 16 17
M  V30 17 2 17 18
M  V30 18 1 18 19
M  V30 19 2 12 20
M  V30 20 1 20 21
M  V30 21 2 21 22
M  V30 22 1 22 23
M  V30 23 1 9 24
M  V30 24 2 24 25
M  V30 25 1 25 26
M  V30 26 2 26 27
M  V30 27 1 27 28
M  V30 28 1 5 29
M  V30 29 1 29 30
M  V30 30 1 30 2
M  V30 31 1 28 6
M  V30 32 1 27 8
M  V30 33 1 22 10
M  V30 34 1 19 15
M  V30 35 1 1 31
M  V30 36 1 1 32
M  V30 37 1 1 33
M  V30 38 1 3 34
M  V30 39 1 3 35
M  V30 40 1 4 36
M  V30 41 1 4 37
M  V30 42 1 5 38
M  V30 43 1 7 39
M  V30 44 1 13 40
M  V30 45 1 14 41
M  V30 46 1 14 42
M  V30 47 1 18 43
M  V30 48 1 19 44
M  V30 49 1 20 45
M  V30 50 1 21 46
M  V30 51 1 24 47
M  V30 52 1 25 48
M  V30 53 1 28 49
M  V30 54 1 29 50
M  V30 55 1 29 51
M  V30 56 1 30 52
M  V30 57 1 30 53
M  V30 END BOND
M  V30 END CTAB
M  END
>  <Dataset>  (292) 
ChEMBL_Kinases

>  <Ligand_Instance>  (292) 
nan

>  <PDB_ID>  (292) 
nan

>  <Standardized_SMILES>  (292) 
CN1CCC(c2cc3c(-c4nc(NCc5nnc[nH]5)ccc4Cl)ccnc3[nH]2)CC1

>  <Name>  (292) 
nan

>  <Pocket>  (292) 
nan

>  <ATP_Site>  (292) 
nan

>  <Peripheral>  (292) 
nan

>  <Num_H_Atoms_ProtBoundConf>  (292) 
nan

>  <Num_Resolved_Atoms>  (292) 
nan

>  <Num_Not_Resolved_Atoms>  (292) 
nan

$$$$
CHEMBL3668448
     RDKit          3D

  0  0  0  0  0  0  0  0  0  0999 V3000
M  V30 BEGIN CTAB
M  V30 COUNTS 67 71 0 0 0
M  V30 BEGIN ATOM
M  V30 1 C 2.361760 -3.718627 3.287681 0
M  V30 2 C 2.688167 -2.335863 3.774273 0
M  V30 3 O 2.911801 -1.926051 4.925994 0
M  V30 4 N 2.792192 -1.202589 2.895016 0
M  V30 5 C 3.079213 0.029882 3.540768 0
M  V30 6 C 3.865731 0.973513 2.683409 0
M  V30 7 C 3.386559 1.101506 1.290088 0
M  V30 8 C 2.243136 2.073865 1.079481 0
M  V30 9 N 1.032592 1.736303 1.810488 0
M  V30 10 C -0.039681 2.546486 1.249382 0
M  V30 11 C -0.701290 3.692476 1.636893 0
M  V30 12 C -1.641817 4.201135 0.810300 0
M  V30 13 C -1.932469 3.591492 -0.384677 0
M  V30 14 Cl -3.146562 4.214819 -1.474904 0
M  V30 15 C -1.288205 2.454160 -0.784635 0
M  V30 16 C -1.499578 1.671106 -2.027669 0
M  V30 17 C -1.143109 2.136604 -3.298950 0
M  V30 18 C -1.318277 1.275313 -4.389864 0
M  V30 19 N -1.826778 0.024710 -4.182134 0
M  V30 20 C -2.169803 -0.421338 -2.968617 0
M  V30 21 N -2.704689 -1.591225 -2.564532 0
M  V30 22 C -2.907117 -1.568286 -1.222090 0
M  V30 23 C -3.456980 -2.526245 -0.228459 0
M  V30 24 C -3.508100 -3.908456 -0.767800 0
M  V30 25 C -2.118897 -4.377786 -1.044947 0
M  V30 26 N -1.385017 -4.482281 0.176635 0
M  V30 27 C 0.022533 -4.132724 -0.034073 0
M  V30 28 C -1.937174 -3.828335 1.311143 0
M  V30 29 C -2.661698 -2.554063 1.057046 0
M  V30 30 C -2.472775 -0.314467 -0.761035 0
M  V30 31 C -2.009661 0.401309 -1.873615 0
M  V30 32 N -0.361384 1.982442 0.064729 0
M  V30 33 C 3.098820 -0.226987 0.629603 0
M  V30 34 C 2.627352 -1.317747 1.483471 0
M  V30 35 H 3.207920 -4.414033 3.436041 0
M  V30 36 H 2.095346 -3.716371 2.230546 0
M  V30 37 H 1.490953 -4.097358 3.865313 0
M  V30 38 H 2.178976 0.513401 3.957585 0
M  V30 39 H 3.731327 -0.183682 4.427627 0
M  V30 40 H 3.897769 1.992837 3.141305 0
M  V30 41 H 4.933777 0.636862 2.650196 0
M  V30 42 H 4.225617 1.554216 0.698308 0
M  V30 43 H 2.068091 2.153543 0.005294 0
M  V30 44 H 2.636183 3.069238 1.418712 0
M  V30 45 H 0.406849 1.277676 2.499917 0
M  V30 46 H -0.330362 4.006502 2.594882 0
M  V30 47 H -2.134832 5.090168 1.137516 0
M  V30 48 H -0.758515 3.143607 -3.327656 0
M  V30 49 H -1.024216 1.680896 -5.344750 0
M  V30 50 H -2.950831 -2.416605 -3.135468 0
M  V30 51 H -4.488385 -2.160320 0.059535 0
M  V30 52 H -4.168435 -4.035018 -1.660006 0
M  V30 53 H -3.924409 -4.584017 0.017517 0
M  V30 54 H -2.093445 -5.358383 -1.594794 0
M  V30 55 H -1.527957 -3.698878 -1.700335 0
M  V30 56 H 0.246497 -4.436167 -1.098279 0
M  V30 57 H 0.205232 -3.059145 0.003419 0
M  V30 58 H 0.660099 -4.739286 0.635623 0
M  V30 59 H -1.057747 -3.579110 1.976629 0
M  V30 60 H -2.573772 -4.490177 1.941520 0
M  V30 61 H -1.941589 -1.729163 1.002734 0
M  V30 62 H -3.311401 -2.346402 1.939818 0
M  V30 63 H -2.470791 0.080247 0.249301 0
M  V30 64 H 3.962404 -0.547893 0.018591 0
M  V30 65 H 2.303847 0.011243 -0.151737 0
M  V30 66 H 3.110420 -2.291560 1.189853 0
M  V30 67 H 1.527349 -1.501135 1.321621 0
M  V30 END ATOM
M  V30 BEGIN BOND
M  V30 1 1 1 2
M  V30 2 2 2 3
M  V30 3 1 2 4
M  V30 4 1 4 5
M  V30 5 1 5 6
M  V30 6 1 6 7
M  V30 7 1 7 8
M  V30 8 1 8 9
M  V30 9 1 9 10
M  V30 10 2 10 11
M  V30 11 1 11 12
M  V30 12 2 12 13
M  V30 13 1 13 14
M  V30 14 1 13 15
M  V30 15 1 15 16
M  V30 16 2 16 17
M  V30 17 1 17 18
M  V30 18 2 18 19
M  V30 19 1 19 20
M  V30 20 1 20 21
M  V30 21 1 21 22
M  V30 22 1 22 23
M  V30 23 1 23 24
M  V30 24 1 24 25
M  V30 25 1 25 26
M  V30 26 1 26 27
M  V30 27 1 26 28
M  V30 28 1 28 29
M  V30 29 2 22 30
M  V30 30 1 30 31
M  V30 31 2 15 32
M  V30 32 1 7 33
M  V30 33 1 33 34
M  V30 34 1 34 4
M  V30 35 1 32 10
M  V30 36 1 31 16
M  V30 37 2 31 20
M  V30 38 1 29 23
M  V30 39 1 1 35
M  V30 40 1 1 36
M  V30 41 1 1 37
M  V30 42 1 5 38
M  V30 43 1 5 39
M  V30 44 1 6 40
M  V30 45 1 6 41
M  V30 46 1 7 42
M  V30 47 1 8 43
M  V30 48 1 8 44
M  V30 49 1 9 45
M  V30 50 1 11 46
M  V30 51 1 12 47
M  V30 52 1 17 48
M  V30 53 1 18 49
M  V30 54 1 21 50
M  V30 55 1 23 51
M  V30 56 1 24 52
M  V30 57 1 24 53
M  V30 58 1 25 54
M  V30 59 1 25 55
M  V30 60 1 27 56
M  V30 61 1 27 57
M  V30 62 1 27 58
M  V30 63 1 28 59
M  V30 64 1 28 60
M  V30 65 1 29 61
M  V30 66 1 29 62
M  V30 67 1 30 63
M  V30 68 1 33 64
M  V30 69 1 33 65
M  V30 70 1 34 66
M  V30 71 1 34 67
M  V30 END BOND
M  V30 END CTAB
M  END
>  <Dataset>  (293) 
ChEMBL_Kinases

>  <Ligand_Instance>  (293) 
nan

>  <PDB_ID>  (293) 
nan

>  <Standardized_SMILES>  (293) 
CC(=O)N1CCC(CNc2ccc(Cl)c(-c3ccnc4[nH]c(C5CCN(C)CC5)cc34)n2)CC1

>  <Name>  (293) 
nan

>  <Pocket>  (293) 
nan

>  <ATP_Site>  (293) 
nan

>  <Peripheral>  (293) 
nan

>  <Num_H_Atoms_ProtBoundConf>  (293) 
nan

>  <Num_Resolved_Atoms>  (293) 
nan

>  <Num_Not_Resolved_Atoms>  (293) 
nan

$$$$
CHEMBL3668447
     RDKit          3D

  0  0  0  0  0  0  0  0  0  0999 V3000
M  V30 BEGIN CTAB
M  V30 COUNTS 64 68 0 0 0
M  V30 BEGIN ATOM
M  V30 1 C 4.158770 1.272990 3.972569 0
M  V30 2 N 4.329589 2.252454 2.954505 0
M  V30 3 C 4.328741 1.802368 1.610215 0
M  V30 4 C 3.628121 2.775557 0.682900 0
M  V30 5 C 2.231993 3.083119 1.289685 0
M  V30 6 C 1.599501 1.757006 1.555222 0
M  V30 7 C 1.415898 0.777517 0.607037 0
M  V30 8 C 0.819975 -0.243978 1.358827 0
M  V30 9 C 0.430304 -1.518821 0.928672 0
M  V30 10 C 0.530331 -1.946991 -0.461072 0
M  V30 11 N -0.264638 -1.276165 -1.300160 0
M  V30 12 C -0.357199 -1.433502 -2.608073 0
M  V30 13 N -1.239781 -0.863386 -3.558184 0
M  V30 14 C -2.469288 -0.175920 -3.081764 0
M  V30 15 C -3.027504 -1.132173 -2.037013 0
M  V30 16 C -3.611964 -2.272906 -2.536895 0
M  V30 17 C -4.094097 -3.167320 -1.608485 0
M  V30 18 C -4.037647 -3.007373 -0.227663 0
M  V30 19 O -4.497950 -3.864881 0.739099 0
M  V30 20 C -5.121946 -5.076036 0.407359 0
M  V30 21 C -6.364230 -4.785354 -0.336107 0
M  V30 22 O -6.463560 -3.507396 -0.284757 0
M  V30 23 O -7.551927 -4.813714 -1.074752 0
M  V30 24 C -3.442141 -1.840500 0.205666 0
M  V30 25 C -2.943378 -0.914016 -0.683258 0
M  V30 26 C 0.487967 -2.416762 -3.132026 0
M  V30 27 C 1.338970 -3.153291 -2.327067 0
M  V30 28 C 1.366630 -2.919835 -0.958475 0
M  V30 29 Cl 2.377400 -3.757338 0.207379 0
M  V30 30 C -0.117438 -2.416094 1.829899 0
M  V30 31 C -0.276752 -2.045778 3.148961 0
M  V30 32 N 0.113663 -0.798060 3.531243 0
M  V30 33 C 0.647772 0.092530 2.685803 0
M  V30 34 N 1.142254 1.337470 2.761100 0
M  V30 35 C 2.498229 3.870157 2.521271 0
M  V30 36 C 3.787732 3.536400 3.224588 0
M  V30 37 H 3.848383 0.322351 3.448566 0
M  V30 38 H 3.394660 1.580970 4.735433 0
M  V30 39 H 5.100704 1.030100 4.540235 0
M  V30 40 H 5.378342 1.684564 1.220845 0
M  V30 41 H 3.860741 0.792459 1.508320 0
M  V30 42 H 3.501828 2.247296 -0.270730 0
M  V30 43 H 4.152242 3.730973 0.640690 0
M  V30 44 H 1.654480 3.593749 0.507006 0
M  V30 45 H 1.647487 0.744256 -0.446893 0
M  V30 46 H -1.079800 -0.894678 -4.583474 0
M  V30 47 H -2.130027 0.743204 -2.584448 0
M  V30 48 H -3.170119 0.028051 -3.880108 0
M  V30 49 H -3.697206 -2.470927 -3.594155 0
M  V30 50 H -4.531864 -4.066163 -2.010327 0
M  V30 51 H -5.304320 -5.714483 1.304937 0
M  V30 52 H -4.432935 -5.618215 -0.305066 0
M  V30 53 H -7.524384 -4.858004 -2.102654 0
M  V30 54 H -3.338406 -1.592012 1.246638 0
M  V30 55 H -2.482836 0.015342 -0.323890 0
M  V30 56 H 0.579446 -2.711065 -4.163903 0
M  V30 57 H 2.008797 -3.922345 -2.664980 0
M  V30 58 H -0.436440 -3.410754 1.550061 0
M  V30 59 H -0.706569 -2.722694 3.889980 0
M  V30 60 H 1.178319 1.923701 3.625486 0
M  V30 61 H 1.653871 3.904887 3.229567 0
M  V30 62 H 2.608097 4.945014 2.182642 0
M  V30 63 H 4.558902 4.345889 3.089939 0
M  V30 64 H 3.566669 3.553176 4.337748 0
M  V30 END ATOM
M  V30 BEGIN BOND
M  V30 1 1 1 2
M  V30 2 1 2 3
M  V30 3 1 3 4
M  V30 4 1 4 5
M  V30 5 1 5 6
M  V30 6 2 6 7
M  V30 7 1 7 8
M  V30 8 2 8 9
M  V30 9 1 9 10
M  V30 10 2 10 11
M  V30 11 1 11 12
M  V30 12 1 12 13
M  V30 13 1 13 14
M  V30 14 1 14 15
M  V30 15 2 15 16
M  V30 16 1 16 17
M  V30 17 2 17 18
M  V30 18 1 18 19
M  V30 19 1 19 20
M  V30 20 1 20 21
M  V30 21 2 21 22
M  V30 22 1 21 23
M  V30 23 1 18 24
M  V30 24 2 24 25
M  V30 25 2 12 26
M  V30 26 1 26 27
M  V30 27 2 27 28
M  V30 28 1 28 29
M  V30 29 1 9 30
M  V30 30 2 30 31
M  V30 31 1 31 32
M  V30 32 2 32 33
M  V30 33 1 33 34
M  V30 34 1 5 35
M  V30 35 1 35 36
M  V30 36 1 36 2
M  V30 37 1 34 6
M  V30 38 1 33 8
M  V30 39 1 28 10
M  V30 40 1 25 15
M  V30 41 1 1 37
M  V30 42 1 1 38
M  V30 43 1 1 39
M  V30 44 1 3 40
M  V30 45 1 3 41
M  V30 46 1 4 42
M  V30 47 1 4 43
M  V30 48 1 5 44
M  V30 49 1 7 45
M  V30 50 1 13 46
M  V30 51 1 14 47
M  V30 52 1 14 48
M  V30 53 1 16 49
M  V30 54 1 17 50
M  V30 55 1 20 51
M  V30 56 1 20 52
M  V30 57 1 23 53
M  V30 58 1 24 54
M  V30 59 1 25 55
M  V30 60 1 26 56
M  V30 61 1 27 57
M  V30 62 1 30 58
M  V30 63 1 31 59
M  V30 64 1 34 60
M  V30 65 1 35 61
M  V30 66 1 35 62
M  V30 67 1 36 63
M  V30 68 1 36 64
M  V30 END BOND
M  V30 END CTAB
M  END
>  <Dataset>  (294) 
ChEMBL_Kinases

>  <Ligand_Instance>  (294) 
nan

>  <PDB_ID>  (294) 
nan

>  <Standardized_SMILES>  (294) 
CN1CCC(c2cc3c(-c4nc(NCc5ccc(OCC(=O)O)cc5)ccc4Cl)ccnc3[nH]2)CC1

>  <Name>  (294) 
nan

>  <Pocket>  (294) 
nan

>  <ATP_Site>  (294) 
nan

>  <Peripheral>  (294) 
nan

>  <Num_H_Atoms_ProtBoundConf>  (294) 
nan

>  <Num_Resolved_Atoms>  (294) 
nan

>  <Num_Not_Resolved_Atoms>  (294) 
nan

$$$$
CHEMBL3668446
     RDKit          3D

  0  0  0  0  0  0  0  0  0  0999 V3000
M  V30 BEGIN CTAB
M  V30 COUNTS 64 68 0 0 0
M  V30 BEGIN ATOM
M  V30 1 C 4.442136 1.125463 4.181181 0
M  V30 2 N 4.757308 1.937406 3.043642 0
M  V30 3 C 4.652775 1.317771 1.771714 0
M  V30 4 C 4.195934 2.277215 0.681169 0
M  V30 5 C 2.839141 2.878250 1.147193 0
M  V30 6 C 1.996763 1.687601 1.487546 0
M  V30 7 C 1.559418 0.701672 0.631004 0
M  V30 8 C 0.840632 -0.145424 1.487301 0
M  V30 9 C 0.219052 -1.339339 1.098613 0
M  V30 10 C 0.065311 -1.880594 -0.243188 0
M  V30 11 N -0.755864 -1.308289 -1.128803 0
M  V30 12 C -0.950760 -1.657031 -2.389642 0
M  V30 13 N -1.934562 -1.098308 -3.278870 0
M  V30 14 C -3.023189 -0.243213 -2.778500 0
M  V30 15 C -3.636556 -0.930333 -1.596468 0
M  V30 16 C -3.292895 -0.479692 -0.316644 0
M  V30 17 C -3.767450 -1.119657 0.834148 0
M  V30 18 C -4.588230 -2.213749 0.690962 0
M  V30 19 C -4.943026 -2.680002 -0.556240 0
M  V30 20 O -5.755973 -3.772626 -0.555954 0
M  V30 21 C -6.218215 -4.394881 -1.726075 0
M  V30 22 C -5.101389 -4.899698 -2.566594 0
M  V30 23 O -5.397001 -5.456942 -3.664552 0
M  V30 24 O -3.702286 -4.895461 -2.396422 0
M  V30 25 C -4.460409 -2.024828 -1.670477 0
M  V30 26 C -0.210365 -2.733919 -2.823216 0
M  V30 27 C 0.683464 -3.415904 -1.995902 0
M  V30 28 C 0.804593 -2.968521 -0.698132 0
M  V30 29 Cl 1.897777 -3.749495 0.435806 0
M  V30 30 C -0.428388 -2.108141 2.091313 0
M  V30 31 C -0.393021 -1.598013 3.399775 0
M  V30 32 N 0.214233 -0.440100 3.732966 0
M  V30 33 C 0.830517 0.287549 2.784656 0
M  V30 34 N 1.562454 1.434536 2.742773 0
M  V30 35 C 3.168216 3.712496 2.323523 0
M  V30 36 C 4.380531 3.306047 3.109486 0
M  V30 37 H 3.893152 0.179046 3.915020 0
M  V30 38 H 3.753750 1.642410 4.909473 0
M  V30 39 H 5.336530 0.842275 4.787728 0
M  V30 40 H 5.619565 0.858267 1.436982 0
M  V30 41 H 3.927944 0.467848 1.862495 0
M  V30 42 H 4.941736 3.068402 0.527948 0
M  V30 43 H 3.983833 1.689163 -0.221608 0
M  V30 44 H 2.474283 3.405846 0.250767 0
M  V30 45 H 1.725604 0.612673 -0.434816 0
M  V30 46 H -1.859524 -1.307187 -4.296398 0
M  V30 47 H -3.788083 -0.228395 -3.580876 0
M  V30 48 H -2.714320 0.785945 -2.581367 0
M  V30 49 H -2.668280 0.374332 -0.120586 0
M  V30 50 H -3.504723 -0.771591 1.843040 0
M  V30 51 H -4.942724 -2.707148 1.615175 0
M  V30 52 H -6.846040 -5.286328 -1.411476 0
M  V30 53 H -6.818032 -3.667359 -2.316099 0
M  V30 54 H -3.193816 -5.747477 -2.351285 0
M  V30 55 H -4.751172 -2.391996 -2.665588 0
M  V30 56 H -0.278491 -3.115448 -3.838154 0
M  V30 57 H 1.279919 -4.272173 -2.331411 0
M  V30 58 H -0.935778 -3.044299 1.944061 0
M  V30 59 H -0.867026 -2.106773 4.256298 0
M  V30 60 H 1.690963 1.957493 3.655624 0
M  V30 61 H 2.325270 3.853977 3.027603 0
M  V30 62 H 3.404945 4.749181 1.917721 0
M  V30 63 H 5.294534 3.922109 2.839926 0
M  V30 64 H 4.175768 3.539982 4.204426 0
M  V30 END ATOM
M  V30 BEGIN BOND
M  V30 1 1 1 2
M  V30 2 1 2 3
M  V30 3 1 3 4
M  V30 4 1 4 5
M  V30 5 1 5 6
M  V30 6 2 6 7
M  V30 7 1 7 8
M  V30 8 2 8 9
M  V30 9 1 9 10
M  V30 10 2 10 11
M  V30 11 1 11 12
M  V30 12 1 12 13
M  V30 13 1 13 14
M  V30 14 1 14 15
M  V30 15 2 15 16
M  V30 16 1 16 17
M  V30 17 2 17 18
M  V30 18 1 18 19
M  V30 19 1 19 20
M  V30 20 1 20 21
M  V30 21 1 21 22
M  V30 22 2 22 23
M  V30 23 1 22 24
M  V30 24 2 19 25
M  V30 25 2 12 26
M  V30 26 1 26 27
M  V30 27 2 27 28
M  V30 28 1 28 29
M  V30 29 1 9 30
M  V30 30 2 30 31
M  V30 31 1 31 32
M  V30 32 2 32 33
M  V30 33 1 33 34
M  V30 34 1 5 35
M  V30 35 1 35 36
M  V30 36 1 36 2
M  V30 37 1 34 6
M  V30 38 1 33 8
M  V30 39 1 28 10
M  V30 40 1 25 15
M  V30 41 1 1 37
M  V30 42 1 1 38
M  V30 43 1 1 39
M  V30 44 1 3 40
M  V30 45 1 3 41
M  V30 46 1 4 42
M  V30 47 1 4 43
M  V30 48 1 5 44
M  V30 49 1 7 45
M  V30 50 1 13 46
M  V30 51 1 14 47
M  V30 52 1 14 48
M  V30 53 1 16 49
M  V30 54 1 17 50
M  V30 55 1 18 51
M  V30 56 1 21 52
M  V30 57 1 21 53
M  V30 58 1 24 54
M  V30 59 1 25 55
M  V30 60 1 26 56
M  V30 61 1 27 57
M  V30 62 1 30 58
M  V30 63 1 31 59
M  V30 64 1 34 60
M  V30 65 1 35 61
M  V30 66 1 35 62
M  V30 67 1 36 63
M  V30 68 1 36 64
M  V30 END BOND
M  V30 END CTAB
M  END
>  <Dataset>  (295) 
ChEMBL_Kinases

>  <Ligand_Instance>  (295) 
nan

>  <PDB_ID>  (295) 
nan

>  <Standardized_SMILES>  (295) 
CN1CCC(c2cc3c(-c4nc(NCc5cccc(OCC(=O)O)c5)ccc4Cl)ccnc3[nH]2)CC1

>  <Name>  (295) 
nan

>  <Pocket>  (295) 
nan

>  <ATP_Site>  (295) 
nan

>  <Peripheral>  (295) 
nan

>  <Num_H_Atoms_ProtBoundConf>  (295) 
nan

>  <Num_Resolved_Atoms>  (295) 
nan

>  <Num_Not_Resolved_Atoms>  (295) 
nan

$$$$
CHEMBL3668428
     RDKit          3D

  0  0  0  0  0  0  0  0  0  0999 V3000
M  V30 BEGIN CTAB
M  V30 COUNTS 63 68 0 0 0
M  V30 BEGIN ATOM
M  V30 1 C -1.020278 1.212151 3.815278 0
M  V30 2 N -0.905535 -0.143709 4.286859 0
M  V30 3 C 0.188481 -0.327685 5.187053 0
M  V30 4 C 1.490894 -0.403717 4.444937 0
M  V30 5 C 1.471309 -1.626728 3.548619 0
M  V30 6 C 2.260779 -1.392001 2.299533 0
M  V30 7 C 1.922169 -0.650731 1.176049 0
M  V30 8 C 2.931318 -0.681018 0.250814 0
M  V30 9 C 3.095509 -0.115488 -0.993883 0
M  V30 10 C 2.084692 0.719589 -1.618556 0
M  V30 11 C 2.457831 1.435888 -2.720171 0
M  V30 12 C 1.577306 2.278051 -3.365672 0
M  V30 13 C 0.292733 2.395430 -2.883819 0
M  V30 14 C -0.092815 1.662107 -1.755958 0
M  V30 15 N -1.422345 1.786648 -1.252502 0
M  V30 16 C -2.097580 1.037947 -0.246044 0
M  V30 17 C -2.352731 -0.369085 -0.638032 0
M  V30 18 C -1.626214 -1.521898 -0.468294 0
M  V30 19 C -2.078210 -2.734702 -0.934987 0
M  V30 20 C -3.265626 -2.869769 -1.590033 0
M  V30 21 C -4.039713 -1.743207 -1.790077 0
M  V30 22 C -3.572920 -0.528497 -1.315135 0
M  V30 23 C -5.239003 -2.198141 -2.514108 0
M  V30 24 N -5.234846 -3.640090 -2.395790 0
M  V30 25 C -3.900284 -4.086379 -2.157168 0
M  V30 26 N 0.818940 0.844188 -1.155328 0
M  V30 27 C 4.297483 -0.392342 -1.591979 0
M  V30 28 C 5.301860 -1.165157 -1.051576 0
M  V30 29 N 5.095725 -1.702162 0.174379 0
M  V30 30 C 3.923755 -1.457746 0.808759 0
M  V30 31 N 3.492864 -1.859677 2.016282 0
M  V30 32 C 0.110732 -2.169790 3.294580 0
M  V30 33 C -0.986002 -1.135727 3.263180 0
M  V30 34 H -0.030547 1.547699 3.416074 0
M  V30 35 H -1.272225 1.878183 4.675924 0
M  V30 36 H -1.807615 1.339575 3.062255 0
M  V30 37 H 0.192285 0.444821 5.953391 0
M  V30 38 H 0.045097 -1.336791 5.660367 0
M  V30 39 H 2.322141 -0.453811 5.209873 0
M  V30 40 H 1.672847 0.487937 3.811789 0
M  V30 41 H 2.047655 -2.404373 4.133809 0
M  V30 42 H 1.014032 -0.121947 1.045052 0
M  V30 43 H 3.420023 1.467396 -3.230913 0
M  V30 44 H 1.786911 2.891879 -4.255857 0
M  V30 45 H -0.435374 3.059962 -3.376151 0
M  V30 46 H -1.997485 2.564427 -1.705922 0
M  V30 47 H -3.024558 1.551056 0.048282 0
M  V30 48 H -1.445859 1.069667 0.668124 0
M  V30 49 H -0.707128 -1.359176 0.049119 0
M  V30 50 H -1.402489 -3.571938 -0.732708 0
M  V30 51 H -4.265765 0.301257 -1.526901 0
M  V30 52 H -6.183694 -1.855283 -2.026175 0
M  V30 53 H -5.278236 -1.857939 -3.564896 0
M  V30 54 H -5.844667 -3.966788 -1.614673 0
M  V30 55 H -3.352682 -4.289051 -3.121410 0
M  V30 56 H -3.846400 -4.951802 -1.464724 0
M  V30 57 H 4.562938 -0.017678 -2.568560 0
M  V30 58 H 6.239180 -1.372976 -1.533670 0
M  V30 59 H 4.059114 -2.475559 2.672686 0
M  V30 60 H 0.107848 -2.745670 2.362022 0
M  V30 61 H -0.151824 -2.879049 4.123536 0
M  V30 62 H -1.097879 -0.650120 2.294894 0
M  V30 63 H -1.961382 -1.683030 3.428448 0
M  V30 END ATOM
M  V30 BEGIN BOND
M  V30 1 1 1 2
M  V30 2 1 2 3
M  V30 3 1 3 4
M  V30 4 1 4 5
M  V30 5 1 5 6
M  V30 6 2 6 7
M  V30 7 1 7 8
M  V30 8 2 8 9
M  V30 9 1 9 10
M  V30 10 2 10 11
M  V30 11 1 11 12
M  V30 12 2 12 13
M  V30 13 1 13 14
M  V30 14 1 14 15
M  V30 15 1 15 16
M  V30 16 1 16 17
M  V30 17 2 17 18
M  V30 18 1 18 19
M  V30 19 2 19 20
M  V30 20 1 20 21
M  V30 21 2 21 22
M  V30 22 1 21 23
M  V30 23 1 23 24
M  V30 24 1 24 25
M  V30 25 2 14 26
M  V30 26 1 9 27
M  V30 27 2 27 28
M  V30 28 1 28 29
M  V30 29 2 29 30
M  V30 30 1 30 31
M  V30 31 1 5 32
M  V30 32 1 32 33
M  V30 33 1 33 2
M  V30 34 1 31 6
M  V30 35 1 30 8
M  V30 36 1 26 10
M  V30 37 1 22 17
M  V30 38 1 25 20
M  V30 39 1 1 34
M  V30 40 1 1 35
M  V30 41 1 1 36
M  V30 42 1 3 37
M  V30 43 1 3 38
M  V30 44 1 4 39
M  V30 45 1 4 40
M  V30 46 1 5 41
M  V30 47 1 7 42
M  V30 48 1 11 43
M  V30 49 1 12 44
M  V30 50 1 13 45
M  V30 51 1 15 46
M  V30 52 1 16 47
M  V30 53 1 16 48
M  V30 54 1 18 49
M  V30 55 1 19 50
M  V30 56 1 22 51
M  V30 57 1 23 52
M  V30 58 1 23 53
M  V30 59 1 24 54
M  V30 60 1 25 55
M  V30 61 1 25 56
M  V30 62 1 27 57
M  V30 63 1 28 58
M  V30 64 1 31 59
M  V30 65 1 32 60
M  V30 66 1 32 61
M  V30 67 1 33 62
M  V30 68 1 33 63
M  V30 END BOND
M  V30 END CTAB
M  END
>  <Dataset>  (296) 
ChEMBL_Kinases

>  <Ligand_Instance>  (296) 
nan

>  <PDB_ID>  (296) 
nan

>  <Standardized_SMILES>  (296) 
CN1CCC(c2cc3c(-c4cccc(NCc5ccc6c(c5)CNC6)n4)ccnc3[nH]2)CC1

>  <Name>  (296) 
nan

>  <Pocket>  (296) 
nan

>  <ATP_Site>  (296) 
nan

>  <Peripheral>  (296) 
nan

>  <Num_H_Atoms_ProtBoundConf>  (296) 
nan

>  <Num_Resolved_Atoms>  (296) 
nan

>  <Num_Not_Resolved_Atoms>  (296) 
nan

$$$$
CHEMBL3668429
     RDKit          3D

  0  0  0  0  0  0  0  0  0  0999 V3000
M  V30 BEGIN CTAB
M  V30 COUNTS 62 66 0 0 0
M  V30 BEGIN ATOM
M  V30 1 C -0.844303 0.711229 3.730482 0
M  V30 2 N 0.179524 -0.086069 4.428122 0
M  V30 3 C 1.440655 0.245229 3.892765 0
M  V30 4 C 2.542222 -0.730573 3.949408 0
M  V30 5 C 2.111823 -2.109787 3.693723 0
M  V30 6 C 2.000198 -2.506492 2.283972 0
M  V30 7 C 1.965192 -1.754145 1.142324 0
M  V30 8 C 1.803550 -2.508873 -0.008766 0
M  V30 9 C 1.678178 -2.262884 -1.387436 0
M  V30 10 C 1.727621 -0.804673 -1.593963 0
M  V30 11 C 2.856177 -0.023535 -1.472742 0
M  V30 12 C 2.637701 1.315696 -1.694725 0
M  V30 13 C 1.365580 1.821446 -2.017497 0
M  V30 14 C 0.246515 0.983162 -2.130599 0
M  V30 15 N -0.863069 1.815837 -2.419048 0
M  V30 16 C -1.911183 2.222543 -1.504430 0
M  V30 17 C -2.928306 1.184566 -1.183711 0
M  V30 18 C -2.457725 -0.075179 -0.551137 0
M  V30 19 C -2.680177 -1.157481 -1.580545 0
M  V30 20 N -3.895515 -0.659003 -2.221674 0
M  V30 21 C -4.994497 -1.019228 -1.378310 0
M  V30 22 C -3.695047 0.748716 -2.420590 0
M  V30 23 N 0.549093 -0.293144 -1.900556 0
M  V30 24 C 1.488194 -3.349763 -2.209441 0
M  V30 25 C 1.434695 -4.603378 -1.647140 0
M  V30 26 N 1.556712 -4.831043 -0.332197 0
M  V30 27 C 1.741276 -3.806663 0.517969 0
M  V30 28 N 1.861472 -3.764310 1.861392 0
M  V30 29 C 0.867317 -2.437878 4.487540 0
M  V30 30 C -0.227709 -1.437530 4.359290 0
M  V30 31 H -1.293590 0.057753 2.926053 0
M  V30 32 H -0.432946 1.655450 3.319141 0
M  V30 33 H -1.693784 0.923770 4.429376 0
M  V30 34 H 1.795261 1.150511 4.505581 0
M  V30 35 H 1.344954 0.689375 2.878138 0
M  V30 36 H 3.053157 -0.721626 4.955434 0
M  V30 37 H 3.298518 -0.450126 3.168234 0
M  V30 38 H 2.895330 -2.816285 4.133987 0
M  V30 39 H 2.054810 -0.683328 1.154855 0
M  V30 40 H 3.742603 -0.556150 -1.228916 0
M  V30 41 H 3.544325 1.919278 -1.596249 0
M  V30 42 H 1.449279 2.913270 -2.148079 0
M  V30 43 H -0.932686 2.183311 -3.417493 0
M  V30 44 H -2.395888 3.151750 -1.849836 0
M  V30 45 H -1.458835 2.518340 -0.501528 0
M  V30 46 H -3.688060 1.693401 -0.523271 0
M  V30 47 H -1.469319 -0.019040 -0.116398 0
M  V30 48 H -3.148933 -0.307199 0.332900 0
M  V30 49 H -2.838290 -2.137371 -1.106901 0
M  V30 50 H -1.921699 -1.172701 -2.346776 0
M  V30 51 H -4.780404 -2.029114 -0.922860 0
M  V30 52 H -5.146278 -0.315657 -0.533983 0
M  V30 53 H -5.959749 -1.090046 -1.922996 0
M  V30 54 H -3.101352 0.894317 -3.341011 0
M  V30 55 H -4.687069 1.239261 -2.508073 0
M  V30 56 H 1.409618 -3.002501 -3.224595 0
M  V30 57 H 1.290580 -5.384945 -2.384317 0
M  V30 58 H 1.844570 -4.655712 2.426107 0
M  V30 59 H 1.162157 -2.602169 5.549036 0
M  V30 60 H 0.478128 -3.423006 4.118674 0
M  V30 61 H -0.884498 -1.667634 3.495395 0
M  V30 62 H -0.887257 -1.604210 5.271597 0
M  V30 END ATOM
M  V30 BEGIN BOND
M  V30 1 1 1 2
M  V30 2 1 2 3
M  V30 3 1 3 4
M  V30 4 1 4 5
M  V30 5 1 5 6
M  V30 6 2 6 7
M  V30 7 1 7 8
M  V30 8 2 8 9
M  V30 9 1 9 10
M  V30 10 2 10 11
M  V30 11 1 11 12
M  V30 12 2 12 13
M  V30 13 1 13 14
M  V30 14 1 14 15
M  V30 15 1 15 16
M  V30 16 1 16 17
M  V30 17 1 17 18
M  V30 18 1 18 19
M  V30 19 1 19 20
M  V30 20 1 20 21
M  V30 21 1 20 22
M  V30 22 2 14 23
M  V30 23 1 9 24
M  V30 24 2 24 25
M  V30 25 1 25 26
M  V30 26 2 26 27
M  V30 27 1 27 28
M  V30 28 1 5 29
M  V30 29 1 29 30
M  V30 30 1 30 2
M  V30 31 1 28 6
M  V30 32 1 27 8
M  V30 33 1 23 10
M  V30 34 1 22 17
M  V30 35 1 1 31
M  V30 36 1 1 32
M  V30 37 1 1 33
M  V30 38 1 3 34
M  V30 39 1 3 35
M  V30 40 1 4 36
M  V30 41 1 4 37
M  V30 42 1 5 38
M  V30 43 1 7 39
M  V30 44 1 11 40
M  V30 45 1 12 41
M  V30 46 1 13 42
M  V30 47 1 15 43
M  V30 48 1 16 44
M  V30 49 1 16 45
M  V30 50 1 17 46
M  V30 51 1 18 47
M  V30 52 1 18 48
M  V30 53 1 19 49
M  V30 54 1 19 50
M  V30 55 1 21 51
M  V30 56 1 21 52
M  V30 57 1 21 53
M  V30 58 1 22 54
M  V30 59 1 22 55
M  V30 60 1 24 56
M  V30 61 1 25 57
M  V30 62 1 28 58
M  V30 63 1 29 59
M  V30 64 1 29 60
M  V30 65 1 30 61
M  V30 66 1 30 62
M  V30 END BOND
M  V30 END CTAB
M  END
>  <Dataset>  (297) 
ChEMBL_Kinases

>  <Ligand_Instance>  (297) 
nan

>  <PDB_ID>  (297) 
nan

>  <Standardized_SMILES>  (297) 
CN1CCC(c2cc3c(-c4cccc(NCC5CCN(C)C5)n4)ccnc3[nH]2)CC1

>  <Name>  (297) 
nan

>  <Pocket>  (297) 
nan

>  <ATP_Site>  (297) 
nan

>  <Peripheral>  (297) 
nan

>  <Num_H_Atoms_ProtBoundConf>  (297) 
nan

>  <Num_Resolved_Atoms>  (297) 
nan

>  <Num_Not_Resolved_Atoms>  (297) 
nan

$$$$
CHEMBL3668430
     RDKit          3D

  0  0  0  0  0  0  0  0  0  0999 V3000
M  V30 BEGIN CTAB
M  V30 COUNTS 61 66 0 0 0
M  V30 BEGIN ATOM
M  V30 1 C 0.836349 1.359869 4.455074 0
M  V30 2 N 2.123459 0.775102 4.379479 0
M  V30 3 C 2.211435 -0.613485 4.498759 0
M  V30 4 C 3.450564 -1.255911 4.005904 0
M  V30 5 C 4.145761 -0.520663 2.889705 0
M  V30 6 C 3.551210 -0.702103 1.565328 0
M  V30 7 C 2.396902 -0.171920 1.037031 0
M  V30 8 C 2.169871 -0.591571 -0.247330 0
M  V30 9 C 1.122418 -0.287684 -1.074020 0
M  V30 10 C -0.029179 0.545667 -0.855460 0
M  V30 11 C -0.247239 1.613891 -0.032311 0
M  V30 12 C -1.375242 2.385486 0.068097 0
M  V30 13 C -2.415341 2.050921 -0.754523 0
M  V30 14 C -2.253709 0.974765 -1.614008 0
M  V30 15 N -3.317446 0.581344 -2.510233 0
M  V30 16 C -3.376441 -0.560112 -3.400546 0
M  V30 17 C -3.345305 -1.859498 -2.637748 0
M  V30 18 C -2.272302 -2.649993 -2.306402 0
M  V30 19 C -2.498535 -3.801098 -1.581198 0
M  V30 20 C -3.751121 -4.196479 -1.172467 0
M  V30 21 C -4.204006 -5.289909 -0.452420 0
M  V30 22 C -5.573109 -5.164532 -0.341277 0
M  V30 23 N -5.936566 -4.017835 -0.983120 0
M  V30 24 C -4.844118 -3.423530 -1.490518 0
M  V30 25 C -4.618271 -2.262202 -2.221410 0
M  V30 26 N -1.113231 0.298277 -1.625531 0
M  V30 27 C 1.226242 -0.938273 -2.310345 0
M  V30 28 C 2.261656 -1.778701 -2.646477 0
M  V30 29 N 3.229435 -1.990059 -1.741884 0
M  V30 30 C 3.222180 -1.414773 -0.528243 0
M  V30 31 N 4.021073 -1.463822 0.551079 0
M  V30 32 C 4.357110 0.891163 3.278729 0
M  V30 33 C 3.151941 1.535122 3.817737 0
M  V30 34 H 0.705470 1.755305 5.501031 0
M  V30 35 H 0.747228 2.230317 3.772637 0
M  V30 36 H 0.045603 0.599227 4.253933 0
M  V30 37 H 1.351577 -1.074441 3.926525 0
M  V30 38 H 1.997822 -0.907738 5.559532 0
M  V30 39 H 3.347386 -2.312161 3.679072 0
M  V30 40 H 4.198136 -1.286637 4.858940 0
M  V30 41 H 5.181841 -0.998405 2.819812 0
M  V30 42 H 1.803241 0.472433 1.651139 0
M  V30 43 H 0.563849 1.914672 0.601388 0
M  V30 44 H -1.441623 3.200544 0.746407 0
M  V30 45 H -3.334195 2.605219 -0.737710 0
M  V30 46 H -4.141725 1.229516 -2.489639 0
M  V30 47 H -2.531697 -0.527144 -4.128950 0
M  V30 48 H -4.301601 -0.476005 -3.994319 0
M  V30 49 H -1.337340 -2.273849 -2.664108 0
M  V30 50 H -1.601819 -4.382149 -1.352257 0
M  V30 51 H -3.599134 -6.097062 -0.045983 0
M  V30 52 H -6.285748 -5.835007 0.159191 0
M  V30 53 H -6.928116 -3.667888 -1.058847 0
M  V30 54 H -5.521264 -1.708416 -2.433841 0
M  V30 55 H 0.461122 -0.782869 -3.068053 0
M  V30 56 H 2.277067 -2.247065 -3.620310 0
M  V30 57 H 4.894620 -2.049720 0.530181 0
M  V30 58 H 5.222349 0.971193 3.987403 0
M  V30 59 H 4.687052 1.438422 2.346038 0
M  V30 60 H 3.506586 2.290788 4.593991 0
M  V30 61 H 2.699056 2.200850 3.022778 0
M  V30 END ATOM
M  V30 BEGIN BOND
M  V30 1 1 1 2
M  V30 2 1 2 3
M  V30 3 1 3 4
M  V30 4 1 4 5
M  V30 5 1 5 6
M  V30 6 2 6 7
M  V30 7 1 7 8
M  V30 8 2 8 9
M  V30 9 1 9 10
M  V30 10 2 10 11
M  V30 11 1 11 12
M  V30 12 2 12 13
M  V30 13 1 13 14
M  V30 14 1 14 15
M  V30 15 1 15 16
M  V30 16 1 16 17
M  V30 17 2 17 18
M  V30 18 1 18 19
M  V30 19 2 19 20
M  V30 20 1 20 21
M  V30 21 2 21 22
M  V30 22 1 22 23
M  V30 23 1 23 24
M  V30 24 2 24 25
M  V30 25 2 14 26
M  V30 26 1 9 27
M  V30 27 2 27 28
M  V30 28 1 28 29
M  V30 29 2 29 30
M  V30 30 1 30 31
M  V30 31 1 5 32
M  V30 32 1 32 33
M  V30 33 1 33 2
M  V30 34 1 31 6
M  V30 35 1 30 8
M  V30 36 1 26 10
M  V30 37 1 25 17
M  V30 38 1 24 20
M  V30 39 1 1 34
M  V30 40 1 1 35
M  V30 41 1 1 36
M  V30 42 1 3 37
M  V30 43 1 3 38
M  V30 44 1 4 39
M  V30 45 1 4 40
M  V30 46 1 5 41
M  V30 47 1 7 42
M  V30 48 1 11 43
M  V30 49 1 12 44
M  V30 50 1 13 45
M  V30 51 1 15 46
M  V30 52 1 16 47
M  V30 53 1 16 48
M  V30 54 1 18 49
M  V30 55 1 19 50
M  V30 56 1 21 51
M  V30 57 1 22 52
M  V30 58 1 23 53
M  V30 59 1 25 54
M  V30 60 1 27 55
M  V30 61 1 28 56
M  V30 62 1 31 57
M  V30 63 1 32 58
M  V30 64 1 32 59
M  V30 65 1 33 60
M  V30 66 1 33 61
M  V30 END BOND
M  V30 END CTAB
M  END
>  <Dataset>  (298) 
ChEMBL_Kinases

>  <Ligand_Instance>  (298) 
nan

>  <PDB_ID>  (298) 
nan

>  <Standardized_SMILES>  (298) 
CN1CCC(c2cc3c(-c4cccc(NCc5ccc6cc[nH]c6c5)n4)ccnc3[nH]2)CC1

>  <Name>  (298) 
nan

>  <Pocket>  (298) 
nan

>  <ATP_Site>  (298) 
nan

>  <Peripheral>  (298) 
nan

>  <Num_H_Atoms_ProtBoundConf>  (298) 
nan

>  <Num_Resolved_Atoms>  (298) 
nan

>  <Num_Not_Resolved_Atoms>  (298) 
nan

$$$$
CHEMBL3668431
     RDKit          3D

  0  0  0  0  0  0  0  0  0  0999 V3000
M  V30 BEGIN CTAB
M  V30 COUNTS 63 67 0 0 0
M  V30 BEGIN ATOM
M  V30 1 C 1.443685 -0.512184 5.601928 0
M  V30 2 N 2.452617 -0.172663 4.629160 0
M  V30 3 C 2.505669 -1.210335 3.626115 0
M  V30 4 C 3.519405 -0.913445 2.564189 0
M  V30 5 C 3.562118 0.554320 2.185533 0
M  V30 6 C 3.780971 0.709830 0.709794 0
M  V30 7 C 2.682406 0.356897 -0.080241 0
M  V30 8 C 3.028070 0.547446 -1.399534 0
M  V30 9 C 2.438729 0.397552 -2.645741 0
M  V30 10 C 1.057884 -0.055388 -2.712170 0
M  V30 11 N 0.206571 0.389878 -1.752395 0
M  V30 12 C -1.107691 0.042498 -1.713558 0
M  V30 13 N -1.826718 0.612783 -0.631592 0
M  V30 14 C -2.250915 0.198443 0.690286 0
M  V30 15 C -3.216866 -0.934665 0.652273 0
M  V30 16 C -4.543062 -0.504664 0.592946 0
M  V30 17 C -5.573443 -1.416292 0.547968 0
M  V30 18 C -5.309315 -2.769067 0.559919 0
M  V30 19 S -6.654422 -3.885682 0.512192 0
M  V30 20 C -7.089810 -4.114740 -1.213336 0
M  V30 21 O -7.827550 -3.244823 1.183474 0
M  V30 22 O -6.274152 -5.199227 1.136264 0
M  V30 23 C -3.978749 -3.200870 0.619999 0
M  V30 24 C -2.947621 -2.284331 0.665359 0
M  V30 25 C -1.685089 -0.807531 -2.667535 0
M  V30 26 C -0.823653 -1.257911 -3.637313 0
M  V30 27 C 0.507882 -0.905034 -3.675980 0
M  V30 28 Cl 1.550907 -1.521480 -4.927966 0
M  V30 29 C 3.209227 0.726767 -3.738731 0
M  V30 30 C 4.512009 1.190197 -3.693988 0
M  V30 31 N 5.039098 1.317515 -2.447753 0
M  V30 32 C 4.323122 1.008293 -1.351485 0
M  V30 33 N 4.795382 1.113685 -0.096341 0
M  V30 34 C 2.275654 1.193574 2.612985 0
M  V30 35 C 2.160348 1.127951 4.112704 0
M  V30 36 H 1.846132 -0.523150 6.656356 0
M  V30 37 H 0.621368 0.245134 5.602077 0
M  V30 38 H 0.975723 -1.492243 5.385192 0
M  V30 39 H 2.850953 -2.142430 4.159772 0
M  V30 40 H 1.495308 -1.462183 3.217598 0
M  V30 41 H 3.315063 -1.562399 1.692878 0
M  V30 42 H 4.525783 -1.242181 2.965180 0
M  V30 43 H 4.388123 0.994018 2.765982 0
M  V30 44 H 1.678775 -0.015354 0.148015 0
M  V30 45 H -2.039541 1.569163 -1.027472 0
M  V30 46 H -1.390997 -0.128981 1.317811 0
M  V30 47 H -2.664215 1.089043 1.179013 0
M  V30 48 H -4.845894 0.537150 0.577374 0
M  V30 49 H -6.603515 -1.093290 0.501425 0
M  V30 50 H -6.220361 -3.938608 -1.879533 0
M  V30 51 H -7.855449 -3.351400 -1.529794 0
M  V30 52 H -7.426422 -5.136254 -1.404424 0
M  V30 53 H -3.755718 -4.252754 0.631715 0
M  V30 54 H -1.899676 -2.532759 0.713033 0
M  V30 55 H -2.723690 -1.035010 -2.565993 0
M  V30 56 H -1.219521 -1.913717 -4.389120 0
M  V30 57 H 2.802829 0.639837 -4.728867 0
M  V30 58 H 5.071294 1.435468 -4.591430 0
M  V30 59 H 5.677104 1.405308 0.374210 0
M  V30 60 H 2.324185 2.298932 2.374840 0
M  V30 61 H 1.392875 0.745810 2.099167 0
M  V30 62 H 1.165961 1.508515 4.446065 0
M  V30 63 H 2.915360 1.844472 4.511794 0
M  V30 END ATOM
M  V30 BEGIN BOND
M  V30 1 1 1 2
M  V30 2 1 2 3
M  V30 3 1 3 4
M  V30 4 1 4 5
M  V30 5 1 5 6
M  V30 6 2 6 7
M  V30 7 1 7 8
M  V30 8 2 8 9
M  V30 9 1 9 10
M  V30 10 2 10 11
M  V30 11 1 11 12
M  V30 12 1 12 13
M  V30 13 1 13 14
M  V30 14 1 14 15
M  V30 15 2 15 16
M  V30 16 1 16 17
M  V30 17 2 17 18
M  V30 18 1 18 19
M  V30 19 1 19 20
M  V30 20 2 19 21
M  V30 21 2 19 22
M  V30 22 1 18 23
M  V30 23 2 23 24
M  V30 24 2 12 25
M  V30 25 1 25 26
M  V30 26 2 26 27
M  V30 27 1 27 28
M  V30 28 1 9 29
M  V30 29 2 29 30
M  V30 30 1 30 31
M  V30 31 2 31 32
M  V30 32 1 32 33
M  V30 33 1 5 34
M  V30 34 1 34 35
M  V30 35 1 35 2
M  V30 36 1 33 6
M  V30 37 1 32 8
M  V30 38 1 27 10
M  V30 39 1 24 15
M  V30 40 1 1 36
M  V30 41 1 1 37
M  V30 42 1 1 38
M  V30 43 1 3 39
M  V30 44 1 3 40
M  V30 45 1 4 41
M  V30 46 1 4 42
M  V30 47 1 5 43
M  V30 48 1 7 44
M  V30 49 1 13 45
M  V30 50 1 14 46
M  V30 51 1 14 47
M  V30 52 1 16 48
M  V30 53 1 17 49
M  V30 54 1 20 50
M  V30 55 1 20 51
M  V30 56 1 20 52
M  V30 57 1 23 53
M  V30 58 1 24 54
M  V30 59 1 25 55
M  V30 60 1 26 56
M  V30 61 1 29 57
M  V30 62 1 30 58
M  V30 63 1 33 59
M  V30 64 1 34 60
M  V30 65 1 34 61
M  V30 66 1 35 62
M  V30 67 1 35 63
M  V30 END BOND
M  V30 END CTAB
M  END
>  <Dataset>  (299) 
ChEMBL_Kinases

>  <Ligand_Instance>  (299) 
nan

>  <PDB_ID>  (299) 
nan

>  <Standardized_SMILES>  (299) 
CN1CCC(c2cc3c(-c4nc(NCc5ccc(S(C)(=O)=O)cc5)ccc4Cl)ccnc3[nH]2)CC1

>  <Name>  (299) 
nan

>  <Pocket>  (299) 
nan

>  <ATP_Site>  (299) 
nan

>  <Peripheral>  (299) 
nan

>  <Num_H_Atoms_ProtBoundConf>  (299) 
nan

>  <Num_Resolved_Atoms>  (299) 
nan

>  <Num_Not_Resolved_Atoms>  (299) 
nan

$$$$
CHEMBL3668432
     RDKit          3D

  0  0  0  0  0  0  0  0  0  0999 V3000
M  V30 BEGIN CTAB
M  V30 COUNTS 62 66 0 0 0
M  V30 BEGIN ATOM
M  V30 1 C 3.030829 -2.042830 5.680575 0
M  V30 2 N 2.871740 -0.817596 4.956688 0
M  V30 3 C 3.789228 -0.616113 3.879162 0
M  V30 4 C 3.250441 0.349496 2.844391 0
M  V30 5 C 1.940526 -0.108640 2.263812 0
M  V30 6 C 2.070862 -0.643247 0.879918 0
M  V30 7 C 1.389186 -0.260549 -0.252561 0
M  V30 8 C 1.774871 -0.973125 -1.362859 0
M  V30 9 C 1.461825 -1.013101 -2.704688 0
M  V30 10 C 0.416525 -0.137432 -3.171123 0
M  V30 11 N -0.342387 0.546086 -2.308291 0
M  V30 12 C -1.301864 1.407286 -2.562611 0
M  V30 13 N -2.087186 2.069208 -1.572633 0
M  V30 14 C -2.200012 1.872951 -0.166772 0
M  V30 15 C -2.880632 0.611621 0.211027 0
M  V30 16 C -2.385039 -0.636782 0.464754 0
M  V30 17 C -3.165087 -1.715806 0.803272 0
M  V30 18 C -4.552980 -1.580574 0.907784 0
M  V30 19 S -5.388181 -3.054007 1.344612 0
M  V30 20 N -5.826219 -3.926931 -0.096464 0
M  V30 21 O -6.666322 -2.753269 2.077976 0
M  V30 22 O -4.529217 -3.919467 2.223357 0
M  V30 23 C -5.105343 -0.345751 0.663417 0
M  V30 24 C -4.278549 0.702283 0.327620 0
M  V30 25 C -1.610516 1.682961 -3.899741 0
M  V30 26 C -0.892317 1.036095 -4.881895 0
M  V30 27 C 0.080850 0.162490 -4.465555 0
M  V30 28 Cl 0.950400 -0.571019 -5.790475 0
M  V30 29 C 2.185833 -1.933873 -3.376461 0
M  V30 30 C 3.149791 -2.790559 -2.899087 0
M  V30 31 N 3.419652 -2.709667 -1.566673 0
M  V30 32 C 2.745911 -1.819783 -0.819066 0
M  V30 33 N 2.902024 -1.610145 0.492930 0
M  V30 34 C 1.273421 -1.132161 3.195892 0
M  V30 35 C 1.491262 -0.597233 4.595588 0
M  V30 36 H 4.015605 -2.516191 5.500930 0
M  V30 37 H 2.191287 -2.751121 5.465272 0
M  V30 38 H 2.955695 -1.774057 6.769426 0
M  V30 39 H 4.141885 -1.552417 3.411831 0
M  V30 40 H 4.706053 -0.134187 4.304743 0
M  V30 41 H 3.992345 0.401999 2.013303 0
M  V30 42 H 3.206913 1.344957 3.331936 0
M  V30 43 H 1.243026 0.758845 2.286489 0
M  V30 44 H 0.653037 0.511516 -0.213600 0
M  V30 45 H -2.716060 2.864175 -1.922052 0
M  V30 46 H -2.758538 2.703183 0.293978 0
M  V30 47 H -1.183190 1.937595 0.332250 0
M  V30 48 H -1.338053 -0.713561 0.381085 0
M  V30 49 H -2.631289 -2.658727 0.978033 0
M  V30 50 H -5.170230 -3.638191 -0.857383 0
M  V30 51 H -6.799486 -3.708664 -0.361012 0
M  V30 52 H -6.161356 -0.300664 0.756099 0
M  V30 53 H -4.826540 1.642890 0.153180 0
M  V30 54 H -2.397438 2.391159 -4.187172 0
M  V30 55 H -1.135758 1.252628 -5.910021 0
M  V30 56 H 2.013894 -2.063957 -4.423186 0
M  V30 57 H 3.681342 -3.492980 -3.493217 0
M  V30 58 H 3.553369 -2.095680 1.153286 0
M  V30 59 H 0.173681 -1.171069 3.009963 0
M  V30 60 H 1.712854 -2.122343 3.071054 0
M  V30 61 H 1.253085 0.485965 4.637895 0
M  V30 62 H 0.839357 -1.154162 5.284781 0
M  V30 END ATOM
M  V30 BEGIN BOND
M  V30 1 1 1 2
M  V30 2 1 2 3
M  V30 3 1 3 4
M  V30 4 1 4 5
M  V30 5 1 5 6
M  V30 6 2 6 7
M  V30 7 1 7 8
M  V30 8 2 8 9
M  V30 9 1 9 10
M  V30 10 2 10 11
M  V30 11 1 11 12
M  V30 12 1 12 13
M  V30 13 1 13 14
M  V30 14 1 14 15
M  V30 15 2 15 16
M  V30 16 1 16 17
M  V30 17 2 17 18
M  V30 18 1 18 19
M  V30 19 1 19 20
M  V30 20 2 19 21
M  V30 21 2 19 22
M  V30 22 1 18 23
M  V30 23 2 23 24
M  V30 24 2 12 25
M  V30 25 1 25 26
M  V30 26 2 26 27
M  V30 27 1 27 28
M  V30 28 1 9 29
M  V30 29 2 29 30
M  V30 30 1 30 31
M  V30 31 2 31 32
M  V30 32 1 32 33
M  V30 33 1 5 34
M  V30 34 1 34 35
M  V30 35 1 35 2
M  V30 36 1 33 6
M  V30 37 1 32 8
M  V30 38 1 27 10
M  V30 39 1 24 15
M  V30 40 1 1 36
M  V30 41 1 1 37
M  V30 42 1 1 38
M  V30 43 1 3 39
M  V30 44 1 3 40
M  V30 45 1 4 41
M  V30 46 1 4 42
M  V30 47 1 5 43
M  V30 48 1 7 44
M  V30 49 1 13 45
M  V30 50 1 14 46
M  V30 51 1 14 47
M  V30 52 1 16 48
M  V30 53 1 17 49
M  V30 54 1 20 50
M  V30 55 1 20 51
M  V30 56 1 23 52
M  V30 57 1 24 53
M  V30 58 1 25 54
M  V30 59 1 26 55
M  V30 60 1 29 56
M  V30 61 1 30 57
M  V30 62 1 33 58
M  V30 63 1 34 59
M  V30 64 1 34 60
M  V30 65 1 35 61
M  V30 66 1 35 62
M  V30 END BOND
M  V30 END CTAB
M  END
>  <Dataset>  (300) 
ChEMBL_Kinases

>  <Ligand_Instance>  (300) 
nan

>  <PDB_ID>  (300) 
nan

>  <Standardized_SMILES>  (300) 
CN1CCC(c2cc3c(-c4nc(NCc5ccc(S(N)(=O)=O)cc5)ccc4Cl)ccnc3[nH]2)CC1

>  <Name>  (300) 
nan

>  <Pocket>  (300) 
nan

>  <ATP_Site>  (300) 
nan

>  <Peripheral>  (300) 
nan

>  <Num_H_Atoms_ProtBoundConf>  (300) 
nan

>  <Num_Resolved_Atoms>  (300) 
nan

>  <Num_Not_Resolved_Atoms>  (300) 
nan

$$$$
CHEMBL3668433
     RDKit          3D

  0  0  0  0  0  0  0  0  0  0999 V3000
M  V30 BEGIN CTAB
M  V30 COUNTS 61 65 0 0 0
M  V30 BEGIN ATOM
M  V30 1 C 3.192198 -2.943564 5.223593 0
M  V30 2 N 2.723704 -1.592839 5.110749 0
M  V30 3 C 3.486617 -0.747013 4.247465 0
M  V30 4 C 3.296933 -1.046268 2.787812 0
M  V30 5 C 1.828160 -0.894864 2.463705 0
M  V30 6 C 1.568061 -1.319580 1.062427 0
M  V30 7 C 0.997830 -0.650369 0.001477 0
M  V30 8 C 0.962585 -1.434241 -1.130992 0
M  V30 9 C 0.520175 -1.253237 -2.421724 0
M  V30 10 C -0.085835 0.004453 -2.768274 0
M  V30 11 N -0.273847 0.910661 -1.802896 0
M  V30 12 C -0.802330 2.128062 -1.960486 0
M  V30 13 N -0.920927 2.923899 -0.765732 0
M  V30 14 C -2.288872 2.754059 -0.290174 0
M  V30 15 C -2.647902 1.341419 -0.043239 0
M  V30 16 C -3.227830 0.642084 -1.103122 0
M  V30 17 C -3.627439 -0.676142 -1.068519 0
M  V30 18 C -3.440543 -1.381668 0.125604 0
M  V30 19 C -3.826928 -2.777881 0.264150 0
M  V30 20 N -4.407794 -3.484916 -0.849204 0
M  V30 21 O -3.682591 -3.419225 1.315462 0
M  V30 22 C -2.870123 -0.710661 1.183337 0
M  V30 23 C -2.478505 0.625671 1.108184 0
M  V30 24 C -1.220357 2.582026 -3.186810 0
M  V30 25 C -1.060894 1.706324 -4.236847 0
M  V30 26 C -0.506187 0.479875 -3.960134 0
M  V30 27 Cl -0.339742 -0.530040 -5.370905 0
M  V30 28 C 0.724073 -2.362050 -3.195785 0
M  V30 29 C 1.289153 -3.557835 -2.835662 0
M  V30 30 N 1.699711 -3.649068 -1.534367 0
M  V30 31 C 1.540915 -2.608328 -0.695158 0
M  V30 32 N 1.895188 -2.536199 0.595227 0
M  V30 33 C 0.965082 -1.707053 3.404517 0
M  V30 34 C 1.326693 -1.480136 4.847971 0
M  V30 35 H 4.127958 -3.167895 4.706352 0
M  V30 36 H 2.411587 -3.621815 4.846979 0
M  V30 37 H 3.344440 -3.206798 6.303448 0
M  V30 38 H 3.110824 0.304961 4.408698 0
M  V30 39 H 4.570937 -0.698263 4.523054 0
M  V30 40 H 3.866072 -0.302044 2.196531 0
M  V30 41 H 3.614192 -2.071653 2.518633 0
M  V30 42 H 1.484748 0.153639 2.558295 0
M  V30 43 H 0.668554 0.349393 0.180080 0
M  V30 44 H -0.187789 3.530771 -0.288214 0
M  V30 45 H -3.029820 3.172070 -0.999527 0
M  V30 46 H -2.395609 3.331925 0.658743 0
M  V30 47 H -3.421141 1.089668 -2.070620 0
M  V30 48 H -4.071999 -1.204743 -1.886359 0
M  V30 49 H -4.292745 -3.572943 -1.868824 0
M  V30 50 H -4.300460 -3.581895 -1.881435 0
M  V30 51 H -2.713287 -1.246778 2.133749 0
M  V30 52 H -2.025331 1.168121 1.938794 0
M  V30 53 H -1.632052 3.561785 -3.244555 0
M  V30 54 H -1.377337 2.034549 -5.198023 0
M  V30 55 H 0.421838 -2.353729 -4.206513 0
M  V30 56 H 1.414799 -4.389661 -3.510140 0
M  V30 57 H 2.358876 -3.307057 1.164380 0
M  V30 58 H 1.082186 -2.781922 3.099473 0
M  V30 59 H -0.089749 -1.446558 3.242029 0
M  V30 60 H 0.937001 -0.487524 5.148345 0
M  V30 61 H 0.787057 -2.251577 5.440407 0
M  V30 END ATOM
M  V30 BEGIN BOND
M  V30 1 1 1 2
M  V30 2 1 2 3
M  V30 3 1 3 4
M  V30 4 1 4 5
M  V30 5 1 5 6
M  V30 6 2 6 7
M  V30 7 1 7 8
M  V30 8 2 8 9
M  V30 9 1 9 10
M  V30 10 2 10 11
M  V30 11 1 11 12
M  V30 12 1 12 13
M  V30 13 1 13 14
M  V30 14 1 14 15
M  V30 15 2 15 16
M  V30 16 1 16 17
M  V30 17 2 17 18
M  V30 18 1 18 19
M  V30 19 1 19 20
M  V30 20 2 19 21
M  V30 21 1 18 22
M  V30 22 2 22 23
M  V30 23 2 12 24
M  V30 24 1 24 25
M  V30 25 2 25 26
M  V30 26 1 26 27
M  V30 27 1 9 28
M  V30 28 2 28 29
M  V30 29 1 29 30
M  V30 30 2 30 31
M  V30 31 1 31 32
M  V30 32 1 5 33
M  V30 33 1 33 34
M  V30 34 1 34 2
M  V30 35 1 32 6
M  V30 36 1 31 8
M  V30 37 1 26 10
M  V30 38 1 23 15
M  V30 39 1 1 35
M  V30 40 1 1 36
M  V30 41 1 1 37
M  V30 42 1 3 38
M  V30 43 1 3 39
M  V30 44 1 4 40
M  V30 45 1 4 41
M  V30 46 1 5 42
M  V30 47 1 7 43
M  V30 48 1 13 44
M  V30 49 1 14 45
M  V30 50 1 14 46
M  V30 51 1 16 47
M  V30 52 1 17 48
M  V30 53 1 20 49
M  V30 54 1 20 50
M  V30 55 1 22 51
M  V30 56 1 23 52
M  V30 57 1 24 53
M  V30 58 1 25 54
M  V30 59 1 28 55
M  V30 60 1 29 56
M  V30 61 1 32 57
M  V30 62 1 33 58
M  V30 63 1 33 59
M  V30 64 1 34 60
M  V30 65 1 34 61
M  V30 END BOND
M  V30 END CTAB
M  END
>  <Dataset>  (301) 
ChEMBL_Kinases

>  <Ligand_Instance>  (301) 
nan

>  <PDB_ID>  (301) 
nan

>  <Standardized_SMILES>  (301) 
CN1CCC(c2cc3c(-c4nc(NCc5ccc(C(N)=O)cc5)ccc4Cl)ccnc3[nH]2)CC1

>  <Name>  (301) 
nan

>  <Pocket>  (301) 
nan

>  <ATP_Site>  (301) 
nan

>  <Peripheral>  (301) 
nan

>  <Num_H_Atoms_ProtBoundConf>  (301) 
nan

>  <Num_Resolved_Atoms>  (301) 
nan

>  <Num_Not_Resolved_Atoms>  (301) 
nan

$$$$
CHEMBL3668434
     RDKit          3D

  0  0  0  0  0  0  0  0  0  0999 V3000
M  V30 BEGIN CTAB
M  V30 COUNTS 63 67 0 0 0
M  V30 BEGIN ATOM
M  V30 1 C -3.741065 -0.566522 4.563380 0
M  V30 2 N -2.490340 -0.949801 3.986744 0
M  V30 3 C -1.486266 -1.010230 5.026924 0
M  V30 4 C -0.084122 -1.197302 4.437683 0
M  V30 5 C -0.293562 -1.739265 3.056893 0
M  V30 6 C 0.968685 -2.197778 2.434075 0
M  V30 7 C 1.531953 -1.796984 1.232942 0
M  V30 8 C 2.725478 -2.447148 0.977531 0
M  V30 9 C 3.632769 -2.388318 -0.060756 0
M  V30 10 C 3.401562 -1.493649 -1.189822 0
M  V30 11 C 4.296619 -1.426006 -2.233712 0
M  V30 12 C 4.146116 -0.597552 -3.350046 0
M  V30 13 C 3.030837 0.208757 -3.419363 0
M  V30 14 C 2.145845 0.127420 -2.364847 0
M  V30 15 N 0.946954 0.929734 -2.346156 0
M  V30 16 C -0.068413 0.948888 -1.295322 0
M  V30 17 C -1.197419 1.893580 -1.609135 0
M  V30 18 N -1.882578 1.540261 -2.837006 0
M  V30 19 C -2.611530 0.296461 -2.703575 0
M  V30 20 C -3.792280 0.425316 -1.776457 0
M  V30 21 O -4.658299 1.445916 -2.158065 0
M  V30 22 C -3.983176 2.641861 -2.151508 0
M  V30 23 C -2.829635 2.586620 -3.135506 0
M  V30 24 N 2.333444 -0.685246 -1.311586 0
M  V30 25 C 4.716762 -3.225369 0.084524 0
M  V30 26 C 4.884890 -4.053665 1.173674 0
M  V30 27 N 3.964064 -4.066052 2.154935 0
M  V30 28 C 2.865060 -3.262262 2.076142 0
M  V30 29 N 1.835565 -3.114820 2.927744 0
M  V30 30 C -1.305231 -2.882382 3.217565 0
M  V30 31 C -2.663745 -2.175859 3.260356 0
M  V30 32 H -4.588543 -0.699521 3.832254 0
M  V30 33 H -4.023744 -1.182347 5.450330 0
M  V30 34 H -3.748034 0.522905 4.804280 0
M  V30 35 H -1.739351 -1.808792 5.754850 0
M  V30 36 H -1.515606 -0.044534 5.557192 0
M  V30 37 H 0.490674 -1.899552 5.073156 0
M  V30 38 H 0.390073 -0.198010 4.348762 0
M  V30 39 H -0.734516 -0.975240 2.399954 0
M  V30 40 H 1.031491 -1.056924 0.626535 0
M  V30 41 H 5.200959 -2.013138 -2.279915 0
M  V30 42 H 4.862524 -0.561182 -4.158365 0
M  V30 43 H 2.799547 0.890149 -4.223792 0
M  V30 44 H 0.772916 1.570254 -3.165552 0
M  V30 45 H 0.447734 1.348585 -0.397749 0
M  V30 46 H -0.424899 -0.070419 -1.048888 0
M  V30 47 H -1.924308 1.787720 -0.779810 0
M  V30 48 H -0.849023 2.924891 -1.610902 0
M  V30 49 H -3.028405 0.047175 -3.703692 0
M  V30 50 H -2.004012 -0.542017 -2.329722 0
M  V30 51 H -3.486372 0.476074 -0.721136 0
M  V30 52 H -4.377784 -0.528291 -1.864649 0
M  V30 53 H -3.580975 2.913225 -1.169139 0
M  V30 54 H -4.659417 3.444249 -2.529806 0
M  V30 55 H -2.295924 3.562445 -3.039105 0
M  V30 56 H -3.224617 2.530242 -4.168221 0
M  V30 57 H 5.468096 -3.231573 -0.691007 0
M  V30 58 H 5.775097 -4.680901 1.200373 0
M  V30 59 H 1.674522 -3.605497 3.845530 0
M  V30 60 H -1.210302 -3.551067 2.349250 0
M  V30 61 H -1.186505 -3.382616 4.188268 0
M  V30 62 H -3.471836 -2.825137 3.613751 0
M  V30 63 H -2.833868 -1.862324 2.189005 0
M  V30 END ATOM
M  V30 BEGIN BOND
M  V30 1 1 1 2
M  V30 2 1 2 3
M  V30 3 1 3 4
M  V30 4 1 4 5
M  V30 5 1 5 6
M  V30 6 2 6 7
M  V30 7 1 7 8
M  V30 8 2 8 9
M  V30 9 1 9 10
M  V30 10 2 10 11
M  V30 11 1 11 12
M  V30 12 2 12 13
M  V30 13 1 13 14
M  V30 14 1 14 15
M  V30 15 1 15 16
M  V30 16 1 16 17
M  V30 17 1 17 18
M  V30 18 1 18 19
M  V30 19 1 19 20
M  V30 20 1 20 21
M  V30 21 1 21 22
M  V30 22 1 22 23
M  V30 23 2 14 24
M  V30 24 1 9 25
M  V30 25 2 25 26
M  V30 26 1 26 27
M  V30 27 2 27 28
M  V30 28 1 28 29
M  V30 29 1 5 30
M  V30 30 1 30 31
M  V30 31 1 31 2
M  V30 32 1 29 6
M  V30 33 1 28 8
M  V30 34 1 24 10
M  V30 35 1 23 18
M  V30 36 1 1 32
M  V30 37 1 1 33
M  V30 38 1 1 34
M  V30 39 1 3 35
M  V30 40 1 3 36
M  V30 41 1 4 37
M  V30 42 1 4 38
M  V30 43 1 5 39
M  V30 44 1 7 40
M  V30 45 1 11 41
M  V30 46 1 12 42
M  V30 47 1 13 43
M  V30 48 1 15 44
M  V30 49 1 16 45
M  V30 50 1 16 46
M  V30 51 1 17 47
M  V30 52 1 17 48
M  V30 53 1 19 49
M  V30 54 1 19 50
M  V30 55 1 20 51
M  V30 56 1 20 52
M  V30 57 1 22 53
M  V30 58 1 22 54
M  V30 59 1 23 55
M  V30 60 1 23 56
M  V30 61 1 25 57
M  V30 62 1 26 58
M  V30 63 1 29 59
M  V30 64 1 30 60
M  V30 65 1 30 61
M  V30 66 1 31 62
M  V30 67 1 31 63
M  V30 END BOND
M  V30 END CTAB
M  END
>  <Dataset>  (302) 
ChEMBL_Kinases

>  <Ligand_Instance>  (302) 
nan

>  <PDB_ID>  (302) 
nan

>  <Standardized_SMILES>  (302) 
CN1CCC(c2cc3c(-c4cccc(NCCN5CCOCC5)n4)ccnc3[nH]2)CC1

>  <Name>  (302) 
nan

>  <Pocket>  (302) 
nan

>  <ATP_Site>  (302) 
nan

>  <Peripheral>  (302) 
nan

>  <Num_H_Atoms_ProtBoundConf>  (302) 
nan

>  <Num_Resolved_Atoms>  (302) 
nan

>  <Num_Not_Resolved_Atoms>  (302) 
nan

$$$$
CHEMBL3668435
     RDKit          3D

  0  0  0  0  0  0  0  0  0  0999 V3000
M  V30 BEGIN CTAB
M  V30 COUNTS 51 54 0 0 0
M  V30 BEGIN ATOM
M  V30 1 C -1.776464 -5.956350 2.599058 0
M  V30 2 N -0.794845 -5.637259 1.555806 0
M  V30 3 C -1.524503 -5.116352 0.427920 0
M  V30 4 C -0.786854 -4.021501 -0.315612 0
M  V30 5 C -0.373625 -2.894139 0.560878 0
M  V30 6 C -1.110566 -1.632747 0.356945 0
M  V30 7 C -0.546673 -0.374073 0.449911 0
M  V30 8 C -1.491897 0.614656 0.194486 0
M  V30 9 C -1.462893 2.007910 0.154444 0
M  V30 10 C -0.199782 2.715937 0.428030 0
M  V30 11 C -0.150477 4.081029 0.350177 0
M  V30 12 C 0.999250 4.815941 0.580659 0
M  V30 13 C 2.156333 4.113587 0.907933 0
M  V30 14 C 2.079538 2.746683 0.979811 0
M  V30 15 N 3.113480 1.829280 1.277971 0
M  V30 16 C 3.909723 0.834726 0.633914 0
M  V30 17 C 4.690759 1.303065 -0.554738 0
M  V30 18 O 3.820498 1.796732 -1.532726 0
M  V30 19 N 0.939349 2.094875 0.745875 0
M  V30 20 C -2.662507 2.619032 -0.152895 0
M  V30 21 C -3.805618 1.893696 -0.400827 0
M  V30 22 N -3.816099 0.561201 -0.357686 0
M  V30 23 C -2.670961 -0.093755 -0.062219 0
M  V30 24 N -2.394920 -1.410377 0.045879 0
M  V30 25 C -0.571345 -3.310692 2.015072 0
M  V30 26 C 0.118547 -4.660430 2.130856 0
M  V30 27 H -2.180516 -6.975657 2.460568 0
M  V30 28 H -1.335304 -5.907157 3.612435 0
M  V30 29 H -2.659237 -5.283001 2.568970 0
M  V30 30 H -2.535034 -4.745484 0.661831 0
M  V30 31 H -1.639846 -5.939442 -0.308729 0
M  V30 32 H -1.506894 -3.603584 -1.061777 0
M  V30 33 H 0.025284 -4.481252 -0.911338 0
M  V30 34 H 0.731530 -2.676736 0.459136 0
M  V30 35 H 0.499233 -0.204529 0.690415 0
M  V30 36 H -0.992644 4.712982 0.102552 0
M  V30 37 H 1.083000 5.879289 0.533969 0
M  V30 38 H 3.111847 4.533385 1.112801 0
M  V30 39 H 3.218597 2.059652 2.307690 0
M  V30 40 H 4.639647 0.427970 1.383054 0
M  V30 41 H 3.268622 -0.049795 0.364029 0
M  V30 42 H 5.258619 0.438397 -0.998590 0
M  V30 43 H 5.403103 2.087923 -0.254364 0
M  V30 44 H 3.065019 1.204739 -1.698414 0
M  V30 45 H -2.692113 3.677679 -0.194559 0
M  V30 46 H -4.690862 2.442284 -0.632747 0
M  V30 47 H -3.106464 -2.163286 -0.097995 0
M  V30 48 H -1.663016 -3.379236 2.179682 0
M  V30 49 H -0.135246 -2.578724 2.726624 0
M  V30 50 H 0.338654 -4.895663 3.182531 0
M  V30 51 H 1.054277 -4.628137 1.517967 0
M  V30 END ATOM
M  V30 BEGIN BOND
M  V30 1 1 1 2
M  V30 2 1 2 3
M  V30 3 1 3 4
M  V30 4 1 4 5
M  V30 5 1 5 6
M  V30 6 2 6 7
M  V30 7 1 7 8
M  V30 8 2 8 9
M  V30 9 1 9 10
M  V30 10 2 10 11
M  V30 11 1 11 12
M  V30 12 2 12 13
M  V30 13 1 13 14
M  V30 14 1 14 15
M  V30 15 1 15 16
M  V30 16 1 16 17
M  V30 17 1 17 18
M  V30 18 2 14 19
M  V30 19 1 9 20
M  V30 20 2 20 21
M  V30 21 1 21 22
M  V30 22 2 22 23
M  V30 23 1 23 24
M  V30 24 1 5 25
M  V30 25 1 25 26
M  V30 26 1 26 2
M  V30 27 1 24 6
M  V30 28 1 23 8
M  V30 29 1 19 10
M  V30 30 1 1 27
M  V30 31 1 1 28
M  V30 32 1 1 29
M  V30 33 1 3 30
M  V30 34 1 3 31
M  V30 35 1 4 32
M  V30 36 1 4 33
M  V30 37 1 5 34
M  V30 38 1 7 35
M  V30 39 1 11 36
M  V30 40 1 12 37
M  V30 41 1 13 38
M  V30 42 1 15 39
M  V30 43 1 16 40
M  V30 44 1 16 41
M  V30 45 1 17 42
M  V30 46 1 17 43
M  V30 47 1 18 44
M  V30 48 1 20 45
M  V30 49 1 21 46
M  V30 50 1 24 47
M  V30 51 1 25 48
M  V30 52 1 25 49
M  V30 53 1 26 50
M  V30 54 1 26 51
M  V30 END BOND
M  V30 END CTAB
M  END
>  <Dataset>  (303) 
ChEMBL_Kinases

>  <Ligand_Instance>  (303) 
nan

>  <PDB_ID>  (303) 
nan

>  <Standardized_SMILES>  (303) 
CN1CCC(c2cc3c(-c4cccc(NCCO)n4)ccnc3[nH]2)CC1

>  <Name>  (303) 
nan

>  <Pocket>  (303) 
nan

>  <ATP_Site>  (303) 
nan

>  <Peripheral>  (303) 
nan

>  <Num_H_Atoms_ProtBoundConf>  (303) 
nan

>  <Num_Resolved_Atoms>  (303) 
nan

>  <Num_Not_Resolved_Atoms>  (303) 
nan

$$$$
CHEMBL3668445
     RDKit          3D

  0  0  0  0  0  0  0  0  0  0999 V3000
M  V30 BEGIN CTAB
M  V30 COUNTS 63 67 0 0 0
M  V30 BEGIN ATOM
M  V30 1 C 0.294698 2.673845 2.743713 0
M  V30 2 N 0.016727 1.596093 3.674264 0
M  V30 3 C 1.173443 1.284806 4.490904 0
M  V30 4 C 2.092304 0.472621 3.602273 0
M  V30 5 C 1.480164 -0.904909 3.450102 0
M  V30 6 C 2.053783 -1.587045 2.262176 0
M  V30 7 C 1.809119 -1.356099 0.927432 0
M  V30 8 C 2.552441 -2.196940 0.112481 0
M  V30 9 C 2.707974 -2.393940 -1.241283 0
M  V30 10 C 1.910676 -1.583911 -2.124051 0
M  V30 11 N 1.001921 -0.752821 -1.609651 0
M  V30 12 C 0.197989 0.069989 -2.285515 0
M  V30 13 N -0.758293 0.903237 -1.652788 0
M  V30 14 C -2.129012 1.061105 -1.322537 0
M  V30 15 C -2.755264 -0.056011 -0.525068 0
M  V30 16 C -2.669443 -1.316813 -1.304699 0
M  V30 17 C -3.361229 -2.506947 -0.707789 0
M  V30 18 S -5.048084 -2.067172 -0.367046 0
M  V30 19 O -5.749112 -3.154803 0.389482 0
M  V30 20 O -5.711117 -1.816904 -1.707002 0
M  V30 21 C -4.957229 -0.554623 0.593155 0
M  V30 22 C -4.169229 0.408666 -0.255074 0
M  V30 23 C 0.235769 0.141590 -3.661424 0
M  V30 24 C 1.150198 -0.686901 -4.276253 0
M  V30 25 C 1.929666 -1.495359 -3.488603 0
M  V30 26 Cl 3.054876 -2.477192 -4.377463 0
M  V30 27 C 3.597550 -3.368137 -1.526578 0
M  V30 28 C 4.321276 -4.138090 -0.657668 0
M  V30 29 N 4.126678 -3.899418 0.671962 0
M  V30 30 C 3.255368 -2.943236 1.044306 0
M  V30 31 N 2.972768 -2.597540 2.282773 0
M  V30 32 C -0.016088 -0.870912 3.458252 0
M  V30 33 C -0.584640 0.462418 3.045682 0
M  V30 34 H 1.386178 2.909140 2.705251 0
M  V30 35 H -0.256953 3.565177 3.106224 0
M  V30 36 H -0.054831 2.462506 1.721276 0
M  V30 37 H 0.839605 0.640868 5.308465 0
M  V30 38 H 1.607134 2.214834 4.853312 0
M  V30 39 H 3.086780 0.439466 4.089709 0
M  V30 40 H 2.214644 0.888386 2.599148 0
M  V30 41 H 1.811574 -1.467172 4.346729 0
M  V30 42 H 1.117619 -0.601545 0.654604 0
M  V30 43 H -0.062677 1.651478 -1.360161 0
M  V30 44 H -2.262517 2.021423 -0.766050 0
M  V30 45 H -2.736959 1.135728 -2.261190 0
M  V30 46 H -2.241765 -0.137799 0.454721 0
M  V30 47 H -1.619132 -1.597809 -1.434238 0
M  V30 48 H -3.075623 -1.153535 -2.325462 0
M  V30 49 H -2.880012 -2.882060 0.198739 0
M  V30 50 H -3.305145 -3.312393 -1.476110 0
M  V30 51 H -4.454228 -0.816821 1.536146 0
M  V30 52 H -5.962976 -0.133797 0.719979 0
M  V30 53 H -4.096214 1.376637 0.278544 0
M  V30 54 H -4.718415 0.578689 -1.193713 0
M  V30 55 H -0.402208 0.795696 -4.206931 0
M  V30 56 H 1.207099 -0.657606 -5.348956 0
M  V30 57 H 3.793231 -3.613671 -2.535764 0
M  V30 58 H 5.018225 -4.902793 -0.952889 0
M  V30 59 H 3.352767 -2.990227 3.190825 0
M  V30 60 H -0.384335 -1.649288 2.768239 0
M  V30 61 H -0.410267 -1.118057 4.465225 0
M  V30 62 H -1.666781 0.467454 3.292289 0
M  V30 63 H -0.525929 0.605878 1.933865 0
M  V30 END ATOM
M  V30 BEGIN BOND
M  V30 1 1 1 2
M  V30 2 1 2 3
M  V30 3 1 3 4
M  V30 4 1 4 5
M  V30 5 1 5 6
M  V30 6 2 6 7
M  V30 7 1 7 8
M  V30 8 2 8 9
M  V30 9 1 9 10
M  V30 10 2 10 11
M  V30 11 1 11 12
M  V30 12 1 12 13
M  V30 13 1 13 14
M  V30 14 1 14 15
M  V30 15 1 15 16
M  V30 16 1 16 17
M  V30 17 1 17 18
M  V30 18 2 18 19
M  V30 19 2 18 20
M  V30 20 1 18 21
M  V30 21 1 21 22
M  V30 22 2 12 23
M  V30 23 1 23 24
M  V30 24 2 24 25
M  V30 25 1 25 26
M  V30 26 1 9 27
M  V30 27 2 27 28
M  V30 28 1 28 29
M  V30 29 2 29 30
M  V30 30 1 30 31
M  V30 31 1 5 32
M  V30 32 1 32 33
M  V30 33 1 33 2
M  V30 34 1 31 6
M  V30 35 1 30 8
M  V30 36 1 25 10
M  V30 37 1 22 15
M  V30 38 1 1 34
M  V30 39 1 1 35
M  V30 40 1 1 36
M  V30 41 1 3 37
M  V30 42 1 3 38
M  V30 43 1 4 39
M  V30 44 1 4 40
M  V30 45 1 5 41
M  V30 46 1 7 42
M  V30 47 1 13 43
M  V30 48 1 14 44
M  V30 49 1 14 45
M  V30 50 1 15 46
M  V30 51 1 16 47
M  V30 52 1 16 48
M  V30 53 1 17 49
M  V30 54 1 17 50
M  V30 55 1 21 51
M  V30 56 1 21 52
M  V30 57 1 22 53
M  V30 58 1 22 54
M  V30 59 1 23 55
M  V30 60 1 24 56
M  V30 61 1 27 57
M  V30 62 1 28 58
M  V30 63 1 31 59
M  V30 64 1 32 60
M  V30 65 1 32 61
M  V30 66 1 33 62
M  V30 67 1 33 63
M  V30 END BOND
M  V30 END CTAB
M  END
>  <Dataset>  (304) 
ChEMBL_Kinases

>  <Ligand_Instance>  (304) 
nan

>  <PDB_ID>  (304) 
nan

>  <Standardized_SMILES>  (304) 
CN1CCC(c2cc3c(-c4nc(NCC5CCS(=O)(=O)CC5)ccc4Cl)ccnc3[nH]2)CC1

>  <Name>  (304) 
nan

>  <Pocket>  (304) 
nan

>  <ATP_Site>  (304) 
nan

>  <Peripheral>  (304) 
nan

>  <Num_H_Atoms_ProtBoundConf>  (304) 
nan

>  <Num_Resolved_Atoms>  (304) 
nan

>  <Num_Not_Resolved_Atoms>  (304) 
nan

$$$$
CHEMBL3668437
     RDKit          3D

  0  0  0  0  0  0  0  0  0  0999 V3000
M  V30 BEGIN CTAB
M  V30 COUNTS 44 47 0 0 0
M  V30 BEGIN ATOM
M  V30 1 C -0.637806 -3.928122 -2.150856 0
M  V30 2 O -0.100622 -2.650452 -1.966202 0
M  V30 3 C 1.250820 -2.345541 -1.912378 0
M  V30 4 C 2.105353 -3.424164 -2.057824 0
M  V30 5 C 3.475799 -3.241094 -2.021048 0
M  V30 6 C 3.980461 -1.974804 -1.838265 0
M  V30 7 F 5.319671 -1.686131 -1.786836 0
M  V30 8 C 3.155001 -0.878133 -1.690039 0
M  V30 9 C 1.783382 -1.068224 -1.727817 0
M  V30 10 C 0.731547 -0.059517 -1.593817 0
M  V30 11 C 0.256286 0.577105 -2.747063 0
M  V30 12 C -0.735943 1.520544 -2.566186 0
M  V30 13 N -1.242652 1.836958 -1.363836 0
M  V30 14 C -0.805526 1.239614 -0.223918 0
M  V30 15 N -1.114949 1.347172 1.085187 0
M  V30 16 C -0.344475 0.490721 1.776073 0
M  V30 17 C -0.400934 0.323975 3.265709 0
M  V30 18 O 0.030231 -0.977611 3.611131 0
M  V30 19 C 0.543829 1.249018 3.970994 0
M  V30 20 C 0.343357 1.047742 5.456048 0
M  V30 21 O -0.975610 1.118441 5.858175 0
M  V30 22 C -1.827954 1.529180 4.844380 0
M  V30 23 C -1.812599 0.449583 3.797458 0
M  V30 24 C 0.501785 -0.207187 0.905452 0
M  V30 25 C 0.190649 0.286681 -0.366950 0
M  V30 26 H -1.667761 -3.785266 -2.545618 0
M  V30 27 H -0.089730 -4.522368 -2.910816 0
M  V30 28 H -0.647712 -4.455103 -1.170498 0
M  V30 29 H 1.823697 -4.458457 -2.206080 0
M  V30 30 H 4.194926 -4.060878 -2.131029 0
M  V30 31 H 3.437993 0.148287 -1.542894 0
M  V30 32 H 0.629575 0.359892 -3.739463 0
M  V30 33 H -1.114207 2.022784 -3.454179 0
M  V30 34 H -1.847063 2.013593 1.417942 0
M  V30 35 H 0.998907 -0.991875 3.335264 0
M  V30 36 H 1.592664 0.925675 3.769432 0
M  V30 37 H 0.473707 2.300362 3.663240 0
M  V30 38 H 0.984700 1.737513 6.069255 0
M  V30 39 H 0.723771 0.034167 5.700610 0
M  V30 40 H -2.832148 1.682942 5.282848 0
M  V30 41 H -1.459081 2.464607 4.427581 0
M  V30 42 H -2.214546 -0.506804 4.187159 0
M  V30 43 H -2.463204 0.784964 2.950524 0
M  V30 44 H 1.204296 -0.940608 1.216735 0
M  V30 END ATOM
M  V30 BEGIN BOND
M  V30 1 1 1 2
M  V30 2 1 2 3
M  V30 3 2 3 4
M  V30 4 1 4 5
M  V30 5 2 5 6
M  V30 6 1 6 7
M  V30 7 1 6 8
M  V30 8 2 8 9
M  V30 9 1 9 10
M  V30 10 2 10 11
M  V30 11 1 11 12
M  V30 12 2 12 13
M  V30 13 1 13 14
M  V30 14 1 14 15
M  V30 15 1 15 16
M  V30 16 1 16 17
M  V30 17 1 17 18
M  V30 18 1 17 19
M  V30 19 1 19 20
M  V30 20 1 20 21
M  V30 21 1 21 22
M  V30 22 1 22 23
M  V30 23 2 16 24
M  V30 24 1 24 25
M  V30 25 1 9 3
M  V30 26 1 25 10
M  V30 27 2 25 14
M  V30 28 1 23 17
M  V30 29 1 1 26
M  V30 30 1 1 27
M  V30 31 1 1 28
M  V30 32 1 4 29
M  V30 33 1 5 30
M  V30 34 1 8 31
M  V30 35 1 11 32
M  V30 36 1 12 33
M  V30 37 1 15 34
M  V30 38 1 18 35
M  V30 39 1 19 36
M  V30 40 1 19 37
M  V30 41 1 20 38
M  V30 42 1 20 39
M  V30 43 1 22 40
M  V30 44 1 22 41
M  V30 45 1 23 42
M  V30 46 1 23 43
M  V30 47 1 24 44
M  V30 END BOND
M  V30 END CTAB
M  END
>  <Dataset>  (305) 
ChEMBL_Kinases

>  <Ligand_Instance>  (305) 
nan

>  <PDB_ID>  (305) 
nan

>  <Standardized_SMILES>  (305) 
COc1ccc(F)cc1-c1ccnc2[nH]c(C3(O)CCOCC3)cc12

>  <Name>  (305) 
nan

>  <Pocket>  (305) 
nan

>  <ATP_Site>  (305) 
nan

>  <Peripheral>  (305) 
nan

>  <Num_H_Atoms_ProtBoundConf>  (305) 
nan

>  <Num_Resolved_Atoms>  (305) 
nan

>  <Num_Not_Resolved_Atoms>  (305) 
nan

$$$$
CHEMBL3668438
     RDKit          3D

  0  0  0  0  0  0  0  0  0  0999 V3000
M  V30 BEGIN CTAB
M  V30 COUNTS 50 54 0 0 0
M  V30 BEGIN ATOM
M  V30 1 C 5.660288 -1.443334 -1.009898 0
M  V30 2 O 4.626478 -0.525302 -0.699015 0
M  V30 3 C 4.779851 0.240319 0.448086 0
M  V30 4 C 5.881668 0.136500 1.273991 0
M  V30 5 C 6.094665 0.862984 2.421436 0
M  V30 6 C 5.117066 1.778498 2.778108 0
M  V30 7 F 5.313872 2.491927 3.894098 0
M  V30 8 C 3.994766 1.922888 1.987976 0
M  V30 9 C 3.815510 1.174385 0.840898 0
M  V30 10 C 2.656542 1.273830 -0.040773 0
M  V30 11 C 2.766131 2.202206 -1.074230 0
M  V30 12 C 1.660467 2.291370 -1.908574 0
M  V30 13 N 0.515483 1.568787 -1.802085 0
M  V30 14 C 0.444685 0.675211 -0.784530 0
M  V30 15 N -0.499911 -0.204053 -0.359483 0
M  V30 16 C -0.050785 -0.865140 0.723601 0
M  V30 17 C -0.888793 -1.888560 1.390528 0
M  V30 18 C -1.511938 -2.887785 0.413159 0
M  V30 19 N -2.837910 -2.590433 0.913476 0
M  V30 20 C -3.845843 -2.361999 -0.100093 0
M  V30 21 C -5.126693 -2.076430 0.598499 0
M  V30 22 C -6.043712 -3.038644 0.960073 0
M  V30 23 C -7.224606 -2.823887 1.598428 0
M  V30 24 N -7.528652 -1.550431 1.907521 0
M  V30 25 C -6.687250 -0.540505 1.590858 0
M  V30 26 C -5.509185 -0.780645 0.950952 0
M  V30 27 C -2.316625 -1.420198 1.545875 0
M  V30 28 C 1.236167 -0.430003 1.052940 0
M  V30 29 C 1.500682 0.524488 0.090422 0
M  V30 30 H 5.940521 -2.099988 -0.160515 0
M  V30 31 H 5.320028 -2.152507 -1.816320 0
M  V30 32 H 6.554785 -0.939559 -1.428125 0
M  V30 33 H 6.662337 -0.581888 1.005989 0
M  V30 34 H 6.971887 0.731395 3.014249 0
M  V30 35 H 3.220585 2.631733 2.249043 0
M  V30 36 H 3.616183 2.842310 -1.276732 0
M  V30 37 H 1.618858 2.981698 -2.758123 0
M  V30 38 H -1.409819 -0.288343 -0.858336 0
M  V30 39 H -0.444405 -2.371133 2.258504 0
M  V30 40 H -1.323251 -2.686385 -0.644874 0
M  V30 41 H -1.276777 -3.955925 0.637723 0
M  V30 42 H -3.628417 -1.443367 -0.697836 0
M  V30 43 H -3.986773 -3.205191 -0.772655 0
M  V30 44 H -5.814477 -4.084856 0.716795 0
M  V30 45 H -7.924935 -3.574487 1.872701 0
M  V30 46 H -7.011330 0.446741 1.876345 0
M  V30 47 H -4.863789 0.051321 0.714870 0
M  V30 48 H -2.578745 -1.422941 2.641355 0
M  V30 49 H -2.548067 -0.439637 1.122565 0
M  V30 50 H 1.814704 -0.796473 1.870396 0
M  V30 END ATOM
M  V30 BEGIN BOND
M  V30 1 1 1 2
M  V30 2 1 2 3
M  V30 3 2 3 4
M  V30 4 1 4 5
M  V30 5 2 5 6
M  V30 6 1 6 7
M  V30 7 1 6 8
M  V30 8 2 8 9
M  V30 9 1 9 10
M  V30 10 2 10 11
M  V30 11 1 11 12
M  V30 12 2 12 13
M  V30 13 1 13 14
M  V30 14 1 14 15
M  V30 15 1 15 16
M  V30 16 1 16 17
M  V30 17 1 17 18
M  V30 18 1 18 19
M  V30 19 1 19 20
M  V30 20 1 20 21
M  V30 21 2 21 22
M  V30 22 1 22 23
M  V30 23 2 23 24
M  V30 24 1 24 25
M  V30 25 2 25 26
M  V30 26 1 19 27
M  V30 27 2 16 28
M  V30 28 1 28 29
M  V30 29 1 9 3
M  V30 30 1 29 10
M  V30 31 2 29 14
M  V30 32 1 27 17
M  V30 33 1 26 21
M  V30 34 1 1 30
M  V30 35 1 1 31
M  V30 36 1 1 32
M  V30 37 1 4 33
M  V30 38 1 5 34
M  V30 39 1 8 35
M  V30 40 1 11 36
M  V30 41 1 12 37
M  V30 42 1 15 38
M  V30 43 1 17 39
M  V30 44 1 18 40
M  V30 45 1 18 41
M  V30 46 1 20 42
M  V30 47 1 20 43
M  V30 48 1 22 44
M  V30 49 1 23 45
M  V30 50 1 25 46
M  V30 51 1 26 47
M  V30 52 1 27 48
M  V30 53 1 27 49
M  V30 54 1 28 50
M  V30 END BOND
M  V30 END CTAB
M  END
>  <Dataset>  (306) 
ChEMBL_Kinases

>  <Ligand_Instance>  (306) 
nan

>  <PDB_ID>  (306) 
nan

>  <Standardized_SMILES>  (306) 
COc1ccc(F)cc1-c1ccnc2[nH]c(C3CN(Cc4ccncc4)C3)cc12

>  <Name>  (306) 
nan

>  <Pocket>  (306) 
nan

>  <ATP_Site>  (306) 
nan

>  <Peripheral>  (306) 
nan

>  <Num_H_Atoms_ProtBoundConf>  (306) 
nan

>  <Num_Resolved_Atoms>  (306) 
nan

>  <Num_Not_Resolved_Atoms>  (306) 
nan

$$$$
CHEMBL3668439
     RDKit          3D

  0  0  0  0  0  0  0  0  0  0999 V3000
M  V30 BEGIN CTAB
M  V30 COUNTS 43 46 0 0 0
M  V30 BEGIN ATOM
M  V30 1 C 0.036766 -4.423050 -1.661718 0
M  V30 2 O 0.072206 -3.026705 -1.619305 0
M  V30 3 C 1.085084 -2.255191 -2.136114 0
M  V30 4 C 2.158424 -2.874973 -2.747271 0
M  V30 5 C 3.232459 -2.211345 -3.302138 0
M  V30 6 C 3.206319 -0.836173 -3.227182 0
M  V30 7 F 4.221742 -0.107068 -3.747297 0
M  V30 8 C 2.160907 -0.152787 -2.628399 0
M  V30 9 C 1.109797 -0.866284 -2.088211 0
M  V30 10 C -0.072817 -0.291040 -1.419614 0
M  V30 11 C -1.201800 0.027595 -2.147439 0
M  V30 12 C -2.266589 0.566043 -1.423144 0
M  V30 13 N -2.221527 0.775575 -0.076405 0
M  V30 14 C -1.115496 0.462648 0.631991 0
M  V30 15 N -0.788783 0.550687 1.911020 0
M  V30 16 C 0.452206 0.110613 2.178709 0
M  V30 17 C 1.299254 -0.020094 3.374846 0
M  V30 18 C 1.251862 1.136841 4.341462 0
M  V30 19 N 0.044316 0.556085 4.877589 0
M  V30 20 C -1.222163 0.791207 5.532646 0
M  V30 21 C -1.442927 2.235123 5.801052 0
M  V30 22 O -2.099291 -0.071444 5.873610 0
M  V30 23 C 0.566273 -0.730341 4.486843 0
M  V30 24 C 0.900435 -0.278930 0.908116 0
M  V30 25 C -0.058025 -0.067417 -0.059486 0
M  V30 26 H 0.868797 -4.845932 -1.075131 0
M  V30 27 H 0.080122 -4.795443 -2.703521 0
M  V30 28 H -0.931345 -4.758217 -1.200952 0
M  V30 29 H 2.177264 -3.960815 -2.805475 0
M  V30 30 H 4.052825 -2.740799 -3.771721 0
M  V30 31 H 2.088567 0.921598 -2.541611 0
M  V30 32 H -1.269499 -0.123363 -3.199481 0
M  V30 33 H -3.175523 0.830347 -1.962864 0
M  V30 34 H -1.399422 0.918432 2.670455 0
M  V30 35 H 2.326559 -0.413482 3.183268 0
M  V30 36 H 2.081790 1.042987 5.082101 0
M  V30 37 H 1.143813 2.141371 3.894027 0
M  V30 38 H -1.515251 2.846249 4.883639 0
M  V30 39 H -0.529104 2.605061 6.326056 0
M  V30 40 H -2.344343 2.336636 6.434459 0
M  V30 41 H 1.283193 -1.183073 5.207643 0
M  V30 42 H -0.159100 -1.496232 4.160838 0
M  V30 43 H 1.886994 -0.704282 0.672899 0
M  V30 END ATOM
M  V30 BEGIN BOND
M  V30 1 1 1 2
M  V30 2 1 2 3
M  V30 3 2 3 4
M  V30 4 1 4 5
M  V30 5 2 5 6
M  V30 6 1 6 7
M  V30 7 1 6 8
M  V30 8 2 8 9
M  V30 9 1 9 10
M  V30 10 2 10 11
M  V30 11 1 11 12
M  V30 12 2 12 13
M  V30 13 1 13 14
M  V30 14 1 14 15
M  V30 15 1 15 16
M  V30 16 1 16 17
M  V30 17 1 17 18
M  V30 18 1 18 19
M  V30 19 1 19 20
M  V30 20 1 20 21
M  V30 21 2 20 22
M  V30 22 1 19 23
M  V30 23 2 16 24
M  V30 24 1 24 25
M  V30 25 1 9 3
M  V30 26 1 25 10
M  V30 27 2 25 14
M  V30 28 1 23 17
M  V30 29 1 1 26
M  V30 30 1 1 27
M  V30 31 1 1 28
M  V30 32 1 4 29
M  V30 33 1 5 30
M  V30 34 1 8 31
M  V30 35 1 11 32
M  V30 36 1 12 33
M  V30 37 1 15 34
M  V30 38 1 17 35
M  V30 39 1 18 36
M  V30 40 1 18 37
M  V30 41 1 21 38
M  V30 42 1 21 39
M  V30 43 1 21 40
M  V30 44 1 23 41
M  V30 45 1 23 42
M  V30 46 1 24 43
M  V30 END BOND
M  V30 END CTAB
M  END
>  <Dataset>  (307) 
ChEMBL_Kinases

>  <Ligand_Instance>  (307) 
nan

>  <PDB_ID>  (307) 
nan

>  <Standardized_SMILES>  (307) 
COc1ccc(F)cc1-c1ccnc2[nH]c(C3CN(C(C)=O)C3)cc12

>  <Name>  (307) 
nan

>  <Pocket>  (307) 
nan

>  <ATP_Site>  (307) 
nan

>  <Peripheral>  (307) 
nan

>  <Num_H_Atoms_ProtBoundConf>  (307) 
nan

>  <Num_Resolved_Atoms>  (307) 
nan

>  <Num_Not_Resolved_Atoms>  (307) 
nan

$$$$
CHEMBL3668440
     RDKit          3D

  0  0  0  0  0  0  0  0  0  0999 V3000
M  V30 BEGIN CTAB
M  V30 COUNTS 46 49 0 0 0
M  V30 BEGIN ATOM
M  V30 1 C -0.185941 -4.376757 -3.003399 0
M  V30 2 O 0.250522 -3.066319 -2.694482 0
M  V30 3 C 1.583472 -2.767331 -2.446574 0
M  V30 4 C 2.619842 -3.678525 -2.468143 0
M  V30 5 C 3.900598 -3.230726 -2.199608 0
M  V30 6 C 4.187218 -1.910704 -1.910714 0
M  V30 7 F 5.465160 -1.529663 -1.655506 0
M  V30 8 C 3.124566 -1.030954 -1.899191 0
M  V30 9 C 1.812152 -1.439662 -2.165022 0
M  V30 10 C 0.881749 -0.321983 -2.087482 0
M  V30 11 C 0.591826 0.438870 -3.214121 0
M  V30 12 C -0.299447 1.494933 -3.057726 0
M  V30 13 N -0.882333 1.799507 -1.866049 0
M  V30 14 C -0.623344 1.082920 -0.756232 0
M  V30 15 N -1.036880 1.146197 0.525109 0
M  V30 16 C -0.471880 0.178045 1.270328 0
M  V30 17 C -0.547481 -0.221641 2.685784 0
M  V30 18 C -0.207074 0.858497 3.701383 0
M  V30 19 N -1.309957 0.311485 4.502447 0
M  V30 20 C -2.131136 1.294064 5.137807 0
M  V30 21 C -1.304147 1.983316 6.230454 0
M  V30 22 N -0.863260 1.007425 7.213103 0
M  V30 23 C -1.938093 -0.210928 3.288835 0
M  V30 24 C 0.340531 -0.516141 0.365649 0
M  V30 25 C 0.254645 0.042313 -0.910300 0
M  V30 26 H -1.179742 -4.275876 -3.501379 0
M  V30 27 H 0.568105 -4.809438 -3.707918 0
M  V30 28 H -0.279013 -5.002778 -2.087533 0
M  V30 29 H 2.378091 -4.706553 -2.695768 0
M  V30 30 H 4.716610 -3.962042 -2.219834 0
M  V30 31 H 3.423402 -0.016367 -1.663982 0
M  V30 32 H 1.051582 0.204160 -4.167323 0
M  V30 33 H -0.481446 2.043488 -3.967549 0
M  V30 34 H -1.694415 1.818964 0.942921 0
M  V30 35 H -0.020928 -1.177170 2.962341 0
M  V30 36 H 0.744479 0.684806 4.259752 0
M  V30 37 H -0.343559 1.893830 3.374173 0
M  V30 38 H -2.489104 2.084370 4.465596 0
M  V30 39 H -2.972437 0.759217 5.628447 0
M  V30 40 H -1.950002 2.757172 6.698655 0
M  V30 41 H -0.419534 2.422998 5.765619 0
M  V30 42 H -1.458943 0.158921 7.234676 0
M  V30 43 H 0.157872 0.806817 7.175517 0
M  V30 44 H -2.630941 0.514684 2.801733 0
M  V30 45 H -2.418598 -1.195307 3.418813 0
M  V30 46 H 0.975511 -1.386600 0.584594 0
M  V30 END ATOM
M  V30 BEGIN BOND
M  V30 1 1 1 2
M  V30 2 1 2 3
M  V30 3 2 3 4
M  V30 4 1 4 5
M  V30 5 2 5 6
M  V30 6 1 6 7
M  V30 7 1 6 8
M  V30 8 2 8 9
M  V30 9 1 9 10
M  V30 10 2 10 11
M  V30 11 1 11 12
M  V30 12 2 12 13
M  V30 13 1 13 14
M  V30 14 1 14 15
M  V30 15 1 15 16
M  V30 16 1 16 17
M  V30 17 1 17 18
M  V30 18 1 18 19
M  V30 19 1 19 20
M  V30 20 1 20 21
M  V30 21 1 21 22
M  V30 22 1 19 23
M  V30 23 2 16 24
M  V30 24 1 24 25
M  V30 25 1 9 3
M  V30 26 1 25 10
M  V30 27 2 25 14
M  V30 28 1 23 17
M  V30 29 1 1 26
M  V30 30 1 1 27
M  V30 31 1 1 28
M  V30 32 1 4 29
M  V30 33 1 5 30
M  V30 34 1 8 31
M  V30 35 1 11 32
M  V30 36 1 12 33
M  V30 37 1 15 34
M  V30 38 1 17 35
M  V30 39 1 18 36
M  V30 40 1 18 37
M  V30 41 1 20 38
M  V30 42 1 20 39
M  V30 43 1 21 40
M  V30 44 1 21 41
M  V30 45 1 22 42
M  V30 46 1 22 43
M  V30 47 1 23 44
M  V30 48 1 23 45
M  V30 49 1 24 46
M  V30 END BOND
M  V30 END CTAB
M  END
>  <Dataset>  (308) 
ChEMBL_Kinases

>  <Ligand_Instance>  (308) 
nan

>  <PDB_ID>  (308) 
nan

>  <Standardized_SMILES>  (308) 
COc1ccc(F)cc1-c1ccnc2[nH]c(C3CN(CCN)C3)cc12

>  <Name>  (308) 
nan

>  <Pocket>  (308) 
nan

>  <ATP_Site>  (308) 
nan

>  <Peripheral>  (308) 
nan

>  <Num_H_Atoms_ProtBoundConf>  (308) 
nan

>  <Num_Resolved_Atoms>  (308) 
nan

>  <Num_Not_Resolved_Atoms>  (308) 
nan

$$$$
CHEMBL3668441
     RDKit          3D

  0  0  0  0  0  0  0  0  0  0999 V3000
M  V30 BEGIN CTAB
M  V30 COUNTS 55 59 0 0 0
M  V30 BEGIN ATOM
M  V30 1 C 2.754942 -0.545929 -2.733392 0
M  V30 2 O 2.689488 0.220977 -1.555537 0
M  V30 3 C 3.701338 0.089703 -0.619894 0
M  V30 4 C 4.840382 -0.689444 -0.595527 0
M  V30 5 C 5.705965 -0.639752 0.468523 0
M  V30 6 C 5.502764 0.168017 1.555061 0
M  V30 7 F 6.410812 0.147592 2.554633 0
M  V30 8 C 4.367906 0.957706 1.553569 0
M  V30 9 C 3.477453 0.923402 0.485103 0
M  V30 10 C 2.321203 1.828405 0.651313 0
M  V30 11 C 2.358711 3.134021 0.200590 0
M  V30 12 C 1.246311 3.908302 0.392982 0
M  V30 13 N 0.145339 3.427338 0.999673 0
M  V30 14 C 0.121615 2.158283 1.432991 0
M  V30 15 N -0.859851 1.483508 2.056389 0
M  V30 16 C -0.479853 0.220393 2.324229 0
M  V30 17 C -1.018309 -0.996118 2.957637 0
M  V30 18 C -0.733814 -2.290775 2.302202 0
M  V30 19 N -2.026678 -2.272845 1.582022 0
M  V30 20 C -1.774656 -1.889590 0.244966 0
M  V30 21 C -2.887560 -1.944000 -0.735056 0
M  V30 22 C -4.090495 -1.123603 -0.475983 0
M  V30 23 C -5.196471 -2.020888 0.056848 0
M  V30 24 O -4.694508 -2.931612 0.961653 0
M  V30 25 C -3.929555 -3.891483 0.307740 0
M  V30 26 C -3.340048 -3.393386 -0.985117 0
M  V30 27 C -2.443578 -1.299766 2.546833 0
M  V30 28 C 0.810447 0.091606 1.843803 0
M  V30 29 C 1.202523 1.304574 1.279741 0
M  V30 30 H 3.276645 0.022510 -3.543579 0
M  V30 31 H 1.690592 -0.772347 -3.012193 0
M  V30 32 H 3.234686 -1.524823 -2.627055 0
M  V30 33 H 4.915460 -1.291505 -1.490715 0
M  V30 34 H 6.563990 -1.285257 0.390640 0
M  V30 35 H 4.230200 1.585645 2.426436 0
M  V30 36 H 3.267609 3.468622 -0.278278 0
M  V30 37 H 1.356279 4.925865 0.008548 0
M  V30 38 H -1.821605 1.747295 2.359268 0
M  V30 39 H -0.876581 -0.933635 4.062045 0
M  V30 40 H 0.143096 -2.372668 1.658290 0
M  V30 41 H -0.804025 -3.123806 3.059727 0
M  V30 42 H -1.297854 -0.888808 0.134876 0
M  V30 43 H -0.969338 -2.594272 -0.129330 0
M  V30 44 H -2.508464 -1.635950 -1.770643 0
M  V30 45 H -4.494576 -0.766454 -1.484620 0
M  V30 46 H -3.950754 -0.205061 0.112228 0
M  V30 47 H -6.018600 -1.404848 0.456908 0
M  V30 48 H -5.621308 -2.599798 -0.803032 0
M  V30 49 H -4.580900 -4.762178 0.075041 0
M  V30 50 H -3.140529 -4.302415 0.986180 0
M  V30 51 H -2.389251 -3.955534 -1.179870 0
M  V30 52 H -4.036686 -3.413221 -1.823206 0
M  V30 53 H -3.039103 -0.447080 2.238562 0
M  V30 54 H -2.917607 -1.853053 3.416997 0
M  V30 55 H 1.551886 -0.692796 1.806032 0
M  V30 END ATOM
M  V30 BEGIN BOND
M  V30 1 1 1 2
M  V30 2 1 2 3
M  V30 3 2 3 4
M  V30 4 1 4 5
M  V30 5 2 5 6
M  V30 6 1 6 7
M  V30 7 1 6 8
M  V30 8 2 8 9
M  V30 9 1 9 10
M  V30 10 2 10 11
M  V30 11 1 11 12
M  V30 12 2 12 13
M  V30 13 1 13 14
M  V30 14 1 14 15
M  V30 15 1 15 16
M  V30 16 1 16 17
M  V30 17 1 17 18
M  V30 18 1 18 19
M  V30 19 1 19 20
M  V30 20 1 20 21
M  V30 21 1 21 22
M  V30 22 1 22 23
M  V30 23 1 23 24
M  V30 24 1 24 25
M  V30 25 1 25 26
M  V30 26 1 19 27
M  V30 27 2 16 28
M  V30 28 1 28 29
M  V30 29 1 9 3
M  V30 30 1 29 10
M  V30 31 2 29 14
M  V30 32 1 27 17
M  V30 33 1 26 21
M  V30 34 1 1 30
M  V30 35 1 1 31
M  V30 36 1 1 32
M  V30 37 1 4 33
M  V30 38 1 5 34
M  V30 39 1 8 35
M  V30 40 1 11 36
M  V30 41 1 12 37
M  V30 42 1 15 38
M  V30 43 1 17 39
M  V30 44 1 18 40
M  V30 45 1 18 41
M  V30 46 1 20 42
M  V30 47 1 20 43
M  V30 48 1 21 44
M  V30 49 1 22 45
M  V30 50 1 22 46
M  V30 51 1 23 47
M  V30 52 1 23 48
M  V30 53 1 25 49
M  V30 54 1 25 50
M  V30 55 1 26 51
M  V30 56 1 26 52
M  V30 57 1 27 53
M  V30 58 1 27 54
M  V30 59 1 28 55
M  V30 END BOND
M  V30 END CTAB
M  END
>  <Dataset>  (309) 
ChEMBL_Kinases

>  <Ligand_Instance>  (309) 
nan

>  <PDB_ID>  (309) 
nan

>  <Standardized_SMILES>  (309) 
COc1ccc(F)cc1-c1ccnc2[nH]c(C3CN(CC4CCOCC4)C3)cc12

>  <Name>  (309) 
nan

>  <Pocket>  (309) 
nan

>  <ATP_Site>  (309) 
nan

>  <Peripheral>  (309) 
nan

>  <Num_H_Atoms_ProtBoundConf>  (309) 
nan

>  <Num_Resolved_Atoms>  (309) 
nan

>  <Num_Not_Resolved_Atoms>  (309) 
nan

$$$$
CHEMBL3668442
     RDKit          3D

  0  0  0  0  0  0  0  0  0  0999 V3000
M  V30 BEGIN CTAB
M  V30 COUNTS 57 61 0 0 0
M  V30 BEGIN ATOM
M  V30 1 C 1.971891 1.242686 4.792572 0
M  V30 2 O 2.260039 1.608415 3.466209 0
M  V30 3 C 3.283770 1.064461 2.705457 0
M  V30 4 C 4.101894 0.080809 3.272047 0
M  V30 5 C 5.103677 -0.420322 2.461003 0
M  V30 6 C 5.355024 -0.035882 1.166237 0
M  V30 7 F 6.350262 -0.564100 0.424327 0
M  V30 8 C 4.535393 0.934987 0.629763 0
M  V30 9 C 3.510415 1.480709 1.388871 0
M  V30 10 C 2.581596 2.523145 0.902338 0
M  V30 11 C 2.922401 3.864681 1.094375 0
M  V30 12 C 2.068950 4.871046 0.650707 0
M  V30 13 N 0.906616 4.519994 0.031510 0
M  V30 14 C 0.596449 3.213588 -0.144215 0
M  V30 15 N -0.511787 2.690965 -0.736760 0
M  V30 16 C -0.368435 1.336571 -0.673058 0
M  V30 17 C -1.366843 0.353435 -1.213013 0
M  V30 18 C -1.687384 -0.722430 -0.212771 0
M  V30 19 N -1.612946 -1.695692 -1.305588 0
M  V30 20 C -2.891648 -1.881271 -1.913496 0
M  V30 21 C -3.900164 -2.569158 -1.066577 0
M  V30 22 N -3.611427 -3.880313 -0.637785 0
M  V30 23 C -2.564375 -4.087361 0.289432 0
M  V30 24 C -2.277102 -5.599138 0.285041 0
M  V30 25 O -3.434676 -6.348482 0.348103 0
M  V30 26 C -4.247262 -6.171202 -0.770784 0
M  V30 27 C -3.820522 -4.941842 -1.565719 0
M  V30 28 C -0.741895 -0.770751 -1.998921 0
M  V30 29 C 0.810068 0.978132 -0.050918 0
M  V30 30 C 1.404302 2.177665 0.275135 0
M  V30 31 H 1.344420 0.339095 4.873639 0
M  V30 32 H 1.452658 2.061001 5.346437 0
M  V30 33 H 2.902897 1.026171 5.391844 0
M  V30 34 H 3.986319 -0.290138 4.282711 0
M  V30 35 H 5.755828 -1.181620 2.866915 0
M  V30 36 H 4.645666 1.311730 -0.383803 0
M  V30 37 H 3.846338 4.162453 1.586994 0
M  V30 38 H 2.325917 5.922047 0.796519 0
M  V30 39 H -1.328162 3.153484 -1.165978 0
M  V30 40 H -2.242583 0.802058 -1.674661 0
M  V30 41 H -2.683592 -0.644900 0.259731 0
M  V30 42 H -0.857907 -0.893147 0.509602 0
M  V30 43 H -3.329193 -0.867827 -2.157971 0
M  V30 44 H -2.826560 -2.374251 -2.919822 0
M  V30 45 H -4.842144 -2.631188 -1.692865 0
M  V30 46 H -4.173763 -1.954687 -0.184540 0
M  V30 47 H -2.979424 -3.906416 1.319288 0
M  V30 48 H -1.619796 -3.578109 0.121882 0
M  V30 49 H -1.631896 -5.869783 1.133247 0
M  V30 50 H -1.761947 -5.874597 -0.673726 0
M  V30 51 H -5.273958 -5.925046 -0.373733 0
M  V30 52 H -4.323991 -7.078722 -1.397854 0
M  V30 53 H -4.669511 -4.683304 -2.233152 0
M  V30 54 H -2.965254 -5.194527 -2.212540 0
M  V30 55 H -0.930409 -0.662483 -3.070116 0
M  V30 56 H 0.311479 -0.947455 -1.699770 0
M  V30 57 H 1.204305 0.013063 0.149290 0
M  V30 END ATOM
M  V30 BEGIN BOND
M  V30 1 1 1 2
M  V30 2 1 2 3
M  V30 3 2 3 4
M  V30 4 1 4 5
M  V30 5 2 5 6
M  V30 6 1 6 7
M  V30 7 1 6 8
M  V30 8 2 8 9
M  V30 9 1 9 10
M  V30 10 2 10 11
M  V30 11 1 11 12
M  V30 12 2 12 13
M  V30 13 1 13 14
M  V30 14 1 14 15
M  V30 15 1 15 16
M  V30 16 1 16 17
M  V30 17 1 17 18
M  V30 18 1 18 19
M  V30 19 1 19 20
M  V30 20 1 20 21
M  V30 21 1 21 22
M  V30 22 1 22 23
M  V30 23 1 23 24
M  V30 24 1 24 25
M  V30 25 1 25 26
M  V30 26 1 26 27
M  V30 27 1 19 28
M  V30 28 2 16 29
M  V30 29 1 29 30
M  V30 30 1 9 3
M  V30 31 1 30 10
M  V30 32 2 30 14
M  V30 33 1 28 17
M  V30 34 1 27 22
M  V30 35 1 1 31
M  V30 36 1 1 32
M  V30 37 1 1 33
M  V30 38 1 4 34
M  V30 39 1 5 35
M  V30 40 1 8 36
M  V30 41 1 11 37
M  V30 42 1 12 38
M  V30 43 1 15 39
M  V30 44 1 17 40
M  V30 45 1 18 41
M  V30 46 1 18 42
M  V30 47 1 20 43
M  V30 48 1 20 44
M  V30 49 1 21 45
M  V30 50 1 21 46
M  V30 51 1 23 47
M  V30 52 1 23 48
M  V30 53 1 24 49
M  V30 54 1 24 50
M  V30 55 1 26 51
M  V30 56 1 26 52
M  V30 57 1 27 53
M  V30 58 1 27 54
M  V30 59 1 28 55
M  V30 60 1 28 56
M  V30 61 1 29 57
M  V30 END BOND
M  V30 END CTAB
M  END
>  <Dataset>  (310) 
ChEMBL_Kinases

>  <Ligand_Instance>  (310) 
nan

>  <PDB_ID>  (310) 
nan

>  <Standardized_SMILES>  (310) 
COc1ccc(F)cc1-c1ccnc2[nH]c(C3CN(CCN4CCOCC4)C3)cc12

>  <Name>  (310) 
nan

>  <Pocket>  (310) 
nan

>  <ATP_Site>  (310) 
nan

>  <Peripheral>  (310) 
nan

>  <Num_H_Atoms_ProtBoundConf>  (310) 
nan

>  <Num_Resolved_Atoms>  (310) 
nan

>  <Num_Not_Resolved_Atoms>  (310) 
nan

$$$$
CHEMBL3668443
     RDKit          3D

  0  0  0  0  0  0  0  0  0  0999 V3000
M  V30 BEGIN CTAB
M  V30 COUNTS 45 48 0 0 0
M  V30 BEGIN ATOM
M  V30 1 C -1.092154 -4.261438 -0.891838 0
M  V30 2 O -1.099771 -2.873288 -1.139463 0
M  V30 3 C -0.080555 -2.255632 -1.816921 0
M  V30 4 C 1.049163 -2.906629 -2.326035 0
M  V30 5 C 2.014192 -2.155090 -2.996541 0
M  V30 6 C 1.913193 -0.789204 -3.186429 0
M  V30 7 F 2.896657 -0.119678 -3.851777 0
M  V30 8 C 0.790104 -0.171850 -2.675394 0
M  V30 9 C -0.197230 -0.893467 -1.997955 0
M  V30 10 C -1.288004 -0.038268 -1.552124 0
M  V30 11 C -2.374483 0.233464 -2.361409 0
M  V30 12 C -3.360901 1.052915 -1.881723 0
M  V30 13 N -3.379225 1.639255 -0.660088 0
M  V30 14 C -2.319817 1.386788 0.156780 0
M  V30 15 N -1.937004 1.745964 1.413049 0
M  V30 16 C -0.775324 1.187890 1.716478 0
M  V30 17 C -0.140188 1.421624 3.027144 0
M  V30 18 C 1.370196 1.290533 3.070459 0
M  V30 19 N 1.225754 0.326024 4.066160 0
M  V30 20 C 2.069895 -0.712157 4.386191 0
M  V30 21 C 3.395924 -0.422559 4.978990 0
M  V30 22 O 3.261830 0.276495 6.204987 0
M  V30 23 C -0.162371 0.106265 3.835691 0
M  V30 24 C -0.314983 0.425988 0.683157 0
M  V30 25 C -1.308674 0.567005 -0.292242 0
M  V30 26 H -1.480632 -4.864523 -1.740676 0
M  V30 27 H -0.069047 -4.634756 -0.680954 0
M  V30 28 H -1.721102 -4.486340 -0.021491 0
M  V30 29 H 1.133108 -3.973972 -2.181210 0
M  V30 30 H 2.878822 -2.716912 -3.375216 0
M  V30 31 H 0.768323 0.910210 -2.858064 0
M  V30 32 H -2.465411 -0.181214 -3.350620 0
M  V30 33 H -4.245300 1.316310 -2.443714 0
M  V30 34 H -2.559398 2.389181 1.982278 0
M  V30 35 H -0.594715 2.207186 3.632893 0
M  V30 36 H 1.732258 0.847111 2.096991 0
M  V30 37 H 1.830674 2.251072 3.221824 0
M  V30 38 H 1.541606 -1.380244 5.127888 0
M  V30 39 H 2.227926 -1.380467 3.505149 0
M  V30 40 H 4.094012 0.167321 4.392617 0
M  V30 41 H 3.924064 -1.361564 5.267519 0
M  V30 42 H 4.167439 0.238245 6.618802 0
M  V30 43 H -0.765380 0.148970 4.755288 0
M  V30 44 H -0.337815 -0.782953 3.208354 0
M  V30 45 H 0.613176 -0.146616 0.653342 0
M  V30 END ATOM
M  V30 BEGIN BOND
M  V30 1 1 1 2
M  V30 2 1 2 3
M  V30 3 2 3 4
M  V30 4 1 4 5
M  V30 5 2 5 6
M  V30 6 1 6 7
M  V30 7 1 6 8
M  V30 8 2 8 9
M  V30 9 1 9 10
M  V30 10 2 10 11
M  V30 11 1 11 12
M  V30 12 2 12 13
M  V30 13 1 13 14
M  V30 14 1 14 15
M  V30 15 1 15 16
M  V30 16 1 16 17
M  V30 17 1 17 18
M  V30 18 1 18 19
M  V30 19 1 19 20
M  V30 20 1 20 21
M  V30 21 1 21 22
M  V30 22 1 19 23
M  V30 23 2 16 24
M  V30 24 1 24 25
M  V30 25 1 9 3
M  V30 26 1 25 10
M  V30 27 2 25 14
M  V30 28 1 23 17
M  V30 29 1 1 26
M  V30 30 1 1 27
M  V30 31 1 1 28
M  V30 32 1 4 29
M  V30 33 1 5 30
M  V30 34 1 8 31
M  V30 35 1 11 32
M  V30 36 1 12 33
M  V30 37 1 15 34
M  V30 38 1 17 35
M  V30 39 1 18 36
M  V30 40 1 18 37
M  V30 41 1 20 38
M  V30 42 1 20 39
M  V30 43 1 21 40
M  V30 44 1 21 41
M  V30 45 1 22 42
M  V30 46 1 23 43
M  V30 47 1 23 44
M  V30 48 1 24 45
M  V30 END BOND
M  V30 END CTAB
M  END
>  <Dataset>  (311) 
ChEMBL_Kinases

>  <Ligand_Instance>  (311) 
nan

>  <PDB_ID>  (311) 
nan

>  <Standardized_SMILES>  (311) 
COc1ccc(F)cc1-c1ccnc2[nH]c(C3CN(CCO)C3)cc12

>  <Name>  (311) 
nan

>  <Pocket>  (311) 
nan

>  <ATP_Site>  (311) 
nan

>  <Peripheral>  (311) 
nan

>  <Num_H_Atoms_ProtBoundConf>  (311) 
nan

>  <Num_Resolved_Atoms>  (311) 
nan

>  <Num_Not_Resolved_Atoms>  (311) 
nan

$$$$
CHEMBL3668444
     RDKit          3D

  0  0  0  0  0  0  0  0  0  0999 V3000
M  V30 BEGIN CTAB
M  V30 COUNTS 74 78 0 0 0
M  V30 BEGIN ATOM
M  V30 1 C 3.589377 -1.423244 4.466705 0
M  V30 2 N 4.232072 -0.936801 3.303667 0
M  V30 3 C 4.899291 0.316389 3.394472 0
M  V30 4 C 4.997994 0.917687 1.992016 0
M  V30 5 C 4.418537 -0.058600 1.026709 0
M  V30 6 C 4.276902 0.419208 -0.346417 0
M  V30 7 C 3.128387 0.275557 -1.087993 0
M  V30 8 C 3.262300 0.839415 -2.364173 0
M  V30 9 C 2.407866 0.959699 -3.469209 0
M  V30 10 C 1.087415 0.332776 -3.229333 0
M  V30 11 N 0.495964 0.684814 -2.094161 0
M  V30 12 C -0.692983 0.224214 -1.669598 0
M  V30 13 N -1.283021 0.588184 -0.434923 0
M  V30 14 C -2.457950 0.443286 0.333148 0
M  V30 15 C -3.633643 1.292663 0.046387 0
M  V30 16 C -4.267017 1.230946 -1.288784 0
M  V30 17 C -5.650147 0.608736 -0.974148 0
M  V30 18 N -5.265382 -0.283387 0.130248 0
M  V30 19 C -5.328105 -1.678904 0.343822 0
M  V30 20 O -5.815080 -2.388729 -0.568432 0
M  V30 21 O -4.845173 -2.145387 1.540843 0
M  V30 22 C -4.850217 -3.543451 1.862992 0
M  V30 23 C -4.034659 -4.329037 0.870386 0
M  V30 24 C -4.259196 -3.634846 3.251602 0
M  V30 25 C -6.243955 -4.106022 1.911530 0
M  V30 26 C -4.746117 0.779659 1.013240 0
M  V30 27 C -1.261892 -0.677550 -2.551864 0
M  V30 28 C -0.741541 -1.110528 -3.748567 0
M  V30 29 C 0.481639 -0.565429 -4.070756 0
M  V30 30 Cl 1.307815 -0.990136 -5.552005 0
M  V30 31 C 2.878540 1.598280 -4.594802 0
M  V30 32 C 4.169836 2.078814 -4.555816 0
M  V30 33 N 4.959902 1.951006 -3.495562 0
M  V30 34 C 4.554800 1.330237 -2.350978 0
M  V30 35 N 5.128056 1.069031 -1.152873 0
M  V30 36 C 5.272666 -1.330525 1.134694 0
M  V30 37 C 5.005646 -1.866434 2.550334 0
M  V30 38 H 3.377012 -0.595155 5.182000 0
M  V30 39 H 2.562437 -1.771910 4.147564 0
M  V30 40 H 4.064779 -2.281380 4.950499 0
M  V30 41 H 4.406215 1.036931 4.085432 0
M  V30 42 H 5.922294 0.145138 3.800202 0
M  V30 43 H 4.556254 1.921863 1.948383 0
M  V30 44 H 6.090502 1.005755 1.732521 0
M  V30 45 H 3.425990 -0.400491 1.455571 0
M  V30 46 H 2.217156 -0.222328 -0.717070 0
M  V30 47 H -0.597735 1.199997 0.119809 0
M  V30 48 H -2.725515 -0.666580 0.271494 0
M  V30 49 H -2.237462 0.555644 1.427203 0
M  V30 50 H -3.389879 2.331069 0.381270 0
M  V30 51 H -3.779352 0.505032 -1.930644 0
M  V30 52 H -4.422080 2.219991 -1.768572 0
M  V30 53 H -6.069155 0.080015 -1.830192 0
M  V30 54 H -6.282216 1.434814 -0.589237 0
M  V30 55 H -3.606562 -3.712408 0.050264 0
M  V30 56 H -4.655820 -5.111847 0.398817 0
M  V30 57 H -3.167952 -4.781361 1.431692 0
M  V30 58 H -4.768457 -4.432985 3.852394 0
M  V30 59 H -4.257294 -2.699744 3.814229 0
M  V30 60 H -3.185122 -3.942671 3.170590 0
M  V30 61 H -6.144802 -5.206862 1.710108 0
M  V30 62 H -6.836055 -3.719526 1.058546 0
M  V30 63 H -6.727165 -4.007311 2.888433 0
M  V30 64 H -5.479994 1.592074 1.152709 0
M  V30 65 H -4.291925 0.385199 1.926751 0
M  V30 66 H -2.215701 -1.146283 -2.336294 0
M  V30 67 H -1.218725 -1.817348 -4.409016 0
M  V30 68 H 2.143655 1.636989 -5.385289 0
M  V30 69 H 4.480629 2.577096 -5.483513 0
M  V30 70 H 6.101708 1.335814 -0.891219 0
M  V30 71 H 4.887439 -2.113505 0.425611 0
M  V30 72 H 6.344586 -1.130801 1.000750 0
M  V30 73 H 4.556102 -2.887769 2.512695 0
M  V30 74 H 5.979498 -2.001956 3.064575 0
M  V30 END ATOM
M  V30 BEGIN BOND
M  V30 1 1 1 2
M  V30 2 1 2 3
M  V30 3 1 3 4
M  V30 4 1 4 5
M  V30 5 1 5 6
M  V30 6 2 6 7
M  V30 7 1 7 8
M  V30 8 2 8 9
M  V30 9 1 9 10
M  V30 10 2 10 11
M  V30 11 1 11 12
M  V30 12 1 12 13
M  V30 13 1 13 14
M  V30 14 1 14 15
M  V30 15 1 15 16
M  V30 16 1 16 17
M  V30 17 1 17 18
M  V30 18 1 18 19
M  V30 19 2 19 20
M  V30 20 1 19 21
M  V30 21 1 21 22
M  V30 22 1 22 23
M  V30 23 1 22 24
M  V30 24 1 22 25
M  V30 25 1 18 26
M  V30 26 2 12 27
M  V30 27 1 27 28
M  V30 28 2 28 29
M  V30 29 1 29 30
M  V30 30 1 9 31
M  V30 31 2 31 32
M  V30 32 1 32 33
M  V30 33 2 33 34
M  V30 34 1 34 35
M  V30 35 1 5 36
M  V30 36 1 36 37
M  V30 37 1 37 2
M  V30 38 1 35 6
M  V30 39 1 34 8
M  V30 40 1 29 10
M  V30 41 1 26 15
M  V30 42 1 1 38
M  V30 43 1 1 39
M  V30 44 1 1 40
M  V30 45 1 3 41
M  V30 46 1 3 42
M  V30 47 1 4 43
M  V30 48 1 4 44
M  V30 49 1 5 45
M  V30 50 1 7 46
M  V30 51 1 13 47
M  V30 52 1 14 48
M  V30 53 1 14 49
M  V30 54 1 15 50
M  V30 55 1 16 51
M  V30 56 1 16 52
M  V30 57 1 17 53
M  V30 58 1 17 54
M  V30 59 1 23 55
M  V30 60 1 23 56
M  V30 61 1 23 57
M  V30 62 1 24 58
M  V30 63 1 24 59
M  V30 64 1 24 60
M  V30 65 1 25 61
M  V30 66 1 25 62
M  V30 67 1 25 63
M  V30 68 1 26 64
M  V30 69 1 26 65
M  V30 70 1 27 66
M  V30 71 1 28 67
M  V30 72 1 31 68
M  V30 73 1 32 69
M  V30 74 1 35 70
M  V30 75 1 36 71
M  V30 76 1 36 72
M  V30 77 1 37 73
M  V30 78 1 37 74
M  V30 END BOND
M  V30 END CTAB
M  END
>  <Dataset>  (312) 
ChEMBL_Kinases

>  <Ligand_Instance>  (312) 
nan

>  <PDB_ID>  (312) 
nan

>  <Standardized_SMILES>  (312) 
CN1CCC(c2cc3c(-c4nc(NCC5CCN(C(=O)OC(C)(C)C)C5)ccc4Cl)ccnc3[nH]2)CC1

>  <Name>  (312) 
nan

>  <Pocket>  (312) 
nan

>  <ATP_Site>  (312) 
nan

>  <Peripheral>  (312) 
nan

>  <Num_H_Atoms_ProtBoundConf>  (312) 
nan

>  <Num_Resolved_Atoms>  (312) 
nan

>  <Num_Not_Resolved_Atoms>  (312) 
nan

$$$$
CHEMBL3668436
     RDKit          3D

  0  0  0  0  0  0  0  0  0  0999 V3000
M  V30 BEGIN CTAB
M  V30 COUNTS 62 66 0 0 0
M  V30 BEGIN ATOM
M  V30 1 C -0.193499 1.325933 5.289500 0
M  V30 2 N 0.263269 0.297492 4.421986 0
M  V30 3 C 1.645811 0.274820 4.111780 0
M  V30 4 C 2.342986 -1.034045 4.225036 0
M  V30 5 C 1.604488 -2.197165 3.671613 0
M  V30 6 C 1.990474 -2.513496 2.261282 0
M  V30 7 C 1.808090 -1.682650 1.149977 0
M  V30 8 C 2.277495 -2.298443 0.012034 0
M  V30 9 C 2.329923 -1.917676 -1.312250 0
M  V30 10 C 1.824170 -0.613681 -1.722130 0
M  V30 11 N 0.620116 -0.089469 -1.434810 0
M  V30 12 C 0.243829 1.125383 -1.868007 0
M  V30 13 N -1.038062 1.600319 -1.510223 0
M  V30 14 C -2.403704 1.571764 -1.951257 0
M  V30 15 C -2.961992 0.164623 -1.993061 0
M  V30 16 C -2.920612 -0.483225 -0.621252 0
M  V30 17 C -4.288332 -0.913892 -0.151286 0
M  V30 18 N -4.958086 -1.753737 -1.113512 0
M  V30 19 C -4.897312 -1.240082 -2.458283 0
M  V30 20 C -4.403062 0.184501 -2.426848 0
M  V30 21 C 1.085793 1.922662 -2.648813 0
M  V30 22 C 2.349352 1.417722 -2.972552 0
M  V30 23 C 2.658936 0.163028 -2.488608 0
M  V30 24 Cl 4.261262 -0.391735 -2.941707 0
M  V30 25 C 2.884461 -2.828475 -2.187249 0
M  V30 26 C 3.370815 -4.073535 -1.769960 0
M  V30 27 N 3.274299 -4.345479 -0.471830 0
M  V30 28 C 2.750283 -3.518642 0.443628 0
M  V30 29 N 2.570886 -3.622419 1.771438 0
M  V30 30 C 0.114036 -2.025424 3.699507 0
M  V30 31 C -0.376119 -0.955753 4.626143 0
M  V30 32 H 0.001409 1.185101 6.359117 0
M  V30 33 H -1.305425 1.425822 5.152044 0
M  V30 34 H 0.212435 2.312064 4.966450 0
M  V30 35 H 1.768905 0.646042 3.062231 0
M  V30 36 H 2.229886 1.016454 4.719852 0
M  V30 37 H 2.625858 -1.210813 5.303199 0
M  V30 38 H 3.344807 -0.904170 3.720974 0
M  V30 39 H 1.928348 -3.095438 4.277931 0
M  V30 40 H 1.368467 -0.693296 1.118081 0
M  V30 41 H -0.771998 2.112138 -0.648793 0
M  V30 42 H -3.028297 2.224824 -1.347536 0
M  V30 43 H -2.414826 1.943130 -3.004364 0
M  V30 44 H -2.374879 -0.425669 -2.704252 0
M  V30 45 H -2.576084 0.284191 0.121639 0
M  V30 46 H -2.244044 -1.351429 -0.573020 0
M  V30 47 H -4.938442 -0.076729 0.135263 0
M  V30 48 H -4.122713 -1.512012 0.771492 0
M  V30 49 H -4.582329 -2.727435 -1.070388 0
M  V30 50 H -5.914707 -1.262061 -2.935809 0
M  V30 51 H -4.195291 -1.825749 -3.095751 0
M  V30 52 H -4.491734 0.662063 -3.419509 0
M  V30 53 H -5.024169 0.779364 -1.716425 0
M  V30 54 H 0.784334 2.916261 -3.006635 0
M  V30 55 H 2.988313 2.027706 -3.568625 0
M  V30 56 H 2.949744 -2.574191 -3.247219 0
M  V30 57 H 3.796818 -4.751551 -2.513591 0
M  V30 58 H 2.844506 -4.448659 2.338999 0
M  V30 59 H -0.316454 -2.991688 4.099572 0
M  V30 60 H -0.321027 -1.927757 2.680882 0
M  V30 61 H -1.466788 -0.820561 4.373665 0
M  V30 62 H -0.385802 -1.307413 5.693944 0
M  V30 END ATOM
M  V30 BEGIN BOND
M  V30 1 1 1 2
M  V30 2 1 2 3
M  V30 3 1 3 4
M  V30 4 1 4 5
M  V30 5 1 5 6
M  V30 6 2 6 7
M  V30 7 1 7 8
M  V30 8 2 8 9
M  V30 9 1 9 10
M  V30 10 2 10 11
M  V30 11 1 11 12
M  V30 12 1 12 13
M  V30 13 1 13 14
M  V30 14 1 14 15
M  V30 15 1 15 16
M  V30 16 1 16 17
M  V30 17 1 17 18
M  V30 18 1 18 19
M  V30 19 1 19 20
M  V30 20 2 12 21
M  V30 21 1 21 22
M  V30 22 2 22 23
M  V30 23 1 23 24
M  V30 24 1 9 25
M  V30 25 2 25 26
M  V30 26 1 26 27
M  V30 27 2 27 28
M  V30 28 1 28 29
M  V30 29 1 5 30
M  V30 30 1 30 31
M  V30 31 1 31 2
M  V30 32 1 29 6
M  V30 33 1 28 8
M  V30 34 1 23 10
M  V30 35 1 20 15
M  V30 36 1 1 32
M  V30 37 1 1 33
M  V30 38 1 1 34
M  V30 39 1 3 35
M  V30 40 1 3 36
M  V30 41 1 4 37
M  V30 42 1 4 38
M  V30 43 1 5 39
M  V30 44 1 7 40
M  V30 45 1 13 41
M  V30 46 1 14 42
M  V30 47 1 14 43
M  V30 48 1 15 44
M  V30 49 1 16 45
M  V30 50 1 16 46
M  V30 51 1 17 47
M  V30 52 1 17 48
M  V30 53 1 18 49
M  V30 54 1 19 50
M  V30 55 1 19 51
M  V30 56 1 20 52
M  V30 57 1 20 53
M  V30 58 1 21 54
M  V30 59 1 22 55
M  V30 60 1 25 56
M  V30 61 1 26 57
M  V30 62 1 29 58
M  V30 63 1 30 59
M  V30 64 1 30 60
M  V30 65 1 31 61
M  V30 66 1 31 62
M  V30 END BOND
M  V30 END CTAB
M  END
>  <Dataset>  (313) 
ChEMBL_Kinases

>  <Ligand_Instance>  (313) 
nan

>  <PDB_ID>  (313) 
nan

>  <Standardized_SMILES>  (313) 
CN1CCC(c2cc3c(-c4nc(NCC5CCNCC5)ccc4Cl)ccnc3[nH]2)CC1

>  <Name>  (313) 
nan

>  <Pocket>  (313) 
nan

>  <ATP_Site>  (313) 
nan

>  <Peripheral>  (313) 
nan

>  <Num_H_Atoms_ProtBoundConf>  (313) 
nan

>  <Num_Resolved_Atoms>  (313) 
nan

>  <Num_Not_Resolved_Atoms>  (313) 
nan

$$$$
CHEMBL3668361
     RDKit          3D

  0  0  0  0  0  0  0  0  0  0999 V3000
M  V30 BEGIN CTAB
M  V30 COUNTS 42 45 0 0 0
M  V30 BEGIN ATOM
M  V30 1 C -1.773137 -4.126690 -0.590675 0
M  V30 2 O -0.865612 -3.099681 -0.955651 0
M  V30 3 C 0.504950 -3.276984 -0.991615 0
M  V30 4 C 1.228153 -4.403514 -0.702648 0
M  V30 5 C 2.596716 -4.439337 -0.780657 0
M  V30 6 C 3.226945 -3.284079 -1.165896 0
M  V30 7 F 4.595068 -3.349984 -1.234922 0
M  V30 8 C 2.557399 -2.116929 -1.470450 0
M  V30 9 C 1.171151 -2.109583 -1.382806 0
M  V30 10 C 0.560277 -0.827500 -1.725433 0
M  V30 11 C 0.162811 -0.465680 -2.996988 0
M  V30 12 C -0.407235 0.799310 -3.164440 0
M  V30 13 N -0.563917 1.636044 -2.124844 0
M  V30 14 C -0.195739 1.336283 -0.868410 0
M  V30 15 N -0.230573 1.956002 0.325491 0
M  V30 16 C 0.290199 1.162196 1.281747 0
M  V30 17 C 0.453020 1.427645 2.720957 0
M  V30 18 C 0.991572 0.529540 3.538454 0
M  V30 19 C 1.082273 0.960804 4.969279 0
M  V30 20 N -0.303639 1.322883 5.308045 0
M  V30 21 C -0.735334 2.499929 4.602583 0
M  V30 22 C 0.016331 2.722046 3.314914 0
M  V30 23 C 0.669876 -0.004232 0.674281 0
M  V30 24 C 0.377239 0.076783 -0.673459 0
M  V30 25 H -1.943597 -4.030816 0.515097 0
M  V30 26 H -2.712479 -3.956339 -1.153787 0
M  V30 27 H -1.377837 -5.137283 -0.781915 0
M  V30 28 H 0.629216 -5.257337 -0.409299 0
M  V30 29 H 3.134814 -5.339958 -0.547036 0
M  V30 30 H 3.139748 -1.237239 -1.770438 0
M  V30 31 H 0.313913 -1.181373 -3.797011 0
M  V30 32 H -0.714065 1.065963 -4.174140 0
M  V30 33 H -0.613143 2.930746 0.492314 0
M  V30 34 H 1.323567 -0.423894 3.154884 0
M  V30 35 H 1.795893 1.761778 5.149967 0
M  V30 36 H 1.290758 0.041629 5.587514 0
M  V30 37 H -0.869013 0.517218 4.957797 0
M  V30 38 H -1.805516 2.379007 4.350088 0
M  V30 39 H -0.615062 3.369308 5.280813 0
M  V30 40 H 0.937384 3.329487 3.512299 0
M  V30 41 H -0.586986 3.310063 2.586399 0
M  V30 42 H 1.128502 -0.858776 1.171314 0
M  V30 END ATOM
M  V30 BEGIN BOND
M  V30 1 1 1 2
M  V30 2 1 2 3
M  V30 3 2 3 4
M  V30 4 1 4 5
M  V30 5 2 5 6
M  V30 6 1 6 7
M  V30 7 1 6 8
M  V30 8 2 8 9
M  V30 9 1 9 10
M  V30 10 2 10 11
M  V30 11 1 11 12
M  V30 12 2 12 13
M  V30 13 1 13 14
M  V30 14 1 14 15
M  V30 15 1 15 16
M  V30 16 1 16 17
M  V30 17 2 17 18
M  V30 18 1 18 19
M  V30 19 1 19 20
M  V30 20 1 20 21
M  V30 21 1 21 22
M  V30 22 2 16 23
M  V30 23 1 23 24
M  V30 24 1 9 3
M  V30 25 1 24 10
M  V30 26 2 24 14
M  V30 27 1 22 17
M  V30 28 1 1 25
M  V30 29 1 1 26
M  V30 30 1 1 27
M  V30 31 1 4 28
M  V30 32 1 5 29
M  V30 33 1 8 30
M  V30 34 1 11 31
M  V30 35 1 12 32
M  V30 36 1 15 33
M  V30 37 1 18 34
M  V30 38 1 19 35
M  V30 39 1 19 36
M  V30 40 1 20 37
M  V30 41 1 21 38
M  V30 42 1 21 39
M  V30 43 1 22 40
M  V30 44 1 22 41
M  V30 45 1 23 42
M  V30 END BOND
M  V30 END CTAB
M  END
>  <Dataset>  (314) 
ChEMBL_Kinases

>  <Ligand_Instance>  (314) 
nan

>  <PDB_ID>  (314) 
nan

>  <Standardized_SMILES>  (314) 
COc1ccc(F)cc1-c1ccnc2[nH]c(C3=CCNCC3)cc12

>  <Name>  (314) 
nan

>  <Pocket>  (314) 
nan

>  <ATP_Site>  (314) 
nan

>  <Peripheral>  (314) 
nan

>  <Num_H_Atoms_ProtBoundConf>  (314) 
nan

>  <Num_Resolved_Atoms>  (314) 
nan

>  <Num_Not_Resolved_Atoms>  (314) 
nan

$$$$
CHEMBL3668360
     RDKit          3D

  0  0  0  0  0  0  0  0  0  0999 V3000
M  V30 BEGIN CTAB
M  V30 COUNTS 57 61 0 0 0
M  V30 BEGIN ATOM
M  V30 1 N 1.359763 -1.724890 3.031180 0
M  V30 2 C 2.745123 -2.021047 3.337649 0
M  V30 3 C 3.524175 -0.823478 3.768077 0
M  V30 4 C 3.808615 0.028602 2.564629 0
M  V30 5 C 4.557193 -0.695277 1.483883 0
M  V30 6 C 3.990590 -2.019358 1.126793 0
M  V30 7 C 3.082160 -1.947416 -0.073167 0
M  V30 8 C 2.006143 -1.130394 -0.245919 0
M  V30 9 C 1.371561 -1.313428 -1.456126 0
M  V30 10 C 0.274057 -0.741422 -2.062196 0
M  V30 11 C -0.463588 0.314331 -1.388711 0
M  V30 12 C 0.022310 1.556827 -1.752191 0
M  V30 13 C -0.520316 2.736200 -1.250103 0
M  V30 14 C -1.588762 2.619331 -0.353101 0
M  V30 15 C -2.062155 1.348732 -0.000604 0
M  V30 16 N -3.146089 1.273829 0.904260 0
M  V30 17 C -4.577003 1.136410 0.946980 0
M  V30 18 C -5.083911 -0.136436 0.433121 0
M  V30 19 C -5.195491 -1.144182 1.396565 0
M  V30 20 C -5.640595 -2.413985 1.164039 0
M  V30 21 C -6.004080 -2.706207 -0.129622 0
M  V30 22 C -5.924119 -1.771591 -1.136333 0
M  V30 23 C -5.462963 -0.474007 -0.867593 0
M  V30 24 N -1.506197 0.235328 -0.511143 0
M  V30 25 C -0.077799 -1.198237 -3.317980 0
M  V30 26 Cl -1.471439 -0.475743 -4.093392 0
M  V30 27 C 0.681316 -2.200703 -3.905872 0
M  V30 28 N 1.759940 -2.742508 -3.277706 0
M  V30 29 C 2.113528 -2.307960 -2.055937 0
M  V30 30 N 3.106584 -2.656593 -1.221136 0
M  V30 31 C 3.378411 -2.791221 2.238473 0
M  V30 32 H 1.077322 -2.310664 2.221588 0
M  V30 33 H 1.208517 -0.732243 2.778843 0
M  V30 34 H 2.713506 -2.704366 4.233029 0
M  V30 35 H 2.960894 -0.231538 4.500205 0
M  V30 36 H 4.493387 -1.170582 4.178011 0
M  V30 37 H 4.513397 0.831644 2.933128 0
M  V30 38 H 2.925502 0.588669 2.209466 0
M  V30 39 H 5.600772 -0.821185 1.828158 0
M  V30 40 H 4.606894 -0.024526 0.611083 0
M  V30 41 H 4.844110 -2.660237 0.746257 0
M  V30 42 H 1.612580 -0.373911 0.452111 0
M  V30 43 H 0.841377 1.772906 -2.435482 0
M  V30 44 H -0.179436 3.731185 -1.499608 0
M  V30 45 H -2.042610 3.509955 0.063143 0
M  V30 46 H -2.578047 1.357593 1.800407 0
M  V30 47 H -4.902914 1.290995 1.968596 0
M  V30 48 H -5.087866 1.941488 0.343825 0
M  V30 49 H -4.920961 -0.969949 2.447647 0
M  V30 50 H -5.716247 -3.172207 1.927918 0
M  V30 51 H -6.365662 -3.707317 -0.364770 0
M  V30 52 H -6.199356 -1.951184 -2.174046 0
M  V30 53 H -5.355119 0.344130 -1.565479 0
M  V30 54 H 0.350161 -2.512692 -4.891335 0
M  V30 55 H 3.833126 -3.403764 -1.434970 0
M  V30 56 H 4.156162 -3.459445 2.691548 0
M  V30 57 H 2.615560 -3.490011 1.825002 0
M  V30 END ATOM
M  V30 BEGIN BOND
M  V30 1 1 1 2
M  V30 2 1 2 3
M  V30 3 1 3 4
M  V30 4 1 4 5
M  V30 5 1 5 6
M  V30 6 1 6 7
M  V30 7 2 7 8
M  V30 8 1 8 9
M  V30 9 2 9 10
M  V30 10 1 10 11
M  V30 11 2 11 12
M  V30 12 1 12 13
M  V30 13 2 13 14
M  V30 14 1 14 15
M  V30 15 1 15 16
M  V30 16 1 16 17
M  V30 17 1 17 18
M  V30 18 2 18 19
M  V30 19 1 19 20
M  V30 20 2 20 21
M  V30 21 1 21 22
M  V30 22 2 22 23
M  V30 23 2 15 24
M  V30 24 1 10 25
M  V30 25 1 25 26
M  V30 26 2 25 27
M  V30 27 1 27 28
M  V30 28 2 28 29
M  V30 29 1 29 30
M  V30 30 1 6 31
M  V30 31 1 31 2
M  V30 32 1 30 7
M  V30 33 1 29 9
M  V30 34 1 24 11
M  V30 35 1 23 18
M  V30 36 1 1 32
M  V30 37 1 1 33
M  V30 38 1 2 34
M  V30 39 1 3 35
M  V30 40 1 3 36
M  V30 41 1 4 37
M  V30 42 1 4 38
M  V30 43 1 5 39
M  V30 44 1 5 40
M  V30 45 1 6 41
M  V30 46 1 8 42
M  V30 47 1 12 43
M  V30 48 1 13 44
M  V30 49 1 14 45
M  V30 50 1 16 46
M  V30 51 1 17 47
M  V30 52 1 17 48
M  V30 53 1 19 49
M  V30 54 1 20 50
M  V30 55 1 21 51
M  V30 56 1 22 52
M  V30 57 1 23 53
M  V30 58 1 27 54
M  V30 59 1 30 55
M  V30 60 1 31 56
M  V30 61 1 31 57
M  V30 END BOND
M  V30 END CTAB
M  END
>  <Dataset>  (315) 
ChEMBL_Kinases

>  <Ligand_Instance>  (315) 
nan

>  <PDB_ID>  (315) 
nan

>  <Standardized_SMILES>  (315) 
NC1CCCC(c2cc3c(-c4cccc(NCc5ccccc5)n4)c(Cl)cnc3[nH]2)C1

>  <Name>  (315) 
nan

>  <Pocket>  (315) 
nan

>  <ATP_Site>  (315) 
nan

>  <Peripheral>  (315) 
nan

>  <Num_H_Atoms_ProtBoundConf>  (315) 
nan

>  <Num_Resolved_Atoms>  (315) 
nan

>  <Num_Not_Resolved_Atoms>  (315) 
nan

$$$$
CHEMBL3668359
     RDKit          3D

  0  0  0  0  0  0  0  0  0  0999 V3000
M  V30 BEGIN CTAB
M  V30 COUNTS 43 46 0 0 0
M  V30 BEGIN ATOM
M  V30 1 N 0.449293 -5.276966 1.399127 0
M  V30 2 C 0.856207 -4.482710 2.569496 0
M  V30 3 C -0.370905 -4.342524 3.419277 0
M  V30 4 C -1.177904 -3.112488 3.079029 0
M  V30 5 C -0.298531 -1.927633 3.376118 0
M  V30 6 C 0.826545 -1.946019 2.370244 0
M  V30 7 C 0.422579 -1.312180 1.064020 0
M  V30 8 C 0.699099 0.021481 0.740101 0
M  V30 9 C 0.214492 0.325116 -0.540003 0
M  V30 10 C 0.224704 1.467042 -1.316342 0
M  V30 11 C 0.840452 2.694355 -0.817611 0
M  V30 12 C 2.141637 3.109119 -0.955444 0
M  V30 13 C 2.546391 4.313753 -0.410187 0
M  V30 14 C 1.645572 5.102013 0.273294 0
M  V30 15 C 0.319988 4.698390 0.424085 0
M  V30 16 F -0.541947 5.495762 1.101723 0
M  V30 17 C -0.062133 3.497439 -0.125525 0
M  V30 18 C -0.357646 1.424697 -2.569890 0
M  V30 19 Cl -0.381176 2.839841 -3.611140 0
M  V30 20 C -0.921139 0.220028 -2.968860 0
M  V30 21 N -0.912195 -0.875294 -2.182916 0
M  V30 22 C -0.353252 -0.858299 -0.963134 0
M  V30 23 N -0.209709 -1.781290 -0.001441 0
M  V30 24 C 1.523900 -3.224725 2.194538 0
M  V30 25 H 0.707704 -6.269781 1.471923 0
M  V30 26 H -0.521931 -5.087653 1.119858 0
M  V30 27 H 1.569662 -5.124046 3.128920 0
M  V30 28 H -1.007497 -5.223443 3.302597 0
M  V30 29 H -0.084443 -4.260050 4.488972 0
M  V30 30 H -1.466337 -3.147344 2.013428 0
M  V30 31 H -2.067811 -3.140719 3.750983 0
M  V30 32 H 0.158638 -2.019998 4.382352 0
M  V30 33 H -0.868329 -0.985372 3.257009 0
M  V30 34 H 1.564309 -1.176161 2.788683 0
M  V30 35 H 1.204305 0.800046 1.308691 0
M  V30 36 H 2.771630 2.419682 -1.509012 0
M  V30 37 H 3.599742 4.565076 -0.567969 0
M  V30 38 H 2.031267 6.025006 0.670024 0
M  V30 39 H -1.121728 3.247376 0.034607 0
M  V30 40 H -1.390589 0.127107 -3.938781 0
M  V30 41 H -0.559877 -2.735159 -0.117986 0
M  V30 42 H 2.551478 -3.153715 2.662551 0
M  V30 43 H 1.780452 -3.309142 1.093384 0
M  V30 END ATOM
M  V30 BEGIN BOND
M  V30 1 1 1 2
M  V30 2 1 2 3
M  V30 3 1 3 4
M  V30 4 1 4 5
M  V30 5 1 5 6
M  V30 6 1 6 7
M  V30 7 2 7 8
M  V30 8 1 8 9
M  V30 9 2 9 10
M  V30 10 1 10 11
M  V30 11 2 11 12
M  V30 12 1 12 13
M  V30 13 2 13 14
M  V30 14 1 14 15
M  V30 15 1 15 16
M  V30 16 2 15 17
M  V30 17 1 10 18
M  V30 18 1 18 19
M  V30 19 2 18 20
M  V30 20 1 20 21
M  V30 21 2 21 22
M  V30 22 1 22 23
M  V30 23 1 6 24
M  V30 24 1 24 2
M  V30 25 1 23 7
M  V30 26 1 22 9
M  V30 27 1 17 11
M  V30 28 1 1 25
M  V30 29 1 1 26
M  V30 30 1 2 27
M  V30 31 1 3 28
M  V30 32 1 3 29
M  V30 33 1 4 30
M  V30 34 1 4 31
M  V30 35 1 5 32
M  V30 36 1 5 33
M  V30 37 1 6 34
M  V30 38 1 8 35
M  V30 39 1 12 36
M  V30 40 1 13 37
M  V30 41 1 14 38
M  V30 42 1 17 39
M  V30 43 1 20 40
M  V30 44 1 23 41
M  V30 45 1 24 42
M  V30 46 1 24 43
M  V30 END BOND
M  V30 END CTAB
M  END
>  <Dataset>  (316) 
ChEMBL_Kinases

>  <Ligand_Instance>  (316) 
nan

>  <PDB_ID>  (316) 
nan

>  <Standardized_SMILES>  (316) 
NC1CCCC(c2cc3c(-c4cccc(F)c4)c(Cl)cnc3[nH]2)C1

>  <Name>  (316) 
nan

>  <Pocket>  (316) 
nan

>  <ATP_Site>  (316) 
nan

>  <Peripheral>  (316) 
nan

>  <Num_H_Atoms_ProtBoundConf>  (316) 
nan

>  <Num_Resolved_Atoms>  (316) 
nan

>  <Num_Not_Resolved_Atoms>  (316) 
nan

$$$$
CHEMBL3668358
     RDKit          3D

  0  0  0  0  0  0  0  0  0  0999 V3000
M  V30 BEGIN CTAB
M  V30 COUNTS 66 70 0 0 0
M  V30 BEGIN ATOM
M  V30 1 C 1.065256 -0.645653 3.918712 0
M  V30 2 C 2.536881 -0.829128 3.724303 0
M  V30 3 C 2.886366 -2.204166 3.176298 0
M  V30 4 S 3.253497 0.484258 2.805143 0
M  V30 5 O 3.210449 1.763192 3.573800 0
M  V30 6 O 4.726448 0.128263 2.584368 0
M  V30 7 N 2.557797 0.721196 1.247966 0
M  V30 8 C 2.747127 -0.435172 0.468603 0
M  V30 9 C 2.885397 -0.242914 -1.012405 0
M  V30 10 C 3.487299 1.047105 -1.417781 0
M  V30 11 C 2.840942 2.227850 -0.692919 0
M  V30 12 C 1.455697 2.419272 -1.134777 0
M  V30 13 C 0.329940 1.687539 -0.794543 0
M  V30 14 C -0.728951 2.261775 -1.492701 0
M  V30 15 C -2.067059 1.931414 -1.532163 0
M  V30 16 C -2.639820 0.835874 -0.756376 0
M  V30 17 C -3.333840 0.961241 0.420559 0
M  V30 18 C -3.830772 -0.182210 1.023335 0
M  V30 19 C -3.691190 -1.463915 0.540520 0
M  V30 20 C -2.966928 -1.508626 -0.670740 0
M  V30 21 N -2.699468 -2.732316 -1.348128 0
M  V30 22 C -1.777549 -3.779051 -0.935498 0
M  V30 23 C -2.204050 -4.446896 0.294972 0
M  V30 24 C -3.042785 -5.548218 0.070385 0
M  V30 25 C -3.533403 -6.268364 1.135125 0
M  V30 26 C -3.238284 -5.956955 2.421432 0
M  V30 27 C -2.401308 -4.863624 2.706807 0
M  V30 28 C -1.903834 -4.134256 1.630410 0
M  V30 29 N -2.494930 -0.408732 -1.239883 0
M  V30 30 C -2.958591 2.631951 -2.304612 0
M  V30 31 Cl -4.675332 2.320176 -2.434071 0
M  V30 32 C -2.447687 3.689597 -3.045525 0
M  V30 33 N -1.132915 4.022656 -3.013148 0
M  V30 34 C -0.272804 3.322663 -2.247027 0
M  V30 35 N 1.037753 3.381766 -2.002650 0
M  V30 36 C 3.020533 1.970090 0.758985 0
M  V30 37 H 0.537153 -1.539758 3.522022 0
M  V30 38 H 0.718703 0.292416 3.424819 0
M  V30 39 H 0.818205 -0.506466 5.000194 0
M  V30 40 H 3.061241 -0.815005 4.735708 0
M  V30 41 H 2.732361 -2.919482 4.027978 0
M  V30 42 H 3.952039 -2.209804 2.888629 0
M  V30 43 H 2.230573 -2.537753 2.375871 0
M  V30 44 H 1.802998 -1.044473 0.586752 0
M  V30 45 H 3.553275 -1.093166 0.841889 0
M  V30 46 H 3.506368 -1.073064 -1.408265 0
M  V30 47 H 1.898815 -0.333168 -1.541777 0
M  V30 48 H 3.291608 1.211258 -2.499840 0
M  V30 49 H 4.587956 1.129413 -1.260548 0
M  V30 50 H 3.450049 3.119219 -0.973934 0
M  V30 51 H 0.252208 0.857525 -0.141053 0
M  V30 52 H -3.464405 1.940094 0.826461 0
M  V30 53 H -4.387552 -0.108917 1.955942 0
M  V30 54 H -4.071710 -2.362664 0.990594 0
M  V30 55 H -3.300258 -2.754238 -2.223810 0
M  V30 56 H -1.732266 -4.502565 -1.764170 0
M  V30 57 H -0.743142 -3.401935 -0.816981 0
M  V30 58 H -3.340950 -5.884710 -0.920824 0
M  V30 59 H -4.187953 -7.126321 0.945335 0
M  V30 60 H -3.600474 -6.493534 3.312848 0
M  V30 61 H -2.114135 -4.543503 3.694551 0
M  V30 62 H -1.246620 -3.262195 1.712594 0
M  V30 63 H -3.001444 4.346484 -3.706551 0
M  V30 64 H 1.655052 4.118971 -2.460155 0
M  V30 65 H 4.136098 2.007597 0.950669 0
M  V30 66 H 2.563106 2.757761 1.415512 0
M  V30 END ATOM
M  V30 BEGIN BOND
M  V30 1 1 1 2
M  V30 2 1 2 3
M  V30 3 1 2 4
M  V30 4 2 4 5
M  V30 5 2 4 6
M  V30 6 1 4 7
M  V30 7 1 7 8
M  V30 8 1 8 9
M  V30 9 1 9 10
M  V30 10 1 10 11
M  V30 11 1 11 12
M  V30 12 2 12 13
M  V30 13 1 13 14
M  V30 14 2 14 15
M  V30 15 1 15 16
M  V30 16 2 16 17
M  V30 17 1 17 18
M  V30 18 2 18 19
M  V30 19 1 19 20
M  V30 20 1 20 21
M  V30 21 1 21 22
M  V30 22 1 22 23
M  V30 23 2 23 24
M  V30 24 1 24 25
M  V30 25 2 25 26
M  V30 26 1 26 27
M  V30 27 2 27 28
M  V30 28 2 20 29
M  V30 29 1 15 30
M  V30 30 1 30 31
M  V30 31 2 30 32
M  V30 32 1 32 33
M  V30 33 2 33 34
M  V30 34 1 34 35
M  V30 35 1 11 36
M  V30 36 1 36 7
M  V30 37 1 35 12
M  V30 38 1 34 14
M  V30 39 1 29 16
M  V30 40 1 28 23
M  V30 41 1 1 37
M  V30 42 1 1 38
M  V30 43 1 1 39
M  V30 44 1 2 40
M  V30 45 1 3 41
M  V30 46 1 3 42
M  V30 47 1 3 43
M  V30 48 1 8 44
M  V30 49 1 8 45
M  V30 50 1 9 46
M  V30 51 1 9 47
M  V30 52 1 10 48
M  V30 53 1 10 49
M  V30 54 1 11 50
M  V30 55 1 13 51
M  V30 56 1 17 52
M  V30 57 1 18 53
M  V30 58 1 19 54
M  V30 59 1 21 55
M  V30 60 1 22 56
M  V30 61 1 22 57
M  V30 62 1 24 58
M  V30 63 1 25 59
M  V30 64 1 26 60
M  V30 65 1 27 61
M  V30 66 1 28 62
M  V30 67 1 32 63
M  V30 68 1 35 64
M  V30 69 1 36 65
M  V30 70 1 36 66
M  V30 END BOND
M  V30 END CTAB
M  END
>  <Dataset>  (317) 
ChEMBL_Kinases

>  <Ligand_Instance>  (317) 
nan

>  <PDB_ID>  (317) 
nan

>  <Standardized_SMILES>  (317) 
CC(C)S(=O)(=O)N1CCCC(c2cc3c(-c4cccc(NCc5ccccc5)n4)c(Cl)cnc3[nH]2)C1

>  <Name>  (317) 
nan

>  <Pocket>  (317) 
nan

>  <ATP_Site>  (317) 
nan

>  <Peripheral>  (317) 
nan

>  <Num_H_Atoms_ProtBoundConf>  (317) 
nan

>  <Num_Resolved_Atoms>  (317) 
nan

>  <Num_Not_Resolved_Atoms>  (317) 
nan

$$$$
CHEMBL3668357
     RDKit          3D

  0  0  0  0  0  0  0  0  0  0999 V3000
M  V30 BEGIN CTAB
M  V30 COUNTS 60 64 0 0 0
M  V30 BEGIN ATOM
M  V30 1 C 2.902781 -4.656734 4.533265 0
M  V30 2 O 2.798944 -3.534130 3.656168 0
M  V30 3 C 3.467710 -2.336543 3.943570 0
M  V30 4 O 4.217220 -1.967681 4.884869 0
M  V30 5 N 3.342865 -1.238113 3.048540 0
M  V30 6 C 4.149601 -0.159691 3.627885 0
M  V30 7 C 4.083968 1.060347 2.772649 0
M  V30 8 C 2.672609 1.509413 2.479963 0
M  V30 9 C 1.829641 0.364540 2.004508 0
M  V30 10 C 1.212003 0.693150 0.679334 0
M  V30 11 C -0.077161 0.764642 0.189057 0
M  V30 12 C 0.073509 1.128427 -1.133863 0
M  V30 13 C -0.946164 1.325137 -2.041758 0
M  V30 14 C -2.365562 1.170138 -1.709459 0
M  V30 15 C -2.998253 2.307627 -1.255094 0
M  V30 16 C -4.333628 2.158292 -0.944805 0
M  V30 17 C -5.001273 0.961151 -1.075261 0
M  V30 18 C -4.324717 -0.173150 -1.540205 0
M  V30 19 N -4.841280 -1.460222 -1.735085 0
M  V30 20 C -4.234626 -2.670154 -2.189504 0
M  V30 21 C -3.122154 -3.160124 -1.333864 0
M  V30 22 C -3.460928 -3.989810 -0.269549 0
M  V30 23 C -2.575680 -4.545944 0.627889 0
M  V30 24 C -1.229123 -4.257985 0.461940 0
M  V30 25 C -0.859787 -3.433635 -0.590224 0
M  V30 26 C -1.775736 -2.895127 -1.469132 0
M  V30 27 N -3.028115 0.008538 -1.832107 0
M  V30 28 C -0.594505 1.688579 -3.328455 0
M  V30 29 Cl -1.877840 1.947287 -4.512160 0
M  V30 30 C 0.742956 1.837018 -3.645198 0
M  V30 31 N 1.701103 1.633892 -2.724144 0
M  V30 32 C 1.410557 1.274171 -1.440721 0
M  V30 33 N 2.080980 1.000094 -0.307086 0
M  V30 34 C 2.721785 -0.843328 1.822536 0
M  V30 35 H 3.671377 -4.496744 5.329152 0
M  V30 36 H 1.922448 -4.948560 4.944952 0
M  V30 37 H 3.260217 -5.501708 3.908541 0
M  V30 38 H 3.825806 0.072355 4.657528 0
M  V30 39 H 5.210820 -0.528395 3.582733 0
M  V30 40 H 4.648100 0.887158 1.833302 0
M  V30 41 H 4.560167 1.889567 3.366478 0
M  V30 42 H 2.686448 2.290485 1.706895 0
M  V30 43 H 2.196728 1.945833 3.365853 0
M  V30 44 H 0.998146 0.134226 2.706375 0
M  V30 45 H -0.892767 0.551661 0.835877 0
M  V30 46 H -2.560426 3.292811 -1.118650 0
M  V30 47 H -4.990300 2.936157 -0.575665 0
M  V30 48 H -6.050363 0.794329 -0.844174 0
M  V30 49 H -5.866455 -1.476149 -1.484312 0
M  V30 50 H -3.899184 -2.543675 -3.243739 0
M  V30 51 H -4.990598 -3.481674 -2.234479 0
M  V30 52 H -4.502020 -4.243684 -0.099419 0
M  V30 53 H -2.908605 -5.181493 1.430941 0
M  V30 54 H -0.538062 -4.696287 1.168423 0
M  V30 55 H 0.190504 -3.204236 -0.726523 0
M  V30 56 H -1.501024 -2.264532 -2.281640 0
M  V30 57 H 0.986161 2.122380 -4.660343 0
M  V30 58 H 3.134773 1.064785 -0.363963 0
M  V30 59 H 2.145262 -1.702521 1.373923 0
M  V30 60 H 3.457825 -0.567120 1.032301 0
M  V30 END ATOM
M  V30 BEGIN BOND
M  V30 1 1 1 2
M  V30 2 1 2 3
M  V30 3 2 3 4
M  V30 4 1 3 5
M  V30 5 1 5 6
M  V30 6 1 6 7
M  V30 7 1 7 8
M  V30 8 1 8 9
M  V30 9 1 9 10
M  V30 10 2 10 11
M  V30 11 1 11 12
M  V30 12 2 12 13
M  V30 13 1 13 14
M  V30 14 2 14 15
M  V30 15 1 15 16
M  V30 16 2 16 17
M  V30 17 1 17 18
M  V30 18 1 18 19
M  V30 19 1 19 20
M  V30 20 1 20 21
M  V30 21 2 21 22
M  V30 22 1 22 23
M  V30 23 2 23 24
M  V30 24 1 24 25
M  V30 25 2 25 26
M  V30 26 2 18 27
M  V30 27 1 13 28
M  V30 28 1 28 29
M  V30 29 2 28 30
M  V30 30 1 30 31
M  V30 31 2 31 32
M  V30 32 1 32 33
M  V30 33 1 9 34
M  V30 34 1 34 5
M  V30 35 1 33 10
M  V30 36 1 32 12
M  V30 37 1 27 14
M  V30 38 1 26 21
M  V30 39 1 1 35
M  V30 40 1 1 36
M  V30 41 1 1 37
M  V30 42 1 6 38
M  V30 43 1 6 39
M  V30 44 1 7 40
M  V30 45 1 7 41
M  V30 46 1 8 42
M  V30 47 1 8 43
M  V30 48 1 9 44
M  V30 49 1 11 45
M  V30 50 1 15 46
M  V30 51 1 16 47
M  V30 52 1 17 48
M  V30 53 1 19 49
M  V30 54 1 20 50
M  V30 55 1 20 51
M  V30 56 1 22 52
M  V30 57 1 23 53
M  V30 58 1 24 54
M  V30 59 1 25 55
M  V30 60 1 26 56
M  V30 61 1 30 57
M  V30 62 1 33 58
M  V30 63 1 34 59
M  V30 64 1 34 60
M  V30 END BOND
M  V30 END CTAB
M  END
>  <Dataset>  (318) 
ChEMBL_Kinases

>  <Ligand_Instance>  (318) 
nan

>  <PDB_ID>  (318) 
nan

>  <Standardized_SMILES>  (318) 
COC(=O)N1CCCC(c2cc3c(-c4cccc(NCc5ccccc5)n4)c(Cl)cnc3[nH]2)C1

>  <Name>  (318) 
nan

>  <Pocket>  (318) 
nan

>  <ATP_Site>  (318) 
nan

>  <Peripheral>  (318) 
nan

>  <Num_H_Atoms_ProtBoundConf>  (318) 
nan

>  <Num_Resolved_Atoms>  (318) 
nan

>  <Num_Not_Resolved_Atoms>  (318) 
nan

$$$$
CHEMBL3668356
     RDKit          3D

  0  0  0  0  0  0  0  0  0  0999 V3000
M  V30 BEGIN CTAB
M  V30 COUNTS 57 61 0 0 0
M  V30 BEGIN ATOM
M  V30 1 C 1.157635 -1.648912 3.732726 0
M  V30 2 N 2.412895 -2.305015 3.579260 0
M  V30 3 C 3.513201 -1.619732 4.175356 0
M  V30 4 C 3.836319 -0.428714 3.332166 0
M  V30 5 C 4.128305 -0.766238 1.904315 0
M  V30 6 C 3.661156 -2.083234 1.444041 0
M  V30 7 C 3.038590 -1.921205 0.078569 0
M  V30 8 C 1.986530 -1.039970 -0.093760 0
M  V30 9 C 1.560438 -1.047619 -1.411517 0
M  V30 10 C 0.562137 -0.359156 -2.061893 0
M  V30 11 C -0.256249 0.598600 -1.326659 0
M  V30 12 C 0.199193 1.916842 -1.424694 0
M  V30 13 C -0.420687 3.013745 -0.815612 0
M  V30 14 C -1.547246 2.666008 -0.093736 0
M  V30 15 C -2.031376 1.363493 0.026811 0
M  V30 16 N -3.190643 1.049116 0.775203 0
M  V30 17 C -4.593922 0.822596 0.695035 0
M  V30 18 C -4.950034 -0.362129 -0.124744 0
M  V30 19 C -5.049480 -1.574863 0.522955 0
M  V30 20 C -5.362895 -2.805805 -0.026820 0
M  V30 21 C -5.596820 -2.775750 -1.386762 0
M  V30 22 C -5.516518 -1.589307 -2.117172 0
M  V30 23 C -5.194458 -0.384655 -1.490681 0
M  V30 24 N -1.368603 0.387342 -0.592121 0
M  V30 25 C 0.414015 -0.630250 -3.417191 0
M  V30 26 Cl -0.848833 0.228166 -4.288811 0
M  V30 27 C 1.249946 -1.546180 -4.018851 0
M  V30 28 N 2.221936 -2.199057 -3.326874 0
M  V30 29 C 2.396634 -1.964049 -2.014156 0
M  V30 30 N 3.266309 -2.473603 -1.122837 0
M  V30 31 C 2.704630 -2.831105 2.294794 0
M  V30 32 H 0.794338 -1.199007 2.800947 0
M  V30 33 H 0.423500 -2.427220 4.093844 0
M  V30 34 H 1.243185 -0.912818 4.561865 0
M  V30 35 H 3.141940 -1.226245 5.163799 0
M  V30 36 H 4.374675 -2.285493 4.320682 0
M  V30 37 H 4.663740 0.137164 3.811850 0
M  V30 38 H 2.965587 0.266408 3.366325 0
M  V30 39 H 5.242277 -0.712679 1.782971 0
M  V30 40 H 3.741783 0.055934 1.254912 0
M  V30 41 H 4.528247 -2.778041 1.235286 0
M  V30 42 H 1.509776 -0.396348 0.658539 0
M  V30 43 H 1.097474 2.186242 -2.001413 0
M  V30 44 H -0.035860 3.999165 -0.918611 0
M  V30 45 H -2.074389 3.485837 0.405784 0
M  V30 46 H -2.666826 0.993862 1.699714 0
M  V30 47 H -4.976749 0.663435 1.718582 0
M  V30 48 H -5.179164 1.703845 0.309137 0
M  V30 49 H -4.866031 -1.613945 1.606218 0
M  V30 50 H -5.415538 -3.698640 0.566377 0
M  V30 51 H -5.847441 -3.689291 -1.898655 0
M  V30 52 H -5.700443 -1.575607 -3.181579 0
M  V30 53 H -5.116313 0.569678 -1.991603 0
M  V30 54 H 1.071912 -1.704860 -5.088514 0
M  V30 55 H 4.020855 -3.173965 -1.235963 0
M  V30 56 H 3.032193 -3.900630 2.464757 0
M  V30 57 H 1.707182 -2.969893 1.779498 0
M  V30 END ATOM
M  V30 BEGIN BOND
M  V30 1 1 1 2
M  V30 2 1 2 3
M  V30 3 1 3 4
M  V30 4 1 4 5
M  V30 5 1 5 6
M  V30 6 1 6 7
M  V30 7 2 7 8
M  V30 8 1 8 9
M  V30 9 2 9 10
M  V30 10 1 10 11
M  V30 11 2 11 12
M  V30 12 1 12 13
M  V30 13 2 13 14
M  V30 14 1 14 15
M  V30 15 1 15 16
M  V30 16 1 16 17
M  V30 17 1 17 18
M  V30 18 2 18 19
M  V30 19 1 19 20
M  V30 20 2 20 21
M  V30 21 1 21 22
M  V30 22 2 22 23
M  V30 23 2 15 24
M  V30 24 1 10 25
M  V30 25 1 25 26
M  V30 26 2 25 27
M  V30 27 1 27 28
M  V30 28 2 28 29
M  V30 29 1 29 30
M  V30 30 1 6 31
M  V30 31 1 31 2
M  V30 32 1 30 7
M  V30 33 1 29 9
M  V30 34 1 24 11
M  V30 35 1 23 18
M  V30 36 1 1 32
M  V30 37 1 1 33
M  V30 38 1 1 34
M  V30 39 1 3 35
M  V30 40 1 3 36
M  V30 41 1 4 37
M  V30 42 1 4 38
M  V30 43 1 5 39
M  V30 44 1 5 40
M  V30 45 1 6 41
M  V30 46 1 8 42
M  V30 47 1 12 43
M  V30 48 1 13 44
M  V30 49 1 14 45
M  V30 50 1 16 46
M  V30 51 1 17 47
M  V30 52 1 17 48
M  V30 53 1 19 49
M  V30 54 1 20 50
M  V30 55 1 21 51
M  V30 56 1 22 52
M  V30 57 1 23 53
M  V30 58 1 27 54
M  V30 59 1 30 55
M  V30 60 1 31 56
M  V30 61 1 31 57
M  V30 END BOND
M  V30 END CTAB
M  END
>  <Dataset>  (319) 
ChEMBL_Kinases

>  <Ligand_Instance>  (319) 
nan

>  <PDB_ID>  (319) 
nan

>  <Standardized_SMILES>  (319) 
CN1CCCC(c2cc3c(-c4cccc(NCc5ccccc5)n4)c(Cl)cnc3[nH]2)C1

>  <Name>  (319) 
nan

>  <Pocket>  (319) 
nan

>  <ATP_Site>  (319) 
nan

>  <Peripheral>  (319) 
nan

>  <Num_H_Atoms_ProtBoundConf>  (319) 
nan

>  <Num_Resolved_Atoms>  (319) 
nan

>  <Num_Not_Resolved_Atoms>  (319) 
nan

$$$$
CHEMBL3668355
     RDKit          3D

  0  0  0  0  0  0  0  0  0  0999 V3000
M  V30 BEGIN CTAB
M  V30 COUNTS 58 62 0 0 0
M  V30 BEGIN ATOM
M  V30 1 Cl -2.377289 0.158808 5.216068 0
M  V30 2 C -1.008067 0.738042 4.327705 0
M  V30 3 C 0.057820 1.322682 4.979123 0
M  V30 4 N 1.162354 1.797573 4.351606 0
M  V30 5 C 1.283706 1.722014 3.016818 0
M  V30 6 N 2.202134 2.070235 2.067867 0
M  V30 7 C 1.778999 1.736845 0.825107 0
M  V30 8 C 2.621583 2.008796 -0.396129 0
M  V30 9 C 3.002928 0.740595 -1.040186 0
M  V30 10 C 2.445358 0.413108 -2.372519 0
M  V30 11 C 1.834509 1.558316 -3.129914 0
M  V30 12 N 1.098872 2.426513 -2.232044 0
M  V30 13 C 2.030724 3.004300 -1.321284 0
M  V30 14 C 0.545822 1.156509 1.008941 0
M  V30 15 C 0.222678 1.139236 2.357172 0
M  V30 16 C -0.924553 0.638711 2.938751 0
M  V30 17 C -2.019482 0.030893 2.197130 0
M  V30 18 C -3.017961 0.937852 1.822388 0
M  V30 19 C -4.128688 0.503116 1.111087 0
M  V30 20 C -4.233641 -0.845883 0.777048 0
M  V30 21 C -3.229234 -1.710684 1.163819 0
M  V30 22 N -3.284942 -3.096915 0.849305 0
M  V30 23 C -2.283172 -4.086273 1.194652 0
M  V30 24 C -0.935654 -3.741803 0.572475 0
M  V30 25 C -1.131043 -3.706898 -0.924364 0
M  V30 26 C 0.177003 -3.675050 -1.682112 0
M  V30 27 O 0.892065 -4.824168 -1.355735 0
M  V30 28 C 1.252681 -4.744641 -0.031356 0
M  V30 29 C 0.061955 -4.842513 0.881093 0
M  V30 30 N -2.128221 -1.294781 1.865473 0
M  V30 31 H 0.072102 1.437650 6.058716 0
M  V30 32 H 3.065641 2.525742 2.431216 0
M  V30 33 H 3.585200 2.459373 0.029122 0
M  V30 34 H 2.712742 -0.135782 -0.364940 0
M  V30 35 H 4.132030 0.644809 -1.046662 0
M  V30 36 H 3.263776 -0.004374 -3.010893 0
M  V30 37 H 1.682452 -0.402253 -2.347859 0
M  V30 38 H 1.139473 1.181844 -3.899645 0
M  V30 39 H 2.628741 2.140574 -3.651409 0
M  V30 40 H 0.288047 1.933357 -1.837916 0
M  V30 41 H 1.639213 3.912166 -0.810119 0
M  V30 42 H 2.882688 3.389308 -1.955917 0
M  V30 43 H -0.048370 0.783353 0.201823 0
M  V30 44 H -2.970224 1.997352 2.065604 0
M  V30 45 H -4.906591 1.187465 0.814822 0
M  V30 46 H -5.098157 -1.207756 0.218158 0
M  V30 47 H -4.139296 -3.432697 0.312088 0
M  V30 48 H -2.144328 -4.050278 2.307778 0
M  V30 49 H -2.611981 -5.089752 0.925613 0
M  V30 50 H -0.529910 -2.817461 0.989215 0
M  V30 51 H -1.648336 -4.638426 -1.220083 0
M  V30 52 H -1.710046 -2.792005 -1.158814 0
M  V30 53 H 0.774989 -2.771619 -1.469574 0
M  V30 54 H -0.110758 -3.757589 -2.765132 0
M  V30 55 H 1.837051 -3.816978 0.156418 0
M  V30 56 H 1.924796 -5.614305 0.201151 0
M  V30 57 H -0.384292 -5.868306 0.752180 0
M  V30 58 H 0.448710 -4.765802 1.924339 0
M  V30 END ATOM
M  V30 BEGIN BOND
M  V30 1 1 1 2
M  V30 2 2 2 3
M  V30 3 1 3 4
M  V30 4 2 4 5
M  V30 5 1 5 6
M  V30 6 1 6 7
M  V30 7 1 7 8
M  V30 8 1 8 9
M  V30 9 1 9 10
M  V30 10 1 10 11
M  V30 11 1 11 12
M  V30 12 1 12 13
M  V30 13 2 7 14
M  V30 14 1 14 15
M  V30 15 2 15 16
M  V30 16 1 16 17
M  V30 17 2 17 18
M  V30 18 1 18 19
M  V30 19 2 19 20
M  V30 20 1 20 21
M  V30 21 1 21 22
M  V30 22 1 22 23
M  V30 23 1 23 24
M  V30 24 1 24 25
M  V30 25 1 25 26
M  V30 26 1 26 27
M  V30 27 1 27 28
M  V30 28 1 28 29
M  V30 29 2 21 30
M  V30 30 1 16 2
M  V30 31 1 30 17
M  V30 32 1 15 5
M  V30 33 1 29 24
M  V30 34 1 13 8
M  V30 35 1 3 31
M  V30 36 1 6 32
M  V30 37 1 8 33
M  V30 38 1 9 34
M  V30 39 1 9 35
M  V30 40 1 10 36
M  V30 41 1 10 37
M  V30 42 1 11 38
M  V30 43 1 11 39
M  V30 44 1 12 40
M  V30 45 1 13 41
M  V30 46 1 13 42
M  V30 47 1 14 43
M  V30 48 1 18 44
M  V30 49 1 19 45
M  V30 50 1 20 46
M  V30 51 1 22 47
M  V30 52 1 23 48
M  V30 53 1 23 49
M  V30 54 1 24 50
M  V30 55 1 25 51
M  V30 56 1 25 52
M  V30 57 1 26 53
M  V30 58 1 26 54
M  V30 59 1 28 55
M  V30 60 1 28 56
M  V30 61 1 29 57
M  V30 62 1 29 58
M  V30 END BOND
M  V30 END CTAB
M  END
>  <Dataset>  (320) 
ChEMBL_Kinases

>  <Ligand_Instance>  (320) 
nan

>  <PDB_ID>  (320) 
nan

>  <Standardized_SMILES>  (320) 
Clc1cnc2[nH]c(C3CCCNC3)cc2c1-c1cccc(NCC2CCOCC2)n1

>  <Name>  (320) 
nan

>  <Pocket>  (320) 
nan

>  <ATP_Site>  (320) 
nan

>  <Peripheral>  (320) 
nan

>  <Num_H_Atoms_ProtBoundConf>  (320) 
nan

>  <Num_Resolved_Atoms>  (320) 
nan

>  <Num_Not_Resolved_Atoms>  (320) 
nan

$$$$
CHEMBL3668354
     RDKit          3D

  0  0  0  0  0  0  0  0  0  0999 V3000
M  V30 BEGIN CTAB
M  V30 COUNTS 54 58 0 0 0
M  V30 BEGIN ATOM
M  V30 1 Cl -0.820222 -3.685623 3.248824 0
M  V30 2 C 0.202945 -2.400716 2.627840 0
M  V30 3 C 1.567525 -2.577647 2.764988 0
M  V30 4 N 2.460949 -1.647621 2.320767 0
M  V30 5 C 2.025388 -0.519320 1.729726 0
M  V30 6 N 2.601058 0.570174 1.193154 0
M  V30 7 C 1.693294 1.440024 0.717872 0
M  V30 8 C 2.019664 2.742550 0.063919 0
M  V30 9 C 2.690831 3.702176 1.012078 0
M  V30 10 C 4.189449 3.615848 1.020486 0
M  V30 11 C 4.787511 3.353896 -0.329367 0
M  V30 12 N 3.746566 3.633466 -1.314111 0
M  V30 13 C 2.797252 2.537859 -1.208137 0
M  V30 14 C 0.435111 0.883672 0.958809 0
M  V30 15 C 0.673630 -0.307449 1.575178 0
M  V30 16 C -0.249504 -1.242931 2.021161 0
M  V30 17 C -1.701392 -1.145331 1.921330 0
M  V30 18 C -2.374441 -0.547566 2.966577 0
M  V30 19 C -3.743420 -0.481343 2.821712 0
M  V30 20 C -4.405595 -0.972378 1.718381 0
M  V30 21 C -3.689573 -1.573343 0.675457 0
M  V30 22 N -4.276482 -2.107873 -0.501876 0
M  V30 23 C -3.628251 -2.743764 -1.615921 0
M  V30 24 C -2.883795 -3.968844 -1.278872 0
M  V30 25 C -3.640839 -5.146461 -1.311891 0
M  V30 26 C -3.146417 -6.390498 -1.038153 0
M  V30 27 C -1.814511 -6.532555 -0.702722 0
M  V30 28 C -1.047581 -5.381648 -0.664103 0
M  V30 29 C -1.556436 -4.132471 -0.942029 0
M  V30 30 N -2.379000 -1.613847 0.859382 0
M  V30 31 H 1.977456 -3.475927 3.237728 0
M  V30 32 H 3.649068 0.739856 1.142419 0
M  V30 33 H 1.057671 3.237178 -0.221267 0
M  V30 34 H 2.329397 3.470315 2.036666 0
M  V30 35 H 2.368966 4.760305 0.800896 0
M  V30 36 H 4.558053 4.630868 1.347997 0
M  V30 37 H 4.574019 2.928683 1.806013 0
M  V30 38 H 5.146595 2.322583 -0.369085 0
M  V30 39 H 5.679600 4.005362 -0.525352 0
M  V30 40 H 4.129012 3.749352 -2.271081 0
M  V30 41 H 2.156944 2.448616 -2.099008 0
M  V30 42 H 3.321392 1.546192 -1.103187 0
M  V30 43 H -0.504850 1.324455 0.701510 0
M  V30 44 H -1.929636 -0.138965 3.863453 0
M  V30 45 H -4.354547 -0.025356 3.599272 0
M  V30 46 H -5.482215 -0.915889 1.613111 0
M  V30 47 H -5.316571 -2.000302 -0.510842 0
M  V30 48 H -2.919750 -2.036073 -2.127489 0
M  V30 49 H -4.387486 -2.969627 -2.395023 0
M  V30 50 H -4.694751 -5.145382 -1.563374 0
M  V30 51 H -3.724914 -7.286154 -1.063906 0
M  V30 52 H -1.301612 -7.437532 -0.466949 0
M  V30 53 H 0.018234 -5.392819 -0.408565 0
M  V30 54 H -0.992829 -3.223629 -0.925698 0
M  V30 END ATOM
M  V30 BEGIN BOND
M  V30 1 1 1 2
M  V30 2 2 2 3
M  V30 3 1 3 4
M  V30 4 2 4 5
M  V30 5 1 5 6
M  V30 6 1 6 7
M  V30 7 1 7 8
M  V30 8 1 8 9
M  V30 9 1 9 10
M  V30 10 1 10 11
M  V30 11 1 11 12
M  V30 12 1 12 13
M  V30 13 2 7 14
M  V30 14 1 14 15
M  V30 15 2 15 16
M  V30 16 1 16 17
M  V30 17 2 17 18
M  V30 18 1 18 19
M  V30 19 2 19 20
M  V30 20 1 20 21
M  V30 21 1 21 22
M  V30 22 1 22 23
M  V30 23 1 23 24
M  V30 24 2 24 25
M  V30 25 1 25 26
M  V30 26 2 26 27
M  V30 27 1 27 28
M  V30 28 2 28 29
M  V30 29 2 21 30
M  V30 30 1 16 2
M  V30 31 1 30 17
M  V30 32 1 15 5
M  V30 33 1 29 24
M  V30 34 1 13 8
M  V30 35 1 3 31
M  V30 36 1 6 32
M  V30 37 1 8 33
M  V30 38 1 9 34
M  V30 39 1 9 35
M  V30 40 1 10 36
M  V30 41 1 10 37
M  V30 42 1 11 38
M  V30 43 1 11 39
M  V30 44 1 12 40
M  V30 45 1 13 41
M  V30 46 1 13 42
M  V30 47 1 14 43
M  V30 48 1 18 44
M  V30 49 1 19 45
M  V30 50 1 20 46
M  V30 51 1 22 47
M  V30 52 1 23 48
M  V30 53 1 23 49
M  V30 54 1 25 50
M  V30 55 1 26 51
M  V30 56 1 27 52
M  V30 57 1 28 53
M  V30 58 1 29 54
M  V30 END BOND
M  V30 END CTAB
M  END
>  <Dataset>  (321) 
ChEMBL_Kinases

>  <Ligand_Instance>  (321) 
nan

>  <PDB_ID>  (321) 
nan

>  <Standardized_SMILES>  (321) 
Clc1cnc2[nH]c(C3CCCNC3)cc2c1-c1cccc(NCc2ccccc2)n1

>  <Name>  (321) 
nan

>  <Pocket>  (321) 
nan

>  <ATP_Site>  (321) 
nan

>  <Peripheral>  (321) 
nan

>  <Num_H_Atoms_ProtBoundConf>  (321) 
nan

>  <Num_Resolved_Atoms>  (321) 
nan

>  <Num_Not_Resolved_Atoms>  (321) 
nan

$$$$
CHEMBL3668353
     RDKit          3D

  0  0  0  0  0  0  0  0  0  0999 V3000
M  V30 BEGIN CTAB
M  V30 COUNTS 39 42 0 0 0
M  V30 BEGIN ATOM
M  V30 1 F 1.377971 -5.347650 2.222205 0
M  V30 2 C 1.719570 -4.417568 1.296772 0
M  V30 3 C 1.724641 -4.846786 -0.022768 0
M  V30 4 C 2.068331 -3.926444 -0.999182 0
M  V30 5 C 2.396435 -2.621631 -0.675072 0
M  V30 6 C 2.377965 -2.232746 0.669381 0
M  V30 7 C 2.715959 -0.863288 1.077908 0
M  V30 8 C 4.038199 -0.592006 1.364773 0
M  V30 9 Cl 5.306287 -1.793066 1.263136 0
M  V30 10 C 4.323915 0.722590 1.750581 0
M  V30 11 N 3.373716 1.673352 1.839821 0
M  V30 12 C 2.073515 1.429130 1.563545 0
M  V30 13 N 0.937993 2.153236 1.563945 0
M  V30 14 C -0.110628 1.392552 1.195791 0
M  V30 15 C -1.546594 1.838621 1.075196 0
M  V30 16 C -2.106934 1.618109 -0.291908 0
M  V30 17 C -3.248882 0.643720 -0.341465 0
M  V30 18 C -3.031585 -0.584220 0.480054 0
M  V30 19 N -2.471066 -0.323176 1.777755 0
M  V30 20 C -2.389301 1.089601 2.081446 0
M  V30 21 C 0.392330 0.129894 0.952763 0
M  V30 22 C 1.765671 0.137728 1.180090 0
M  V30 23 N 2.038106 -3.150243 1.613059 0
M  V30 24 H 1.469922 -5.871819 -0.310028 0
M  V30 25 H 2.095490 -4.183282 -2.047784 0
M  V30 26 H 2.672741 -1.861034 -1.399102 0
M  V30 27 H 5.379314 0.928393 1.976778 0
M  V30 28 H 0.913730 3.153671 1.817898 0
M  V30 29 H -1.581522 2.911514 1.345855 0
M  V30 30 H -1.266508 1.299988 -0.971373 0
M  V30 31 H -2.448881 2.589984 -0.710133 0
M  V30 32 H -4.216618 1.137316 -0.121793 0
M  V30 33 H -3.342032 0.306931 -1.411272 0
M  V30 34 H -2.449055 -1.312615 -0.111166 0
M  V30 35 H -4.039554 -1.065074 0.629600 0
M  V30 36 H -2.952192 -0.800602 2.560115 0
M  V30 37 H -1.861655 1.177097 3.055472 0
M  V30 38 H -3.371587 1.556595 2.163496 0
M  V30 39 H -0.140242 -0.737576 0.641722 0
M  V30 END ATOM
M  V30 BEGIN BOND
M  V30 1 1 1 2
M  V30 2 2 2 3
M  V30 3 1 3 4
M  V30 4 2 4 5
M  V30 5 1 5 6
M  V30 6 1 6 7
M  V30 7 2 7 8
M  V30 8 1 8 9
M  V30 9 1 8 10
M  V30 10 2 10 11
M  V30 11 1 11 12
M  V30 12 1 12 13
M  V30 13 1 13 14
M  V30 14 1 14 15
M  V30 15 1 15 16
M  V30 16 1 16 17
M  V30 17 1 17 18
M  V30 18 1 18 19
M  V30 19 1 19 20
M  V30 20 2 14 21
M  V30 21 1 21 22
M  V30 22 2 6 23
M  V30 23 1 23 2
M  V30 24 1 22 7
M  V30 25 2 22 12
M  V30 26 1 20 15
M  V30 27 1 3 24
M  V30 28 1 4 25
M  V30 29 1 5 26
M  V30 30 1 10 27
M  V30 31 1 13 28
M  V30 32 1 15 29
M  V30 33 1 16 30
M  V30 34 1 16 31
M  V30 35 1 17 32
M  V30 36 1 17 33
M  V30 37 1 18 34
M  V30 38 1 18 35
M  V30 39 1 19 36
M  V30 40 1 20 37
M  V30 41 1 20 38
M  V30 42 1 21 39
M  V30 END BOND
M  V30 END CTAB
M  END
>  <Dataset>  (322) 
ChEMBL_Kinases

>  <Ligand_Instance>  (322) 
nan

>  <PDB_ID>  (322) 
nan

>  <Standardized_SMILES>  (322) 
Fc1cccc(-c2c(Cl)cnc3[nH]c(C4CCCNC4)cc23)n1

>  <Name>  (322) 
nan

>  <Pocket>  (322) 
nan

>  <ATP_Site>  (322) 
nan

>  <Peripheral>  (322) 
nan

>  <Num_H_Atoms_ProtBoundConf>  (322) 
nan

>  <Num_Resolved_Atoms>  (322) 
nan

>  <Num_Not_Resolved_Atoms>  (322) 
nan

$$$$
CHEMBL3668352
     RDKit          3D

  0  0  0  0  0  0  0  0  0  0999 V3000
M  V30 BEGIN CTAB
M  V30 COUNTS 40 43 0 0 0
M  V30 BEGIN ATOM
M  V30 1 F 1.548931 -5.203793 1.668669 0
M  V30 2 C 1.771640 -4.257232 0.718144 0
M  V30 3 C 1.636225 -4.513653 -0.635298 0
M  V30 4 C 1.884291 -3.489732 -1.510207 0
M  V30 5 C 2.258889 -2.223123 -1.139099 0
M  V30 6 C 2.384457 -2.003974 0.228662 0
M  V30 7 C 2.783858 -0.665306 0.695729 0
M  V30 8 C 4.096545 -0.273454 0.889638 0
M  V30 9 Cl 5.315910 -1.489481 0.541086 0
M  V30 10 C 4.380152 1.004725 1.330874 0
M  V30 11 N 3.385307 1.877480 1.575295 0
M  V30 12 C 2.076770 1.552416 1.403931 0
M  V30 13 N 0.906689 2.199416 1.564430 0
M  V30 14 C -0.119914 1.388315 1.243926 0
M  V30 15 C -1.572424 1.787964 1.308050 0
M  V30 16 C -2.265481 1.617746 -0.004429 0
M  V30 17 C -3.352732 0.596782 -0.032277 0
M  V30 18 C -3.018448 -0.689127 0.675123 0
M  V30 19 N -2.256355 -0.483964 1.879669 0
M  V30 20 C -2.255754 0.890684 2.318271 0
M  V30 21 C 0.412044 0.174213 0.863152 0
M  V30 22 C 1.792257 0.262096 0.958593 0
M  V30 23 C 2.145301 -3.005015 1.156236 0
M  V30 24 H 1.339802 -5.510967 -0.958901 0
M  V30 25 H 1.773001 -3.708690 -2.572564 0
M  V30 26 H 2.455027 -1.417869 -1.804592 0
M  V30 27 H 5.429854 1.256371 1.465288 0
M  V30 28 H 0.908855 3.198158 1.898709 0
M  V30 29 H -1.616465 2.837778 1.655507 0
M  V30 30 H -1.510135 1.462373 -0.813315 0
M  V30 31 H -2.753393 2.596049 -0.260558 0
M  V30 32 H -4.319202 0.968739 0.355895 0
M  V30 33 H -3.548776 0.339388 -1.105266 0
M  V30 34 H -2.528102 -1.367515 -0.043487 0
M  V30 35 H -3.976751 -1.176658 0.951397 0
M  V30 36 H -2.603165 -1.081998 2.659983 0
M  V30 37 H -1.645711 0.936504 3.244724 0
M  V30 38 H -3.264726 1.270000 2.566464 0
M  V30 39 H -0.123405 -0.689596 0.548483 0
M  V30 40 H 2.248612 -2.814495 2.219892 0
M  V30 END ATOM
M  V30 BEGIN BOND
M  V30 1 1 1 2
M  V30 2 2 2 3
M  V30 3 1 3 4
M  V30 4 2 4 5
M  V30 5 1 5 6
M  V30 6 1 6 7
M  V30 7 2 7 8
M  V30 8 1 8 9
M  V30 9 1 8 10
M  V30 10 2 10 11
M  V30 11 1 11 12
M  V30 12 1 12 13
M  V30 13 1 13 14
M  V30 14 1 14 15
M  V30 15 1 15 16
M  V30 16 1 16 17
M  V30 17 1 17 18
M  V30 18 1 18 19
M  V30 19 1 19 20
M  V30 20 2 14 21
M  V30 21 1 21 22
M  V30 22 2 6 23
M  V30 23 1 23 2
M  V30 24 1 22 7
M  V30 25 2 22 12
M  V30 26 1 20 15
M  V30 27 1 3 24
M  V30 28 1 4 25
M  V30 29 1 5 26
M  V30 30 1 10 27
M  V30 31 1 13 28
M  V30 32 1 15 29
M  V30 33 1 16 30
M  V30 34 1 16 31
M  V30 35 1 17 32
M  V30 36 1 17 33
M  V30 37 1 18 34
M  V30 38 1 18 35
M  V30 39 1 19 36
M  V30 40 1 20 37
M  V30 41 1 20 38
M  V30 42 1 21 39
M  V30 43 1 23 40
M  V30 END BOND
M  V30 END CTAB
M  END
>  <Dataset>  (323) 
ChEMBL_Kinases

>  <Ligand_Instance>  (323) 
nan

>  <PDB_ID>  (323) 
nan

>  <Standardized_SMILES>  (323) 
Fc1cccc(-c2c(Cl)cnc3[nH]c(C4CCCNC4)cc23)c1

>  <Name>  (323) 
nan

>  <Pocket>  (323) 
nan

>  <ATP_Site>  (323) 
nan

>  <Peripheral>  (323) 
nan

>  <Num_H_Atoms_ProtBoundConf>  (323) 
nan

>  <Num_Resolved_Atoms>  (323) 
nan

>  <Num_Not_Resolved_Atoms>  (323) 
nan

$$$$
CHEMBL3668351
     RDKit          3D

  0  0  0  0  0  0  0  0  0  0999 V3000
M  V30 BEGIN CTAB
M  V30 COUNTS 54 58 0 0 0
M  V30 BEGIN ATOM
M  V30 1 Cl -0.597161 -3.988628 3.053674 0
M  V30 2 C 0.440540 -2.742977 2.387500 0
M  V30 3 C 1.773095 -3.072936 2.183714 0
M  V30 4 N 2.602679 -2.143791 1.673662 0
M  V30 5 C 2.209433 -0.894611 1.344789 0
M  V30 6 N 2.782068 0.202965 0.838624 0
M  V30 7 C 1.906468 1.199147 0.709294 0
M  V30 8 C 2.257621 2.554465 0.168485 0
M  V30 9 C 3.247696 3.286481 1.000339 0
M  V30 10 C 4.673732 3.189494 0.539725 0
M  V30 11 N 4.714755 3.606705 -0.856803 0
M  V30 12 C 4.070854 2.509218 -1.588504 0
M  V30 13 C 2.599697 2.457693 -1.297364 0
M  V30 14 C 0.690924 0.715468 1.160189 0
M  V30 15 C 0.877786 -0.608510 1.563170 0
M  V30 16 C -0.047717 -1.495446 2.081664 0
M  V30 17 C -1.443219 -1.157659 2.297697 0
M  V30 18 C -1.968692 -0.621151 3.454097 0
M  V30 19 C -3.325352 -0.368635 3.465150 0
M  V30 20 C -4.125951 -0.636786 2.376156 0
M  V30 21 C -3.570213 -1.180836 1.214537 0
M  V30 22 N -4.366922 -1.466214 0.078244 0
M  V30 23 C -3.946599 -2.030971 -1.187640 0
M  V30 24 C -3.356992 -3.385098 -1.067038 0
M  V30 25 C -4.266944 -4.448317 -1.119673 0
M  V30 26 C -3.898057 -5.765906 -1.029764 0
M  V30 27 C -2.591583 -6.111116 -0.880790 0
M  V30 28 C -1.682061 -5.078308 -0.827141 0
M  V30 29 C -2.038036 -3.755304 -0.916040 0
M  V30 30 N -2.249535 -1.407876 1.253016 0
M  V30 31 H 2.158166 -4.074034 2.430718 0
M  V30 32 H 3.800101 0.163263 0.611184 0
M  V30 33 H 1.290055 3.133099 0.201897 0
M  V30 34 H 3.118688 2.966215 2.055249 0
M  V30 35 H 2.990341 4.382024 0.995858 0
M  V30 36 H 5.249975 3.942815 1.136235 0
M  V30 37 H 5.102714 2.187775 0.668325 0
M  V30 38 H 5.684194 3.687527 -1.214004 0
M  V30 39 H 4.580994 1.543296 -1.392629 0
M  V30 40 H 4.192098 2.728611 -2.669429 0
M  V30 41 H 2.228399 1.478054 -1.666399 0
M  V30 42 H 2.062201 3.223724 -1.922478 0
M  V30 43 H -0.223317 1.301007 1.178712 0
M  V30 44 H -1.284664 -0.435082 4.271512 0
M  V30 45 H -3.756553 0.049149 4.355224 0
M  V30 46 H -5.186352 -0.420003 2.435844 0
M  V30 47 H -5.403289 -1.238389 0.162453 0
M  V30 48 H -3.211279 -1.329561 -1.689699 0
M  V30 49 H -4.783399 -2.086919 -1.911285 0
M  V30 50 H -5.331001 -4.270822 -1.236967 0
M  V30 51 H -4.624875 -6.571559 -1.073513 0
M  V30 52 H -2.180806 -7.105305 -0.799073 0
M  V30 53 H -0.604761 -5.208460 -0.710320 0
M  V30 54 H -1.348987 -2.930437 -0.881685 0
M  V30 END ATOM
M  V30 BEGIN BOND
M  V30 1 1 1 2
M  V30 2 2 2 3
M  V30 3 1 3 4
M  V30 4 2 4 5
M  V30 5 1 5 6
M  V30 6 1 6 7
M  V30 7 1 7 8
M  V30 8 1 8 9
M  V30 9 1 9 10
M  V30 10 1 10 11
M  V30 11 1 11 12
M  V30 12 1 12 13
M  V30 13 2 7 14
M  V30 14 1 14 15
M  V30 15 2 15 16
M  V30 16 1 16 17
M  V30 17 2 17 18
M  V30 18 1 18 19
M  V30 19 2 19 20
M  V30 20 1 20 21
M  V30 21 1 21 22
M  V30 22 1 22 23
M  V30 23 1 23 24
M  V30 24 2 24 25
M  V30 25 1 25 26
M  V30 26 2 26 27
M  V30 27 1 27 28
M  V30 28 2 28 29
M  V30 29 2 21 30
M  V30 30 1 16 2
M  V30 31 1 30 17
M  V30 32 1 15 5
M  V30 33 1 29 24
M  V30 34 1 13 8
M  V30 35 1 3 31
M  V30 36 1 6 32
M  V30 37 1 8 33
M  V30 38 1 9 34
M  V30 39 1 9 35
M  V30 40 1 10 36
M  V30 41 1 10 37
M  V30 42 1 11 38
M  V30 43 1 12 39
M  V30 44 1 12 40
M  V30 45 1 13 41
M  V30 46 1 13 42
M  V30 47 1 14 43
M  V30 48 1 18 44
M  V30 49 1 19 45
M  V30 50 1 20 46
M  V30 51 1 22 47
M  V30 52 1 23 48
M  V30 53 1 23 49
M  V30 54 1 25 50
M  V30 55 1 26 51
M  V30 56 1 27 52
M  V30 57 1 28 53
M  V30 58 1 29 54
M  V30 END BOND
M  V30 END CTAB
M  END
>  <Dataset>  (324) 
ChEMBL_Kinases

>  <Ligand_Instance>  (324) 
nan

>  <PDB_ID>  (324) 
nan

>  <Standardized_SMILES>  (324) 
Clc1cnc2[nH]c(C3CCNCC3)cc2c1-c1cccc(NCc2ccccc2)n1

>  <Name>  (324) 
nan

>  <Pocket>  (324) 
nan

>  <ATP_Site>  (324) 
nan

>  <Peripheral>  (324) 
nan

>  <Num_H_Atoms_ProtBoundConf>  (324) 
nan

>  <Num_Resolved_Atoms>  (324) 
nan

>  <Num_Not_Resolved_Atoms>  (324) 
nan

$$$$
CHEMBL3668350
     RDKit          3D

  0  0  0  0  0  0  0  0  0  0999 V3000
M  V30 BEGIN CTAB
M  V30 COUNTS 47 50 0 0 0
M  V30 BEGIN ATOM
M  V30 1 C -4.461353 0.307277 -0.855817 0
M  V30 2 O -3.070352 0.491044 -0.903669 0
M  V30 3 C -2.232020 0.002346 -1.891727 0
M  V30 4 C -2.601951 -0.742116 -2.992510 0
M  V30 5 C -1.669202 -1.177515 -3.918680 0
M  V30 6 C -0.332526 -0.849806 -3.722775 0
M  V30 7 F 0.539870 -1.294978 -4.649737 0
M  V30 8 C 0.033711 -0.105521 -2.621304 0
M  V30 9 C -0.897047 0.341694 -1.676624 0
M  V30 10 C -0.326478 1.113442 -0.598573 0
M  V30 11 C -0.239024 2.485569 -0.834669 0
M  V30 12 C 0.298233 3.329908 0.135923 0
M  V30 13 N 0.729680 2.805474 1.298779 0
M  V30 14 C 0.634182 1.471889 1.503774 0
M  V30 15 N 0.984789 0.707529 2.557071 0
M  V30 16 C 0.716356 -0.597694 2.354726 0
M  V30 17 C 0.910847 -1.781651 3.197978 0
M  V30 18 C 2.156543 -2.563356 2.954528 0
M  V30 19 C 3.419195 -1.776915 3.060250 0
M  V30 20 N 3.308050 -0.803062 4.105356 0
M  V30 21 C 2.414771 -1.316591 5.123147 0
M  V30 22 C 0.975741 -1.319405 4.640264 0
M  V30 23 C 0.157172 -0.671043 1.088251 0
M  V30 24 C -0.315399 -1.873524 0.389281 0
M  V30 25 C 0.119622 0.594304 0.596653 0
M  V30 26 H -4.821963 0.290493 -1.920581 0
M  V30 27 H -4.739056 -0.604462 -0.312557 0
M  V30 28 H -4.983215 1.165242 -0.368014 0
M  V30 29 H -3.669410 -0.952343 -3.066608 0
M  V30 30 H -2.046573 -1.763473 -4.764341 0
M  V30 31 H 1.101980 0.080784 -2.585230 0
M  V30 32 H -0.549909 3.017342 -1.721633 0
M  V30 33 H 0.406676 4.401944 0.044131 0
M  V30 34 H 1.410971 1.101169 3.421415 0
M  V30 35 H 0.045322 -2.479177 3.106234 0
M  V30 36 H 2.181378 -3.349621 3.766414 0
M  V30 37 H 2.110598 -3.178984 2.021657 0
M  V30 38 H 3.658601 -1.341582 2.068125 0
M  V30 39 H 4.310356 -2.429225 3.292970 0
M  V30 40 H 4.235509 -0.613968 4.537686 0
M  V30 41 H 2.750129 -2.342171 5.426324 0
M  V30 42 H 2.534257 -0.673020 6.025383 0
M  V30 43 H 0.405073 -2.039732 5.281752 0
M  V30 44 H 0.494633 -0.342687 4.797592 0
M  V30 45 H -1.420460 -1.825704 0.177745 0
M  V30 46 H -0.254634 -2.744519 1.110167 0
M  V30 47 H 0.176412 -2.097875 -0.556932 0
M  V30 END ATOM
M  V30 BEGIN BOND
M  V30 1 1 1 2
M  V30 2 1 2 3
M  V30 3 2 3 4
M  V30 4 1 4 5
M  V30 5 2 5 6
M  V30 6 1 6 7
M  V30 7 1 6 8
M  V30 8 2 8 9
M  V30 9 1 9 10
M  V30 10 2 10 11
M  V30 11 1 11 12
M  V30 12 2 12 13
M  V30 13 1 13 14
M  V30 14 1 14 15
M  V30 15 1 15 16
M  V30 16 1 16 17
M  V30 17 1 17 18
M  V30 18 1 18 19
M  V30 19 1 19 20
M  V30 20 1 20 21
M  V30 21 1 21 22
M  V30 22 2 16 23
M  V30 23 1 23 24
M  V30 24 1 23 25
M  V30 25 1 9 3
M  V30 26 1 25 10
M  V30 27 2 25 14
M  V30 28 1 22 17
M  V30 29 1 1 26
M  V30 30 1 1 27
M  V30 31 1 1 28
M  V30 32 1 4 29
M  V30 33 1 5 30
M  V30 34 1 8 31
M  V30 35 1 11 32
M  V30 36 1 12 33
M  V30 37 1 15 34
M  V30 38 1 17 35
M  V30 39 1 18 36
M  V30 40 1 18 37
M  V30 41 1 19 38
M  V30 42 1 19 39
M  V30 43 1 20 40
M  V30 44 1 21 41
M  V30 45 1 21 42
M  V30 46 1 22 43
M  V30 47 1 22 44
M  V30 48 1 24 45
M  V30 49 1 24 46
M  V30 50 1 24 47
M  V30 END BOND
M  V30 END CTAB
M  END
>  <Dataset>  (325) 
ChEMBL_Kinases

>  <Ligand_Instance>  (325) 
nan

>  <PDB_ID>  (325) 
nan

>  <Standardized_SMILES>  (325) 
COc1ccc(F)cc1-c1ccnc2[nH]c(C3CCNCC3)c(C)c12

>  <Name>  (325) 
nan

>  <Pocket>  (325) 
nan

>  <ATP_Site>  (325) 
nan

>  <Peripheral>  (325) 
nan

>  <Num_H_Atoms_ProtBoundConf>  (325) 
nan

>  <Num_Resolved_Atoms>  (325) 
nan

>  <Num_Not_Resolved_Atoms>  (325) 
nan

$$$$
CHEMBL3668349
     RDKit          3D

  0  0  0  0  0  0  0  0  0  0999 V3000
M  V30 BEGIN CTAB
M  V30 COUNTS 47 50 0 0 0
M  V30 BEGIN ATOM
M  V30 1 C -1.014063 -3.054574 -2.411975 0
M  V30 2 O -0.251849 -1.911954 -2.036102 0
M  V30 3 C 1.062573 -2.022932 -1.655477 0
M  V30 4 C 1.759482 -3.216838 -1.599576 0
M  V30 5 C 3.080831 -3.308766 -1.214421 0
M  V30 6 C 3.711241 -2.108240 -0.870703 0
M  V30 7 F 5.029131 -2.178972 -0.483859 0
M  V30 8 C 3.038887 -0.902759 -0.917736 0
M  V30 9 C 1.702517 -0.848904 -1.312300 0
M  V30 10 C 1.122079 0.490691 -1.314485 0
M  V30 11 C 1.213793 1.219307 -2.459555 0
M  V30 12 C 0.645040 2.490833 -2.411638 0
M  V30 13 N 0.032409 2.988427 -1.297758 0
M  V30 14 C -0.053739 2.261179 -0.169982 0
M  V30 15 N -0.578666 2.447408 1.076692 0
M  V30 16 C -0.388116 1.366649 1.857801 0
M  V30 17 C -0.868297 1.348991 3.265734 0
M  V30 18 C 0.140382 0.811143 4.208998 0
M  V30 19 C 0.064409 -0.620750 4.560846 0
M  V30 20 C -0.782761 -1.478170 3.708212 0
M  V30 21 C -1.917131 -0.823088 2.999608 0
M  V30 22 N -3.143337 -1.634052 3.065610 0
M  V30 23 C -2.164873 0.580361 3.439395 0
M  V30 24 C 0.286173 0.478002 1.048251 0
M  V30 25 C 0.496678 1.018505 -0.201552 0
M  V30 26 H -2.030220 -2.719590 -2.710025 0
M  V30 27 H -0.547815 -3.664402 -3.186229 0
M  V30 28 H -1.150126 -3.664110 -1.494079 0
M  V30 29 H 1.234730 -4.117247 -1.872966 0
M  V30 30 H 3.608740 -4.252036 -1.177067 0
M  V30 31 H 3.633951 -0.034735 -0.627376 0
M  V30 32 H 1.668478 0.919104 -3.370429 0
M  V30 33 H 0.637728 3.195934 -3.250014 0
M  V30 34 H -1.048511 3.382447 1.256958 0
M  V30 35 H -1.076492 2.433827 3.530510 0
M  V30 36 H 1.158086 1.097940 3.809390 0
M  V30 37 H 0.079249 1.411309 5.157351 0
M  V30 38 H 1.114606 -1.038827 4.519480 0
M  V30 39 H -0.202276 -0.765100 5.649557 0
M  V30 40 H -1.243017 -2.283316 4.355489 0
M  V30 41 H -0.161181 -2.087091 2.987378 0
M  V30 42 H -1.686987 -0.784869 1.915022 0
M  V30 43 H -3.872076 -1.064663 2.575470 0
M  V30 44 H -2.962624 -2.460886 2.453494 0
M  V30 45 H -2.408980 0.603757 4.515577 0
M  V30 46 H -2.971739 1.040305 2.835097 0
M  V30 47 H 0.593772 -0.483519 1.374978 0
M  V30 END ATOM
M  V30 BEGIN BOND
M  V30 1 1 1 2
M  V30 2 1 2 3
M  V30 3 2 3 4
M  V30 4 1 4 5
M  V30 5 2 5 6
M  V30 6 1 6 7
M  V30 7 1 6 8
M  V30 8 2 8 9
M  V30 9 1 9 10
M  V30 10 2 10 11
M  V30 11 1 11 12
M  V30 12 2 12 13
M  V30 13 1 13 14
M  V30 14 1 14 15
M  V30 15 1 15 16
M  V30 16 1 16 17
M  V30 17 1 17 18
M  V30 18 1 18 19
M  V30 19 1 19 20
M  V30 20 1 20 21
M  V30 21 1 21 22
M  V30 22 1 21 23
M  V30 23 2 16 24
M  V30 24 1 24 25
M  V30 25 1 9 3
M  V30 26 1 25 10
M  V30 27 2 25 14
M  V30 28 1 23 17
M  V30 29 1 1 26
M  V30 30 1 1 27
M  V30 31 1 1 28
M  V30 32 1 4 29
M  V30 33 1 5 30
M  V30 34 1 8 31
M  V30 35 1 11 32
M  V30 36 1 12 33
M  V30 37 1 15 34
M  V30 38 1 17 35
M  V30 39 1 18 36
M  V30 40 1 18 37
M  V30 41 1 19 38
M  V30 42 1 19 39
M  V30 43 1 20 40
M  V30 44 1 20 41
M  V30 45 1 21 42
M  V30 46 1 22 43
M  V30 47 1 22 44
M  V30 48 1 23 45
M  V30 49 1 23 46
M  V30 50 1 24 47
M  V30 END BOND
M  V30 END CTAB
M  END
>  <Dataset>  (326) 
ChEMBL_Kinases

>  <Ligand_Instance>  (326) 
nan

>  <PDB_ID>  (326) 
nan

>  <Standardized_SMILES>  (326) 
COc1ccc(F)cc1-c1ccnc2[nH]c(C3CCCC(N)C3)cc12

>  <Name>  (326) 
nan

>  <Pocket>  (326) 
nan

>  <ATP_Site>  (326) 
nan

>  <Peripheral>  (326) 
nan

>  <Num_H_Atoms_ProtBoundConf>  (326) 
nan

>  <Num_Resolved_Atoms>  (326) 
nan

>  <Num_Not_Resolved_Atoms>  (326) 
nan

$$$$
CHEMBL3668348
     RDKit          3D

  0  0  0  0  0  0  0  0  0  0999 V3000
M  V30 BEGIN CTAB
M  V30 COUNTS 47 50 0 0 0
M  V30 BEGIN ATOM
M  V30 1 C 0.061441 -3.883084 -1.928460 0
M  V30 2 O -0.013556 -2.471728 -1.855474 0
M  V30 3 C 1.151350 -1.759591 -1.724404 0
M  V30 4 C 2.397921 -2.379265 -1.661343 0
M  V30 5 C 3.561418 -1.652788 -1.529579 0
M  V30 6 C 3.501511 -0.278968 -1.457516 0
M  V30 7 F 4.674965 0.394048 -1.327967 0
M  V30 8 C 2.296629 0.411030 -1.513382 0
M  V30 9 C 1.163514 -0.390911 -1.646980 0
M  V30 10 C -0.157962 0.266346 -1.713793 0
M  V30 11 C -0.699829 0.648737 -2.937925 0
M  V30 12 C -1.947522 1.260412 -2.907454 0
M  V30 13 N -2.596517 1.470748 -1.748711 0
M  V30 14 C -2.061778 1.096361 -0.572188 0
M  V30 15 N -2.506828 1.194533 0.710734 0
M  V30 16 C -1.594076 0.666502 1.542336 0
M  V30 17 C -1.637954 0.546936 3.038626 0
M  V30 18 C -0.562106 1.351819 3.713152 0
M  V30 19 C -0.074675 0.649274 4.960836 0
M  V30 20 C 0.561105 -0.669886 4.640952 0
M  V30 21 N 1.895501 -0.504177 4.066955 0
M  V30 22 C -0.331003 -1.493610 3.783070 0
M  V30 23 C -1.662846 -0.888657 3.460935 0
M  V30 24 C -0.519657 0.207376 0.799568 0
M  V30 25 C -0.838427 0.489925 -0.531099 0
M  V30 26 H 0.677441 -4.277097 -1.075882 0
M  V30 27 H 0.577782 -4.214549 -2.840970 0
M  V30 28 H -0.948337 -4.343240 -1.785587 0
M  V30 29 H 2.431794 -3.452574 -1.718654 0
M  V30 30 H 4.502068 -2.151199 -1.483692 0
M  V30 31 H 2.250820 1.474770 -1.457536 0
M  V30 32 H -0.116238 0.445562 -3.831089 0
M  V30 33 H -2.354148 1.551080 -3.865677 0
M  V30 34 H -3.414537 1.615146 0.991355 0
M  V30 35 H -2.612367 1.000382 3.319414 0
M  V30 36 H 0.318792 1.510358 3.053761 0
M  V30 37 H -0.898899 2.363668 4.028007 0
M  V30 38 H 0.583582 1.321534 5.521207 0
M  V30 39 H -0.936691 0.413263 5.637086 0
M  V30 40 H 0.755710 -1.154731 5.639002 0
M  V30 41 H 1.854926 0.140762 3.264168 0
M  V30 42 H 2.245587 -1.437823 3.783755 0
M  V30 43 H 0.241872 -1.838837 2.896895 0
M  V30 44 H -0.560455 -2.443655 4.339067 0
M  V30 45 H -2.111825 -1.478764 2.634190 0
M  V30 46 H -2.349901 -1.000646 4.324262 0
M  V30 47 H 0.392491 -0.269064 1.087624 0
M  V30 END ATOM
M  V30 BEGIN BOND
M  V30 1 1 1 2
M  V30 2 1 2 3
M  V30 3 2 3 4
M  V30 4 1 4 5
M  V30 5 2 5 6
M  V30 6 1 6 7
M  V30 7 1 6 8
M  V30 8 2 8 9
M  V30 9 1 9 10
M  V30 10 2 10 11
M  V30 11 1 11 12
M  V30 12 2 12 13
M  V30 13 1 13 14
M  V30 14 1 14 15
M  V30 15 1 15 16
M  V30 16 1 16 17
M  V30 17 1 17 18
M  V30 18 1 18 19
M  V30 19 1 19 20
M  V30 20 1 20 21
M  V30 21 1 20 22
M  V30 22 1 22 23
M  V30 23 2 16 24
M  V30 24 1 24 25
M  V30 25 1 9 3
M  V30 26 1 25 10
M  V30 27 2 25 14
M  V30 28 1 23 17
M  V30 29 1 1 26
M  V30 30 1 1 27
M  V30 31 1 1 28
M  V30 32 1 4 29
M  V30 33 1 5 30
M  V30 34 1 8 31
M  V30 35 1 11 32
M  V30 36 1 12 33
M  V30 37 1 15 34
M  V30 38 1 17 35
M  V30 39 1 18 36
M  V30 40 1 18 37
M  V30 41 1 19 38
M  V30 42 1 19 39
M  V30 43 1 20 40
M  V30 44 1 21 41
M  V30 45 1 21 42
M  V30 46 1 22 43
M  V30 47 1 22 44
M  V30 48 1 23 45
M  V30 49 1 23 46
M  V30 50 1 24 47
M  V30 END BOND
M  V30 END CTAB
M  END
>  <Dataset>  (327) 
ChEMBL_Kinases

>  <Ligand_Instance>  (327) 
nan

>  <PDB_ID>  (327) 
nan

>  <Standardized_SMILES>  (327) 
COc1ccc(F)cc1-c1ccnc2[nH]c(C3CCC(N)CC3)cc12

>  <Name>  (327) 
nan

>  <Pocket>  (327) 
nan

>  <ATP_Site>  (327) 
nan

>  <Peripheral>  (327) 
nan

>  <Num_H_Atoms_ProtBoundConf>  (327) 
nan

>  <Num_Resolved_Atoms>  (327) 
nan

>  <Num_Not_Resolved_Atoms>  (327) 
nan

$$$$
CHEMBL3668347
     RDKit          3D

  0  0  0  0  0  0  0  0  0  0999 V3000
M  V30 BEGIN CTAB
M  V30 COUNTS 48 51 0 0 0
M  V30 BEGIN ATOM
M  V30 1 C 0.990829 -4.641970 -2.735851 0
M  V30 2 O 1.263449 -3.295540 -2.444439 0
M  V30 3 C 2.481571 -2.816532 -1.992816 0
M  V30 4 C 3.613280 -3.567935 -1.756995 0
M  V30 5 C 4.781056 -2.981979 -1.304574 0
M  V30 6 Cl 6.196713 -3.972971 -1.017433 0
M  V30 7 C 4.769708 -1.598942 -1.095672 0
M  V30 8 C 3.643767 -0.836028 -1.327935 0
M  V30 9 C 2.492302 -1.457750 -1.780786 0
M  V30 10 C 1.370774 -0.545916 -1.988785 0
M  V30 11 C 1.220983 0.042537 -3.232520 0
M  V30 12 C 0.122760 0.887260 -3.310754 0
M  V30 13 N -0.750599 1.155108 -2.320531 0
M  V30 14 C -0.567324 0.563059 -1.132149 0
M  V30 15 N -1.237040 0.612478 0.033631 0
M  V30 16 C -0.692319 -0.158650 0.990009 0
M  V30 17 C -1.091740 -0.395898 2.380299 0
M  V30 18 C -0.542764 0.664436 3.326096 0
M  V30 19 N -1.321554 0.574654 4.546501 0
M  V30 20 C -2.683234 1.024888 4.326254 0
M  V30 21 C -2.773465 2.536553 4.378259 0
M  V30 22 C -3.535660 0.501890 5.472016 0
M  V30 23 C -3.150170 0.475684 3.007791 0
M  V30 24 O -2.446376 -0.621357 2.566509 0
M  V30 25 C 0.411218 -0.730526 0.347022 0
M  V30 26 C 0.509966 -0.308049 -0.944699 0
M  V30 27 H 1.686042 -5.103201 -3.461364 0
M  V30 28 H 1.043305 -5.247600 -1.821331 0
M  V30 29 H -0.019274 -4.662368 -3.215413 0
M  V30 30 H 3.535526 -4.640961 -1.945927 0
M  V30 31 H 5.679640 -1.139782 -0.742745 0
M  V30 32 H 3.749196 0.233639 -1.130923 0
M  V30 33 H 1.867776 -0.114933 -4.072398 0
M  V30 34 H -0.053120 1.386370 -4.271283 0
M  V30 35 H -2.080027 1.194381 0.146869 0
M  V30 36 H -0.602095 -1.350691 2.735674 0
M  V30 37 H 0.510519 0.520879 3.587664 0
M  V30 38 H -0.658485 1.622373 2.812238 0
M  V30 39 H -0.849991 1.003537 5.352520 0
M  V30 40 H -1.789145 3.017125 4.452561 0
M  V30 41 H -3.254087 2.909337 3.437294 0
M  V30 42 H -3.391827 2.906044 5.219114 0
M  V30 43 H -3.042244 0.696239 6.424420 0
M  V30 44 H -3.792187 -0.580259 5.326565 0
M  V30 45 H -4.479143 1.093746 5.459784 0
M  V30 46 H -4.207789 0.113597 3.138138 0
M  V30 47 H -3.266729 1.285677 2.230912 0
M  V30 48 H 1.082032 -1.418865 0.843908 0
M  V30 END ATOM
M  V30 BEGIN BOND
M  V30 1 1 1 2
M  V30 2 1 2 3
M  V30 3 2 3 4
M  V30 4 1 4 5
M  V30 5 1 5 6
M  V30 6 2 5 7
M  V30 7 1 7 8
M  V30 8 2 8 9
M  V30 9 1 9 10
M  V30 10 2 10 11
M  V30 11 1 11 12
M  V30 12 2 12 13
M  V30 13 1 13 14
M  V30 14 1 14 15
M  V30 15 1 15 16
M  V30 16 1 16 17
M  V30 17 1 17 18
M  V30 18 1 18 19
M  V30 19 1 19 20
M  V30 20 1 20 21
M  V30 21 1 20 22
M  V30 22 1 20 23
M  V30 23 1 23 24
M  V30 24 2 16 25
M  V30 25 1 25 26
M  V30 26 1 9 3
M  V30 27 1 26 10
M  V30 28 2 26 14
M  V30 29 1 24 17
M  V30 30 1 1 27
M  V30 31 1 1 28
M  V30 32 1 1 29
M  V30 33 1 4 30
M  V30 34 1 7 31
M  V30 35 1 8 32
M  V30 36 1 11 33
M  V30 37 1 12 34
M  V30 38 1 15 35
M  V30 39 1 17 36
M  V30 40 1 18 37
M  V30 41 1 18 38
M  V30 42 1 19 39
M  V30 43 1 21 40
M  V30 44 1 21 41
M  V30 45 1 21 42
M  V30 46 1 22 43
M  V30 47 1 22 44
M  V30 48 1 22 45
M  V30 49 1 23 46
M  V30 50 1 23 47
M  V30 51 1 25 48
M  V30 END BOND
M  V30 END CTAB
M  END
>  <Dataset>  (328) 
ChEMBL_Kinases

>  <Ligand_Instance>  (328) 
nan

>  <PDB_ID>  (328) 
nan

>  <Standardized_SMILES>  (328) 
COc1cc(Cl)ccc1-c1ccnc2[nH]c(C3CNC(C)(C)CO3)cc12

>  <Name>  (328) 
nan

>  <Pocket>  (328) 
nan

>  <ATP_Site>  (328) 
nan

>  <Peripheral>  (328) 
nan

>  <Num_H_Atoms_ProtBoundConf>  (328) 
nan

>  <Num_Resolved_Atoms>  (328) 
nan

>  <Num_Not_Resolved_Atoms>  (328) 
nan

$$$$
CHEMBL3668395
     RDKit          3D

  0  0  0  0  0  0  0  0  0  0999 V3000
M  V30 BEGIN CTAB
M  V30 COUNTS 58 61 0 0 0
M  V30 BEGIN ATOM
M  V30 1 C 2.560690 1.930302 -3.455774 0
M  V30 2 O 2.711666 1.998857 -2.051446 0
M  V30 3 C 3.439144 1.071045 -1.322625 0
M  V30 4 C 4.110394 -0.027176 -1.812737 0
M  V30 5 C 4.812177 -0.906760 -1.035032 0
M  V30 6 C 4.810898 -0.623612 0.314040 0
M  V30 7 F 5.504742 -1.483970 1.129371 0
M  V30 8 C 4.153818 0.470800 0.887169 0
M  V30 9 C 3.453578 1.332500 0.036189 0
M  V30 10 C 2.825786 2.415025 0.780468 0
M  V30 11 C 3.352348 3.656712 1.090657 0
M  V30 12 C 2.581716 4.548310 1.815466 0
M  V30 13 N 1.341110 4.230352 2.219351 0
M  V30 14 C 0.772021 3.040587 1.950323 0
M  V30 15 N -0.420784 2.484610 2.230051 0
M  V30 16 C -0.503536 1.235508 1.722659 0
M  V30 17 C -1.700477 0.393433 1.879823 0 CFG=1
M  V30 18 C -2.302288 0.184783 0.504102 0
M  V30 19 C -3.248226 -0.993110 0.488648 0
M  V30 20 C -2.509953 -2.301639 0.716078 0 CFG=2
M  V30 21 N -3.466077 -3.223447 1.224151 0
M  V30 22 C -3.017322 -4.538461 1.509380 0
M  V30 23 C -2.628359 -5.387590 0.355877 0
M  V30 24 O -1.586563 -4.861769 -0.397806 0
M  V30 25 C -3.781354 -5.761210 -0.542082 0
M  V30 26 O -4.303811 -4.697346 -1.260314 0
M  V30 27 C -1.304736 -2.068261 1.563896 0
M  V30 28 C -1.436894 -0.919897 2.538745 0
M  V30 29 C 0.692785 1.022877 1.106954 0
M  V30 30 C 1.534473 2.127815 1.219789 0
M  V30 31 H 2.278199 0.886913 -3.726325 0
M  V30 32 H 3.509504 2.150545 -3.942738 0
M  V30 33 H 1.778865 2.647392 -3.775142 0
M  V30 34 H 4.052741 -0.168230 -2.899867 0
M  V30 35 H 5.322456 -1.748532 -1.440356 0
M  V30 36 H 4.239820 0.566954 1.961990 0
M  V30 37 H 4.359063 3.815443 0.719525 0
M  V30 38 H 3.029881 5.506994 2.036608 0
M  V30 39 H -1.129664 3.035910 2.779930 0
M  V30 40 H -2.454341 0.980663 2.481369 0
M  V30 41 H -2.908182 1.084060 0.274694 0
M  V30 42 H -1.502573 0.081214 -0.247673 0
M  V30 43 H -4.010423 -0.811813 1.277846 0
M  V30 44 H -3.779324 -0.972925 -0.484079 0
M  V30 45 H -2.157874 -2.605516 -0.306845 0
M  V30 46 H -3.861165 -2.828688 2.109119 0
M  V30 47 H -2.195362 -4.602330 2.256416 0
M  V30 48 H -3.876580 -5.061652 2.016001 0
M  V30 49 H -2.246773 -6.344370 0.774327 0
M  V30 50 H -1.212964 -5.521345 -1.031771 0
M  V30 51 H -4.598050 -6.224015 0.028559 0
M  V30 52 H -3.381306 -6.511980 -1.278438 0
M  V30 53 H -4.608230 -4.993638 -2.154904 0
M  V30 54 H -0.450451 -1.804507 0.904083 0
M  V30 55 H -1.010109 -2.952129 2.147063 0
M  V30 56 H -2.291896 -1.177576 3.218827 0
M  V30 57 H -0.548626 -0.928812 3.185092 0
M  V30 58 H 0.951005 0.114851 0.598585 0
M  V30 END ATOM
M  V30 BEGIN BOND
M  V30 1 1 1 2
M  V30 2 1 2 3
M  V30 3 2 3 4
M  V30 4 1 4 5
M  V30 5 2 5 6
M  V30 6 1 6 7
M  V30 7 1 6 8
M  V30 8 2 8 9
M  V30 9 1 9 10
M  V30 10 2 10 11
M  V30 11 1 11 12
M  V30 12 2 12 13
M  V30 13 1 13 14
M  V30 14 1 14 15
M  V30 15 1 15 16
M  V30 16 1 16 17
M  V30 17 1 17 18
M  V30 18 1 18 19
M  V30 19 1 19 20
M  V30 20 1 20 21
M  V30 21 1 21 22
M  V30 22 1 22 23
M  V30 23 1 23 24
M  V30 24 1 23 25
M  V30 25 1 25 26
M  V30 26 1 20 27
M  V30 27 1 27 28
M  V30 28 2 16 29
M  V30 29 1 29 30
M  V30 30 1 9 3
M  V30 31 1 30 10
M  V30 32 2 30 14
M  V30 33 1 28 17
M  V30 34 1 1 31
M  V30 35 1 1 32
M  V30 36 1 1 33
M  V30 37 1 4 34
M  V30 38 1 5 35
M  V30 39 1 8 36
M  V30 40 1 11 37
M  V30 41 1 12 38
M  V30 42 1 15 39
M  V30 43 1 17 40 CFG=1
M  V30 44 1 18 41
M  V30 45 1 18 42
M  V30 46 1 19 43
M  V30 47 1 19 44
M  V30 48 1 20 45 CFG=3
M  V30 49 1 21 46
M  V30 50 1 22 47
M  V30 51 1 22 48
M  V30 52 1 23 49
M  V30 53 1 24 50
M  V30 54 1 25 51
M  V30 55 1 25 52
M  V30 56 1 26 53
M  V30 57 1 27 54
M  V30 58 1 27 55
M  V30 59 1 28 56
M  V30 60 1 28 57
M  V30 61 1 29 58
M  V30 END BOND
M  V30 END CTAB
M  END
>  <Dataset>  (329) 
ChEMBL_Kinases

>  <Ligand_Instance>  (329) 
nan

>  <PDB_ID>  (329) 
nan

>  <Standardized_SMILES>  (329) 
COc1ccc(F)cc1-c1ccnc2[nH]c([C@H]3CC[C@H](NCC(O)CO)CC3)cc12

>  <Name>  (329) 
nan

>  <Pocket>  (329) 
nan

>  <ATP_Site>  (329) 
nan

>  <Peripheral>  (329) 
nan

>  <Num_H_Atoms_ProtBoundConf>  (329) 
nan

>  <Num_Resolved_Atoms>  (329) 
nan

>  <Num_Not_Resolved_Atoms>  (329) 
nan

$$$$
CHEMBL3666772
     RDKit          3D

  0  0  0  0  0  0  0  0  0  0999 V3000
M  V30 BEGIN CTAB
M  V30 COUNTS 86 91 0 0 0
M  V30 BEGIN ATOM
M  V30 1 C -1.234143 -4.482630 -3.496131 0
M  V30 2 C -1.394381 -3.522899 -4.662124 0
M  V30 3 C -2.835279 -3.467912 -5.080025 0
M  V30 4 C -3.199890 -4.144462 -6.204831 0
M  V30 5 C -4.509490 -4.112347 -6.592289 0
M  V30 6 C -5.425358 -3.401940 -5.843260 0
M  V30 7 C -5.091568 -2.691981 -4.680495 0
M  V30 8 C -6.170328 -1.977368 -3.999395 0
M  V30 9 C -6.110946 -0.520278 -4.346143 0
M  V30 10 C -3.761776 -2.745042 -4.316613 0
M  V30 11 N -3.385044 -2.054698 -3.150438 0
M  V30 12 C -3.272407 -2.300514 -1.762971 0
M  V30 13 O -3.612644 -3.515106 -1.556986 0
M  V30 14 C -2.851249 -1.390866 -0.720500 0
M  V30 15 C -2.719293 -0.037933 -0.511417 0
M  V30 16 C -2.158336 0.205999 0.716353 0
M  V30 17 N -1.962007 -0.985791 1.231800 0
M  V30 18 N -2.350328 -1.966239 0.432685 0
M  V30 19 C -2.239401 -3.384286 0.773337 0
M  V30 20 C -1.811439 1.453680 1.373568 0
M  V30 21 N -1.126256 1.302402 2.547402 0
M  V30 22 C -0.725763 2.385528 3.272416 0
M  V30 23 N -0.024535 1.911300 4.418399 0
M  V30 24 C 1.373620 1.659487 4.167262 0
M  V30 25 C 1.974205 1.898485 2.929289 0
M  V30 26 C 3.285870 1.684198 2.583323 0
M  V30 27 C 4.100380 1.172517 3.578451 0
M  V30 28 N 5.445759 0.952810 3.178114 0
M  V30 29 C 6.457047 0.039081 3.745926 0
M  V30 30 C 6.918010 -0.919151 2.650996 0
M  V30 31 N 6.131436 -0.705888 1.444393 0
M  V30 32 C 6.406217 -1.734087 0.493263 0
M  V30 33 C 6.432907 0.623886 0.961682 0
M  V30 34 C 6.135639 1.596694 2.092738 0
M  V30 35 C 3.585233 0.912360 4.821406 0
M  V30 36 C 2.259365 1.144761 5.122902 0
M  V30 37 O 1.721265 0.888739 6.375848 0
M  V30 38 C 2.600277 0.365378 7.367327 0
M  V30 39 N -1.000857 3.632661 2.843207 0
M  V30 40 C -1.686275 3.813967 1.670449 0
M  V30 41 C -2.093940 2.727861 0.932174 0
M  V30 42 C -2.817305 3.099054 -0.323126 0
M  V30 43 C -3.809103 2.089152 -0.760228 0
M  V30 44 C -3.198734 0.909503 -1.547120 0
M  V30 45 H -0.444521 -5.229451 -3.689784 0
M  V30 46 H -2.175187 -5.060592 -3.336211 0
M  V30 47 H -1.005808 -3.901728 -2.577500 0
M  V30 48 H -0.772232 -3.893388 -5.500927 0
M  V30 49 H -1.055782 -2.495755 -4.433197 0
M  V30 50 H -2.526509 -4.720015 -6.834173 0
M  V30 51 H -4.833331 -4.643707 -7.489125 0
M  V30 52 H -6.444730 -3.416258 -6.201528 0
M  V30 53 H -6.186463 -2.151784 -2.898738 0
M  V30 54 H -7.154674 -2.357763 -4.347576 0
M  V30 55 H -5.098959 -0.101197 -4.229475 0
M  V30 56 H -6.875824 0.089948 -3.795531 0
M  V30 57 H -6.344520 -0.395449 -5.445503 0
M  V30 58 H -3.107959 -1.127961 -3.533889 0
M  V30 59 H -1.672790 -3.969401 0.023871 0
M  V30 60 H -3.212231 -3.854373 0.929942 0
M  V30 61 H -1.659780 -3.462341 1.710450 0
M  V30 62 H -0.319452 1.716944 5.381302 0
M  V30 63 H 1.322793 2.304416 2.138463 0
M  V30 64 H 3.603216 1.925319 1.559561 0
M  V30 65 H 6.062074 -0.573255 4.561449 0
M  V30 66 H 7.271316 0.664424 4.147210 0
M  V30 67 H 7.999543 -0.742576 2.494687 0
M  V30 68 H 6.793024 -1.980996 2.928554 0
M  V30 69 H 5.607980 -1.648756 -0.306307 0
M  V30 70 H 7.373346 -1.572245 -0.046622 0
M  V30 71 H 6.302648 -2.723317 0.946109 0
M  V30 72 H 5.813441 0.884741 0.067715 0
M  V30 73 H 7.519780 0.646354 0.666745 0
M  V30 74 H 5.560969 2.447673 1.642554 0
M  V30 75 H 7.122961 2.044796 2.385075 0
M  V30 76 H 4.254026 0.513166 5.574764 0
M  V30 77 H 3.536322 0.952774 7.436659 0
M  V30 78 H 2.894245 -0.683993 7.184702 0
M  V30 79 H 2.089065 0.358069 8.364223 0
M  V30 80 H -1.886050 4.818554 1.361978 0
M  V30 81 H -2.073652 3.266925 -1.158075 0
M  V30 82 H -3.358891 4.054782 -0.126568 0
M  V30 83 H -4.428599 1.732249 0.081594 0
M  V30 84 H -4.506999 2.600061 -1.484379 0
M  V30 85 H -4.000615 0.457372 -2.175402 0
M  V30 86 H -2.342866 1.291653 -2.100342 0
M  V30 END ATOM
M  V30 BEGIN BOND
M  V30 1 1 1 2
M  V30 2 1 2 3
M  V30 3 2 3 4
M  V30 4 1 4 5
M  V30 5 2 5 6
M  V30 6 1 6 7
M  V30 7 1 7 8
M  V30 8 1 8 9
M  V30 9 2 7 10
M  V30 10 1 10 11
M  V30 11 1 11 12
M  V30 12 2 12 13
M  V30 13 1 12 14
M  V30 14 2 14 15
M  V30 15 1 15 16
M  V30 16 2 16 17
M  V30 17 1 17 18
M  V30 18 1 18 19
M  V30 19 1 16 20
M  V30 20 2 20 21
M  V30 21 1 21 22
M  V30 22 1 22 23
M  V30 23 1 23 24
M  V30 24 2 24 25
M  V30 25 1 25 26
M  V30 26 2 26 27
M  V30 27 1 27 28
M  V30 28 1 28 29
M  V30 29 1 29 30
M  V30 30 1 30 31
M  V30 31 1 31 32
M  V30 32 1 31 33
M  V30 33 1 33 34
M  V30 34 1 27 35
M  V30 35 2 35 36
M  V30 36 1 36 37
M  V30 37 1 37 38
M  V30 38 2 22 39
M  V30 39 1 39 40
M  V30 40 2 40 41
M  V30 41 1 41 42
M  V30 42 1 42 43
M  V30 43 1 43 44
M  V30 44 1 10 3
M  V30 45 1 18 14
M  V30 46 1 41 20
M  V30 47 1 44 15
M  V30 48 1 36 24
M  V30 49 1 34 28
M  V30 50 1 1 45
M  V30 51 1 1 46
M  V30 52 1 1 47
M  V30 53 1 2 48
M  V30 54 1 2 49
M  V30 55 1 4 50
M  V30 56 1 5 51
M  V30 57 1 6 52
M  V30 58 1 8 53
M  V30 59 1 8 54
M  V30 60 1 9 55
M  V30 61 1 9 56
M  V30 62 1 9 57
M  V30 63 1 11 58
M  V30 64 1 19 59
M  V30 65 1 19 60
M  V30 66 1 19 61
M  V30 67 1 23 62
M  V30 68 1 25 63
M  V30 69 1 26 64
M  V30 70 1 29 65
M  V30 71 1 29 66
M  V30 72 1 30 67
M  V30 73 1 30 68
M  V30 74 1 32 69
M  V30 75 1 32 70
M  V30 76 1 32 71
M  V30 77 1 33 72
M  V30 78 1 33 73
M  V30 79 1 34 74
M  V30 80 1 34 75
M  V30 81 1 35 76
M  V30 82 1 38 77
M  V30 83 1 38 78
M  V30 84 1 38 79
M  V30 85 1 40 80
M  V30 86 1 42 81
M  V30 87 1 42 82
M  V30 88 1 43 83
M  V30 89 1 43 84
M  V30 90 1 44 85
M  V30 91 1 44 86
M  V30 END BOND
M  V30 END CTAB
M  END
>  <Dataset>  (330) 
ChEMBL_Kinases

>  <Ligand_Instance>  (330) 
nan

>  <PDB_ID>  (330) 
nan

>  <Standardized_SMILES>  (330) 
CCc1cccc(CC)c1NC(=O)c1c2c(nn1C)-c1nc(Nc3ccc(N4CCN(C)CC4)cc3OC)ncc1CCC2

>  <Name>  (330) 
nan

>  <Pocket>  (330) 
nan

>  <ATP_Site>  (330) 
nan

>  <Peripheral>  (330) 
nan

>  <Num_H_Atoms_ProtBoundConf>  (330) 
nan

>  <Num_Resolved_Atoms>  (330) 
nan

>  <Num_Not_Resolved_Atoms>  (330) 
nan

$$$$
CHEMBL3666773
     RDKit          3D

  0  0  0  0  0  0  0  0  0  0999 V3000
M  V30 BEGIN CTAB
M  V30 COUNTS 82 87 0 0 0
M  V30 BEGIN ATOM
M  V30 1 C -3.958595 -6.273247 0.454463 0
M  V30 2 C -2.950562 -6.520639 -0.640809 0
M  V30 3 C -3.497344 -6.078828 -1.944007 0
M  V30 4 C -3.953414 -6.999288 -2.843803 0
M  V30 5 C -4.442512 -6.522506 -4.020670 0
M  V30 6 C -4.517663 -5.198757 -4.382056 0
M  V30 7 C -4.039807 -4.290397 -3.431632 0
M  V30 8 C -4.082899 -2.824183 -3.743664 0
M  V30 9 C -2.687304 -2.363544 -4.096099 0
M  V30 10 C -3.524192 -4.717723 -2.202133 0
M  V30 11 N -3.066378 -3.708445 -1.323993 0
M  V30 12 C -3.695560 -2.945834 -0.300085 0
M  V30 13 O -4.890816 -3.186018 -0.107624 0
M  V30 14 C -2.842358 -1.981880 0.384833 0
M  V30 15 N -1.518039 -1.702051 0.189582 0
M  V30 16 O -1.175040 -0.757789 1.040225 0
M  V30 17 C -2.209939 -0.423038 1.765434 0
M  V30 18 C -3.333550 -1.163891 1.410592 0
M  V30 19 C -4.700829 -1.112889 1.965747 0
M  V30 20 C -4.936839 0.305595 2.462075 0
M  V30 21 C -4.365204 0.530284 3.845824 0
M  V30 22 C -2.977924 1.072810 3.724083 0
M  V30 23 C -2.583815 2.071514 4.575398 0
M  V30 24 N -1.347324 2.577347 4.483996 0
M  V30 25 C -0.442636 2.156439 3.586159 0
M  V30 26 N 0.847098 2.747364 3.551479 0
M  V30 27 C 1.934767 2.446018 2.695443 0
M  V30 28 C 1.937875 1.479894 1.715715 0
M  V30 29 C 2.986657 1.174416 0.874370 0
M  V30 30 C 4.150871 1.894272 1.012673 0
M  V30 31 N 5.261806 1.631605 0.178852 0
M  V30 32 C 5.316819 0.590808 -0.830274 0
M  V30 33 C 6.194729 0.973461 -1.995602 0
M  V30 34 N 6.128014 2.401429 -2.247699 0
M  V30 35 C 6.894464 2.718457 -3.439846 0
M  V30 36 C 6.564819 3.170085 -1.115027 0
M  V30 37 C 6.524634 2.335300 0.169352 0
M  V30 38 C 4.199562 2.872324 1.978143 0
M  V30 39 C 3.126033 3.143384 2.797216 0
M  V30 40 O 3.231145 4.156040 3.769729 0
M  V30 41 C 4.414920 4.913655 3.937968 0
M  V30 42 N -0.874618 1.181060 2.778947 0
M  V30 43 C -2.084266 0.610540 2.788419 0
M  V30 44 H -3.519877 -5.529956 1.141749 0
M  V30 45 H -4.914389 -5.931521 0.001293 0
M  V30 46 H -4.234293 -7.218834 1.007701 0
M  V30 47 H -2.730796 -7.617328 -0.635077 0
M  V30 48 H -1.972407 -6.026522 -0.437868 0
M  V30 49 H -3.940413 -8.054380 -2.661761 0
M  V30 50 H -4.821945 -7.221673 -4.777847 0
M  V30 51 H -4.901391 -4.811416 -5.307174 0
M  V30 52 H -4.760285 -2.673412 -4.615482 0
M  V30 53 H -4.464471 -2.255134 -2.890402 0
M  V30 54 H -1.963662 -3.192158 -3.931936 0
M  V30 55 H -2.400972 -1.569262 -3.386896 0
M  V30 56 H -2.622832 -1.995578 -5.145763 0
M  V30 57 H -2.053419 -3.577912 -1.562379 0
M  V30 58 H -4.824578 -1.759683 2.871314 0
M  V30 59 H -5.480494 -1.357890 1.208404 0
M  V30 60 H -4.419618 1.049126 1.786762 0
M  V30 61 H -5.994543 0.603536 2.448004 0
M  V30 62 H -5.016867 1.209867 4.392980 0
M  V30 63 H -4.270593 -0.445705 4.370703 0
M  V30 64 H -3.325314 2.394585 5.288131 0
M  V30 65 H 1.021495 3.517271 4.260217 0
M  V30 66 H 1.053248 0.883176 1.560191 0
M  V30 67 H 2.866617 0.374582 0.126732 0
M  V30 68 H 4.328345 0.329380 -1.251288 0
M  V30 69 H 5.774984 -0.326207 -0.363899 0
M  V30 70 H 7.246010 0.705112 -1.722608 0
M  V30 71 H 5.846173 0.442226 -2.882179 0
M  V30 72 H 6.653866 2.056832 -4.280891 0
M  V30 73 H 7.985425 2.622378 -3.256642 0
M  V30 74 H 6.712409 3.750984 -3.784829 0
M  V30 75 H 7.644356 3.449228 -1.250448 0
M  V30 76 H 5.981235 4.101891 -1.015422 0
M  V30 77 H 6.668180 3.046973 0.983531 0
M  V30 78 H 7.411439 1.667936 0.120775 0
M  V30 79 H 5.079559 3.480869 2.149122 0
M  V30 80 H 4.234417 5.575828 4.813255 0
M  V30 81 H 4.561367 5.468250 2.991506 0
M  V30 82 H 5.242871 4.192222 4.140447 0
M  V30 END ATOM
M  V30 BEGIN BOND
M  V30 1 1 1 2
M  V30 2 1 2 3
M  V30 3 2 3 4
M  V30 4 1 4 5
M  V30 5 2 5 6
M  V30 6 1 6 7
M  V30 7 1 7 8
M  V30 8 1 8 9
M  V30 9 2 7 10
M  V30 10 1 10 11
M  V30 11 1 11 12
M  V30 12 2 12 13
M  V30 13 1 12 14
M  V30 14 2 14 15
M  V30 15 1 15 16
M  V30 16 1 16 17
M  V30 17 2 17 18
M  V30 18 1 18 19
M  V30 19 1 19 20
M  V30 20 1 20 21
M  V30 21 1 21 22
M  V30 22 2 22 23
M  V30 23 1 23 24
M  V30 24 2 24 25
M  V30 25 1 25 26
M  V30 26 1 26 27
M  V30 27 2 27 28
M  V30 28 1 28 29
M  V30 29 2 29 30
M  V30 30 1 30 31
M  V30 31 1 31 32
M  V30 32 1 32 33
M  V30 33 1 33 34
M  V30 34 1 34 35
M  V30 35 1 34 36
M  V30 36 1 36 37
M  V30 37 1 30 38
M  V30 38 2 38 39
M  V30 39 1 39 40
M  V30 40 1 40 41
M  V30 41 1 25 42
M  V30 42 2 42 43
M  V30 43 1 10 3
M  V30 44 1 18 14
M  V30 45 1 43 22
M  V30 46 1 43 17
M  V30 47 1 39 27
M  V30 48 1 37 31
M  V30 49 1 1 44
M  V30 50 1 1 45
M  V30 51 1 1 46
M  V30 52 1 2 47
M  V30 53 1 2 48
M  V30 54 1 4 49
M  V30 55 1 5 50
M  V30 56 1 6 51
M  V30 57 1 8 52
M  V30 58 1 8 53
M  V30 59 1 9 54
M  V30 60 1 9 55
M  V30 61 1 9 56
M  V30 62 1 11 57
M  V30 63 1 19 58
M  V30 64 1 19 59
M  V30 65 1 20 60
M  V30 66 1 20 61
M  V30 67 1 21 62
M  V30 68 1 21 63
M  V30 69 1 23 64
M  V30 70 1 26 65
M  V30 71 1 28 66
M  V30 72 1 29 67
M  V30 73 1 32 68
M  V30 74 1 32 69
M  V30 75 1 33 70
M  V30 76 1 33 71
M  V30 77 1 35 72
M  V30 78 1 35 73
M  V30 79 1 35 74
M  V30 80 1 36 75
M  V30 81 1 36 76
M  V30 82 1 37 77
M  V30 83 1 37 78
M  V30 84 1 38 79
M  V30 85 1 41 80
M  V30 86 1 41 81
M  V30 87 1 41 82
M  V30 END BOND
M  V30 END CTAB
M  END
>  <Dataset>  (331) 
ChEMBL_Kinases

>  <Ligand_Instance>  (331) 
nan

>  <PDB_ID>  (331) 
nan

>  <Standardized_SMILES>  (331) 
CCc1cccc(CC)c1NC(=O)c1noc2c1CCCc1cnc(Nc3ccc(N4CCN(C)CC4)cc3OC)nc1-2

>  <Name>  (331) 
nan

>  <Pocket>  (331) 
nan

>  <ATP_Site>  (331) 
nan

>  <Peripheral>  (331) 
nan

>  <Num_H_Atoms_ProtBoundConf>  (331) 
nan

>  <Num_Resolved_Atoms>  (331) 
nan

>  <Num_Not_Resolved_Atoms>  (331) 
nan

$$$$
CHEMBL3666774
     RDKit          3D

  0  0  0  0  0  0  0  0  0  0999 V3000
M  V30 BEGIN CTAB
M  V30 COUNTS 82 87 0 0 0
M  V30 BEGIN ATOM
M  V30 1 C -4.054229 -6.256043 0.597989 0
M  V30 2 C -2.977664 -6.489508 -0.423045 0
M  V30 3 C -3.513900 -6.072256 -1.752071 0
M  V30 4 C -3.895559 -7.110714 -2.610499 0
M  V30 5 C -4.402152 -6.764143 -3.856781 0
M  V30 6 C -4.536643 -5.451789 -4.263311 0
M  V30 7 C -4.149000 -4.429867 -3.389526 0
M  V30 8 C -4.293047 -3.001223 -3.821652 0
M  V30 9 C -2.946329 -2.436207 -4.194206 0
M  V30 10 C -3.638610 -4.749734 -2.135889 0
M  V30 11 N -3.235101 -3.744877 -1.231618 0
M  V30 12 C -3.780969 -2.955450 -0.188053 0
M  V30 13 O -4.978435 -3.190990 0.027382 0
M  V30 14 C -2.883733 -2.010860 0.460679 0
M  V30 15 O -1.599862 -1.778410 0.197351 0
M  V30 16 N -1.162201 -0.857035 1.005171 0
M  V30 17 C -2.177281 -0.467342 1.824831 0
M  V30 18 C -3.324121 -1.203427 1.496421 0
M  V30 19 C -4.661258 -1.143885 2.091600 0
M  V30 20 C -4.875728 0.259395 2.651786 0
M  V30 21 C -4.224800 0.435595 4.007899 0
M  V30 22 C -2.842236 0.987678 3.825134 0
M  V30 23 C -2.442381 1.970674 4.688179 0
M  V30 24 N -1.216022 2.485199 4.548998 0
M  V30 25 C -0.336148 2.102818 3.611679 0
M  V30 26 N 0.940071 2.717305 3.555131 0
M  V30 27 C 2.002995 2.476384 2.651038 0
M  V30 28 C 1.989881 1.566382 1.617893 0
M  V30 29 C 3.019735 1.327868 0.733421 0
M  V30 30 C 4.173690 2.058535 0.883408 0
M  V30 31 N 5.248439 1.833292 -0.019254 0
M  V30 32 C 5.068411 0.893318 -1.123794 0
M  V30 33 C 6.141079 1.119848 -2.171907 0
M  V30 34 N 6.277054 2.547137 -2.399859 0
M  V30 35 C 7.032667 2.853333 -3.591399 0
M  V30 36 C 6.794771 3.232086 -1.248671 0
M  V30 37 C 6.558192 2.448850 0.030898 0
M  V30 38 C 4.243018 2.979772 1.896368 0
M  V30 39 C 3.188481 3.179595 2.751404 0
M  V30 40 O 3.322591 4.137825 3.768040 0
M  V30 41 C 4.504925 4.875549 3.909732 0
M  V30 42 N -0.780719 1.137982 2.795089 0
M  V30 43 C -1.986909 0.558213 2.849803 0
M  V30 44 H -3.821378 -5.440157 1.305751 0
M  V30 45 H -5.033400 -5.993463 0.110333 0
M  V30 46 H -4.237261 -7.235364 1.105750 0
M  V30 47 H -2.574777 -7.502683 -0.458095 0
M  V30 48 H -2.120017 -5.786927 -0.208677 0
M  V30 49 H -3.820438 -8.160500 -2.363961 0
M  V30 50 H -4.701365 -7.582270 -4.529694 0
M  V30 51 H -4.941947 -5.248149 -5.256928 0
M  V30 52 H -4.938975 -2.977729 -4.720122 0
M  V30 53 H -4.713727 -2.385284 -2.992770 0
M  V30 54 H -2.103644 -3.096328 -3.837870 0
M  V30 55 H -2.837255 -1.406036 -3.762170 0
M  V30 56 H -2.909539 -2.320797 -5.293049 0
M  V30 57 H -2.215621 -3.634249 -1.507681 0
M  V30 58 H -4.794447 -1.844830 2.964837 0
M  V30 59 H -5.431578 -1.323588 1.309591 0
M  V30 60 H -4.476814 1.007891 1.912192 0
M  V30 61 H -5.959517 0.471689 2.748715 0
M  V30 62 H -4.859270 1.113502 4.612781 0
M  V30 63 H -4.122347 -0.559162 4.480724 0
M  V30 64 H -3.136216 2.276032 5.431800 0
M  V30 65 H 1.128757 3.460347 4.290342 0
M  V30 66 H 1.107905 0.969604 1.459330 0
M  V30 67 H 2.910246 0.586827 -0.047175 0
M  V30 68 H 4.086115 1.117921 -1.601846 0
M  V30 69 H 5.157256 -0.131244 -0.744248 0
M  V30 70 H 7.085901 0.648652 -1.866115 0
M  V30 71 H 5.815827 0.639818 -3.116412 0
M  V30 72 H 6.643969 2.311342 -4.482494 0
M  V30 73 H 8.102406 2.577273 -3.451628 0
M  V30 74 H 6.977149 3.935383 -3.811683 0
M  V30 75 H 7.896778 3.330041 -1.409065 0
M  V30 76 H 6.376542 4.233023 -1.143867 0
M  V30 77 H 6.700673 3.147950 0.853978 0
M  V30 78 H 7.336143 1.651822 0.063372 0
M  V30 79 H 5.131494 3.578250 2.052843 0
M  V30 80 H 4.331839 5.616664 4.712189 0
M  V30 81 H 4.697998 5.410697 2.945940 0
M  V30 82 H 5.365193 4.213995 4.163012 0
M  V30 END ATOM
M  V30 BEGIN BOND
M  V30 1 1 1 2
M  V30 2 1 2 3
M  V30 3 2 3 4
M  V30 4 1 4 5
M  V30 5 2 5 6
M  V30 6 1 6 7
M  V30 7 1 7 8
M  V30 8 1 8 9
M  V30 9 2 7 10
M  V30 10 1 10 11
M  V30 11 1 11 12
M  V30 12 2 12 13
M  V30 13 1 12 14
M  V30 14 1 14 15
M  V30 15 1 15 16
M  V30 16 2 16 17
M  V30 17 1 17 18
M  V30 18 1 18 19
M  V30 19 1 19 20
M  V30 20 1 20 21
M  V30 21 1 21 22
M  V30 22 2 22 23
M  V30 23 1 23 24
M  V30 24 2 24 25
M  V30 25 1 25 26
M  V30 26 1 26 27
M  V30 27 2 27 28
M  V30 28 1 28 29
M  V30 29 2 29 30
M  V30 30 1 30 31
M  V30 31 1 31 32
M  V30 32 1 32 33
M  V30 33 1 33 34
M  V30 34 1 34 35
M  V30 35 1 34 36
M  V30 36 1 36 37
M  V30 37 1 30 38
M  V30 38 2 38 39
M  V30 39 1 39 40
M  V30 40 1 40 41
M  V30 41 1 25 42
M  V30 42 2 42 43
M  V30 43 1 10 3
M  V30 44 2 18 14
M  V30 45 1 43 22
M  V30 46 1 43 17
M  V30 47 1 39 27
M  V30 48 1 37 31
M  V30 49 1 1 44
M  V30 50 1 1 45
M  V30 51 1 1 46
M  V30 52 1 2 47
M  V30 53 1 2 48
M  V30 54 1 4 49
M  V30 55 1 5 50
M  V30 56 1 6 51
M  V30 57 1 8 52
M  V30 58 1 8 53
M  V30 59 1 9 54
M  V30 60 1 9 55
M  V30 61 1 9 56
M  V30 62 1 11 57
M  V30 63 1 19 58
M  V30 64 1 19 59
M  V30 65 1 20 60
M  V30 66 1 20 61
M  V30 67 1 21 62
M  V30 68 1 21 63
M  V30 69 1 23 64
M  V30 70 1 26 65
M  V30 71 1 28 66
M  V30 72 1 29 67
M  V30 73 1 32 68
M  V30 74 1 32 69
M  V30 75 1 33 70
M  V30 76 1 33 71
M  V30 77 1 35 72
M  V30 78 1 35 73
M  V30 79 1 35 74
M  V30 80 1 36 75
M  V30 81 1 36 76
M  V30 82 1 37 77
M  V30 83 1 37 78
M  V30 84 1 38 79
M  V30 85 1 41 80
M  V30 86 1 41 81
M  V30 87 1 41 82
M  V30 END BOND
M  V30 END CTAB
M  END
>  <Dataset>  (332) 
ChEMBL_Kinases

>  <Ligand_Instance>  (332) 
nan

>  <PDB_ID>  (332) 
nan

>  <Standardized_SMILES>  (332) 
CCc1cccc(CC)c1NC(=O)c1onc2c1CCCc1cnc(Nc3ccc(N4CCN(C)CC4)cc3OC)nc1-2

>  <Name>  (332) 
nan

>  <Pocket>  (332) 
nan

>  <ATP_Site>  (332) 
nan

>  <Peripheral>  (332) 
nan

>  <Num_H_Atoms_ProtBoundConf>  (332) 
nan

>  <Num_Resolved_Atoms>  (332) 
nan

>  <Num_Not_Resolved_Atoms>  (332) 
nan

$$$$
CHEMBL3666775
     RDKit          3D

  0  0  0  0  0  0  0  0  0  0999 V3000
M  V30 BEGIN CTAB
M  V30 COUNTS 91 96 0 0 0
M  V30 BEGIN ATOM
M  V30 1 C 4.730551 -0.851593 4.889003 0
M  V30 2 C 5.686185 -1.965082 5.140384 0
M  V30 3 C 5.164011 -3.329930 4.967937 0
M  V30 4 C 4.877046 -4.130568 6.090346 0
M  V30 5 C 4.414478 -5.425220 5.988232 0
M  V30 6 C 4.206766 -6.010337 4.763934 0
M  V30 7 C 4.469860 -5.277708 3.629847 0
M  V30 8 C 4.277373 -5.872391 2.278734 0
M  V30 9 C 5.603912 -6.270514 1.661007 0
M  V30 10 C 4.927797 -3.992041 3.780386 0
M  V30 11 N 5.179124 -3.243286 2.569096 0
M  V30 12 C 3.927925 -2.651773 2.264342 0
M  V30 13 O 3.075764 -2.998841 3.160114 0
M  V30 14 C 3.427599 -1.781561 1.227677 0
M  V30 15 N 2.373904 -0.954453 1.501903 0
M  V30 16 N 2.042523 -0.270924 0.416955 0
M  V30 17 C 0.980678 0.707147 0.436052 0
M  V30 18 C 2.829419 -0.602651 -0.595630 0
M  V30 19 C 3.698729 -1.546013 -0.091711 0
M  V30 20 C 4.759075 -2.206912 -0.873553 0
M  V30 21 C 5.640346 -1.086328 -1.449842 0
M  V30 22 C 5.182927 -0.626376 -2.799426 0
M  V30 23 C 3.797914 -0.117402 -2.841892 0
M  V30 24 C 3.541768 0.409346 -4.076517 0
M  V30 25 N 2.342704 0.911907 -4.361381 0
M  V30 26 C 1.309936 0.942412 -3.485622 0
M  V30 27 N 0.120126 1.508717 -4.002647 0
M  V30 28 C -1.182373 1.565958 -3.447683 0
M  V30 29 C -1.546382 1.004226 -2.252353 0
M  V30 30 C -2.829334 1.034941 -1.682324 0
M  V30 31 C -3.822526 1.692305 -2.390804 0
M  V30 32 C -5.140863 1.709720 -1.760492 0
M  V30 33 O -5.143532 1.369082 -0.544913 0
M  V30 34 N -6.392038 2.048797 -2.322536 0
M  V30 35 C -7.506163 1.978083 -1.454461 0
M  V30 36 C -7.966286 0.483106 -1.474869 0
M  V30 37 C -8.833100 0.260128 -0.243660 0
M  V30 38 N -9.725702 1.370720 -0.029895 0
M  V30 39 C -9.578479 2.010547 1.234285 0
M  V30 40 C -9.954611 2.211922 -1.153960 0
M  V30 41 C -8.697453 2.801996 -1.780341 0
M  V30 42 C -3.491449 2.266616 -3.594614 0
M  V30 43 C -2.205263 2.202283 -4.103355 0
M  V30 44 O -2.012099 2.825588 -5.326341 0
M  V30 45 C -3.040728 3.489520 -6.026663 0
M  V30 46 N 1.508621 0.426995 -2.227396 0
M  V30 47 C 2.751222 -0.087734 -1.945574 0
M  V30 48 H 3.670145 -1.075672 5.008735 0
M  V30 49 H 4.959681 0.044482 5.543191 0
M  V30 50 H 4.865534 -0.429444 3.854057 0
M  V30 51 H 6.005909 -1.868764 6.219888 0
M  V30 52 H 6.591011 -1.799361 4.478933 0
M  V30 53 H 5.045131 -3.651593 7.057553 0
M  V30 54 H 4.207471 -5.997541 6.881700 0
M  V30 55 H 3.853343 -7.001518 4.619711 0
M  V30 56 H 3.652971 -6.785726 2.324411 0
M  V30 57 H 3.830880 -5.120597 1.599648 0
M  V30 58 H 6.094180 -7.094576 2.202778 0
M  V30 59 H 6.261316 -5.368928 1.536575 0
M  V30 60 H 5.394956 -6.647075 0.638301 0
M  V30 61 H 5.913777 -2.991198 1.875350 0
M  V30 62 H 0.002341 0.185287 0.480071 0
M  V30 63 H 1.037281 1.218757 1.453777 0
M  V30 64 H 1.088467 1.476087 -0.323320 0
M  V30 65 H 5.378709 -2.925494 -0.360774 0
M  V30 66 H 4.247567 -2.627482 -1.776187 0
M  V30 67 H 6.696393 -1.424617 -1.504503 0
M  V30 68 H 5.633745 -0.216586 -0.764995 0
M  V30 69 H 5.254295 -1.529509 -3.474601 0
M  V30 70 H 5.859144 0.168193 -3.160140 0
M  V30 71 H 4.321240 0.428902 -4.855930 0
M  V30 72 H 0.168725 1.972254 -4.947040 0
M  V30 73 H -0.775244 0.479615 -1.723205 0
M  V30 74 H -2.929338 0.526959 -0.714739 0
M  V30 75 H -6.351145 2.320831 -3.338315 0
M  V30 76 H -7.155520 2.086290 -0.396250 0
M  V30 77 H -7.036661 -0.098397 -1.474522 0
M  V30 78 H -8.592103 0.303142 -2.365495 0
M  V30 79 H -9.441506 -0.654790 -0.363478 0
M  V30 80 H -8.209307 0.157701 0.673304 0
M  V30 81 H -8.506264 2.037353 1.592079 0
M  V30 82 H -10.160440 1.380524 1.971749 0
M  V30 83 H -9.984379 3.020008 1.289557 0
M  V30 84 H -10.530325 1.592420 -1.900061 0
M  V30 85 H -10.657789 3.008430 -0.825900 0
M  V30 86 H -8.886671 2.794651 -2.874317 0
M  V30 87 H -8.577212 3.815803 -1.349371 0
M  V30 88 H -4.277421 2.767818 -4.128347 0
M  V30 89 H -2.530565 4.018351 -6.877830 0
M  V30 90 H -3.477057 4.245221 -5.317049 0
M  V30 91 H -3.782241 2.752354 -6.378563 0
M  V30 END ATOM
M  V30 BEGIN BOND
M  V30 1 1 1 2
M  V30 2 1 2 3
M  V30 3 2 3 4
M  V30 4 1 4 5
M  V30 5 2 5 6
M  V30 6 1 6 7
M  V30 7 1 7 8
M  V30 8 1 8 9
M  V30 9 2 7 10
M  V30 10 1 10 11
M  V30 11 1 11 12
M  V30 12 2 12 13
M  V30 13 1 12 14
M  V30 14 2 14 15
M  V30 15 1 15 16
M  V30 16 1 16 17
M  V30 17 1 16 18
M  V30 18 2 18 19
M  V30 19 1 19 20
M  V30 20 1 20 21
M  V30 21 1 21 22
M  V30 22 1 22 23
M  V30 23 2 23 24
M  V30 24 1 24 25
M  V30 25 2 25 26
M  V30 26 1 26 27
M  V30 27 1 27 28
M  V30 28 2 28 29
M  V30 29 1 29 30
M  V30 30 2 30 31
M  V30 31 1 31 32
M  V30 32 2 32 33
M  V30 33 1 32 34
M  V30 34 1 34 35
M  V30 35 1 35 36
M  V30 36 1 36 37
M  V30 37 1 37 38
M  V30 38 1 38 39
M  V30 39 1 38 40
M  V30 40 1 40 41
M  V30 41 1 31 42
M  V30 42 2 42 43
M  V30 43 1 43 44
M  V30 44 1 44 45
M  V30 45 1 26 46
M  V30 46 2 46 47
M  V30 47 1 10 3
M  V30 48 1 19 14
M  V30 49 1 47 23
M  V30 50 1 47 18
M  V30 51 1 43 28
M  V30 52 1 41 35
M  V30 53 1 1 48
M  V30 54 1 1 49
M  V30 55 1 1 50
M  V30 56 1 2 51
M  V30 57 1 2 52
M  V30 58 1 4 53
M  V30 59 1 5 54
M  V30 60 1 6 55
M  V30 61 1 8 56
M  V30 62 1 8 57
M  V30 63 1 9 58
M  V30 64 1 9 59
M  V30 65 1 9 60
M  V30 66 1 11 61
M  V30 67 1 17 62
M  V30 68 1 17 63
M  V30 69 1 17 64
M  V30 70 1 20 65
M  V30 71 1 20 66
M  V30 72 1 21 67
M  V30 73 1 21 68
M  V30 74 1 22 69
M  V30 75 1 22 70
M  V30 76 1 24 71
M  V30 77 1 27 72
M  V30 78 1 29 73
M  V30 79 1 30 74
M  V30 80 1 34 75
M  V30 81 1 35 76
M  V30 82 1 36 77
M  V30 83 1 36 78
M  V30 84 1 37 79
M  V30 85 1 37 80
M  V30 86 1 39 81
M  V30 87 1 39 82
M  V30 88 1 39 83
M  V30 89 1 40 84
M  V30 90 1 40 85
M  V30 91 1 41 86
M  V30 92 1 41 87
M  V30 93 1 42 88
M  V30 94 1 45 89
M  V30 95 1 45 90
M  V30 96 1 45 91
M  V30 END BOND
M  V30 END CTAB
M  END
>  <Dataset>  (333) 
ChEMBL_Kinases

>  <Ligand_Instance>  (333) 
nan

>  <PDB_ID>  (333) 
nan

>  <Standardized_SMILES>  (333) 
CCc1cccc(CC)c1NC(=O)c1nn(C)c2c1CCCc1cnc(Nc3ccc(C(=O)NC4CCN(C)CC4)cc3OC)nc1-2

>  <Name>  (333) 
nan

>  <Pocket>  (333) 
nan

>  <ATP_Site>  (333) 
nan

>  <Peripheral>  (333) 
nan

>  <Num_H_Atoms_ProtBoundConf>  (333) 
nan

>  <Num_Resolved_Atoms>  (333) 
nan

>  <Num_Not_Resolved_Atoms>  (333) 
nan

$$$$
CHEMBL3666776
     RDKit          3D

  0  0  0  0  0  0  0  0  0  0999 V3000
M  V30 BEGIN CTAB
M  V30 COUNTS 91 96 0 0 0
M  V30 BEGIN ATOM
M  V30 1 C -0.111613 4.783264 1.705600 0
M  V30 2 C -1.331766 5.635579 1.571688 0
M  V30 3 C -2.150343 5.709193 2.796332 0
M  V30 4 C -2.088512 6.856902 3.593890 0
M  V30 5 C -2.811258 7.037559 4.743615 0
M  V30 6 C -3.632193 6.015466 5.103980 0
M  V30 7 C -3.776048 4.818052 4.383895 0
M  V30 8 C -4.713154 3.809882 4.912535 0
M  V30 9 C -4.040383 2.670427 5.633983 0
M  V30 10 C -3.009781 4.721804 3.238390 0
M  V30 11 N -3.129496 3.530698 2.475319 0
M  V30 12 C -2.376736 2.365939 2.630039 0
M  V30 13 O -1.561896 2.616377 3.598785 0
M  V30 14 C -2.226936 1.049143 2.085412 0
M  V30 15 N -1.238542 0.286735 2.556692 0
M  V30 16 N -1.219516 -0.901883 1.955876 0
M  V30 17 C -0.261047 -1.946985 2.243827 0
M  V30 18 C -2.218465 -0.944890 1.058112 0
M  V30 19 C -2.852511 0.275534 1.136774 0
M  V30 20 C -4.002175 0.658512 0.341652 0
M  V30 21 C -5.030462 -0.481009 0.362970 0
M  V30 22 C -4.833104 -1.467886 -0.745639 0
M  V30 23 C -3.618307 -2.289500 -0.562646 0
M  V30 24 C -3.631761 -3.456673 -1.306162 0
M  V30 25 N -2.616721 -4.354155 -1.288684 0
M  V30 26 C -1.522321 -4.156398 -0.535068 0
M  V30 27 N -0.315086 -4.877995 -0.330915 0
M  V30 28 C 0.889506 -4.334573 -0.871461 0
M  V30 29 C 0.835804 -3.146647 -1.570065 0
M  V30 30 C 1.986593 -2.591720 -2.089949 0
M  V30 31 C 3.181655 -3.229770 -1.907142 0
M  V30 32 C 4.319533 -2.538596 -2.486435 0
M  V30 33 O 4.785192 -1.880776 -1.514779 0
M  V30 34 N 4.985761 -2.414513 -3.732346 0
M  V30 35 C 6.109850 -1.540385 -3.711178 0
M  V30 36 C 5.902790 -0.406257 -4.721242 0
M  V30 37 C 4.500698 -0.419412 -5.248183 0
M  V30 38 N 4.308129 -1.279843 -6.379925 0
M  V30 39 C 2.914527 -1.242534 -6.754918 0
M  V30 40 C 4.829660 -2.596974 -6.174123 0
M  V30 41 C 4.450250 -3.169213 -4.831278 0
M  V30 42 C 3.233386 -4.432461 -1.200596 0
M  V30 43 C 2.079723 -4.981465 -0.683516 0
M  V30 44 O 2.187194 -6.165926 0.003916 0
M  V30 45 C 2.429245 -6.243711 1.378501 0
M  V30 46 F 3.625789 -5.658902 1.742877 0
M  V30 47 F 2.524868 -7.595353 1.688358 0
M  V30 48 F 1.443643 -5.599918 2.094721 0
M  V30 49 N -1.468826 -3.014178 0.216378 0
M  V30 50 C -2.479026 -2.102073 0.209866 0
M  V30 51 H -0.206346 3.792255 1.236535 0
M  V30 52 H 0.779644 5.313609 1.301982 0
M  V30 53 H 0.122030 4.600181 2.791652 0
M  V30 54 H -0.980501 6.686735 1.348448 0
M  V30 55 H -1.943419 5.367867 0.675958 0
M  V30 56 H -1.431191 7.666658 3.295652 0
M  V30 57 H -2.718152 7.951530 5.321957 0
M  V30 58 H -4.216607 6.136882 6.014469 0
M  V30 59 H -5.388539 4.293134 5.633579 0
M  V30 60 H -5.392950 3.434046 4.098036 0
M  V30 61 H -3.032829 3.003956 5.898354 0
M  V30 62 H -3.965899 1.807581 4.952561 0
M  V30 63 H -4.624481 2.338531 6.522020 0
M  V30 64 H -3.790280 3.404412 1.705133 0
M  V30 65 H 0.261140 -1.673662 3.194760 0
M  V30 66 H -0.761843 -2.912846 2.477257 0
M  V30 67 H 0.549707 -2.029293 1.491412 0
M  V30 68 H -4.523616 1.546695 0.725040 0
M  V30 69 H -3.672622 0.782060 -0.714200 0
M  V30 70 H -6.071388 -0.092211 0.348770 0
M  V30 71 H -4.927028 -1.058616 1.315970 0
M  V30 72 H -5.702903 -2.188730 -0.654091 0
M  V30 73 H -4.914878 -1.033171 -1.769883 0
M  V30 74 H -4.457202 -3.715893 -1.945034 0
M  V30 75 H -0.440047 -5.761186 0.206155 0
M  V30 76 H -0.118314 -2.657209 -1.705513 0
M  V30 77 H 1.863858 -1.657104 -2.627743 0
M  V30 78 H 6.246516 -1.093081 -2.712631 0
M  V30 79 H 7.077265 -2.066046 -3.919648 0
M  V30 80 H 6.662899 -0.461815 -5.522068 0
M  V30 81 H 6.017317 0.583689 -4.193241 0
M  V30 82 H 4.136458 0.603294 -5.543072 0
M  V30 83 H 3.838454 -0.773221 -4.405225 0
M  V30 84 H 2.327958 -1.069638 -5.826576 0
M  V30 85 H 2.785829 -0.418389 -7.484397 0
M  V30 86 H 2.636927 -2.222555 -7.235156 0
M  V30 87 H 4.439595 -3.266525 -6.961882 0
M  V30 88 H 5.933953 -2.546253 -6.297227 0
M  V30 89 H 4.754918 -4.232724 -4.820734 0
M  V30 90 H 3.328689 -3.120080 -4.766088 0
M  V30 91 H 4.231778 -4.821860 -1.137469 0
M  V30 END ATOM
M  V30 BEGIN BOND
M  V30 1 1 1 2
M  V30 2 1 2 3
M  V30 3 2 3 4
M  V30 4 1 4 5
M  V30 5 2 5 6
M  V30 6 1 6 7
M  V30 7 1 7 8
M  V30 8 1 8 9
M  V30 9 2 7 10
M  V30 10 1 10 11
M  V30 11 1 11 12
M  V30 12 2 12 13
M  V30 13 1 12 14
M  V30 14 2 14 15
M  V30 15 1 15 16
M  V30 16 1 16 17
M  V30 17 1 16 18
M  V30 18 2 18 19
M  V30 19 1 19 20
M  V30 20 1 20 21
M  V30 21 1 21 22
M  V30 22 1 22 23
M  V30 23 2 23 24
M  V30 24 1 24 25
M  V30 25 2 25 26
M  V30 26 1 26 27
M  V30 27 1 27 28
M  V30 28 2 28 29
M  V30 29 1 29 30
M  V30 30 2 30 31
M  V30 31 1 31 32
M  V30 32 2 32 33
M  V30 33 1 32 34
M  V30 34 1 34 35
M  V30 35 1 35 36
M  V30 36 1 36 37
M  V30 37 1 37 38
M  V30 38 1 38 39
M  V30 39 1 38 40
M  V30 40 1 40 41
M  V30 41 1 31 42
M  V30 42 2 42 43
M  V30 43 1 43 44
M  V30 44 1 44 45
M  V30 45 1 45 46
M  V30 46 1 45 47
M  V30 47 1 45 48
M  V30 48 1 26 49
M  V30 49 2 49 50
M  V30 50 1 10 3
M  V30 51 1 19 14
M  V30 52 1 50 23
M  V30 53 1 50 18
M  V30 54 1 43 28
M  V30 55 1 41 34
M  V30 56 1 1 51
M  V30 57 1 1 52
M  V30 58 1 1 53
M  V30 59 1 2 54
M  V30 60 1 2 55
M  V30 61 1 4 56
M  V30 62 1 5 57
M  V30 63 1 6 58
M  V30 64 1 8 59
M  V30 65 1 8 60
M  V30 66 1 9 61
M  V30 67 1 9 62
M  V30 68 1 9 63
M  V30 69 1 11 64
M  V30 70 1 17 65
M  V30 71 1 17 66
M  V30 72 1 17 67
M  V30 73 1 20 68
M  V30 74 1 20 69
M  V30 75 1 21 70
M  V30 76 1 21 71
M  V30 77 1 22 72
M  V30 78 1 22 73
M  V30 79 1 24 74
M  V30 80 1 27 75
M  V30 81 1 29 76
M  V30 82 1 30 77
M  V30 83 1 35 78
M  V30 84 1 35 79
M  V30 85 1 36 80
M  V30 86 1 36 81
M  V30 87 1 37 82
M  V30 88 1 37 83
M  V30 89 1 39 84
M  V30 90 1 39 85
M  V30 91 1 39 86
M  V30 92 1 40 87
M  V30 93 1 40 88
M  V30 94 1 41 89
M  V30 95 1 41 90
M  V30 96 1 42 91
M  V30 END BOND
M  V30 END CTAB
M  END
>  <Dataset>  (334) 
ChEMBL_Kinases

>  <Ligand_Instance>  (334) 
nan

>  <PDB_ID>  (334) 
nan

>  <Standardized_SMILES>  (334) 
CCc1cccc(CC)c1NC(=O)c1nn(C)c2c1CCCc1cnc(Nc3ccc(C(=O)N4CCCN(C)CC4)cc3OC(F)(F)F)nc1-2

>  <Name>  (334) 
nan

>  <Pocket>  (334) 
nan

>  <ATP_Site>  (334) 
nan

>  <Peripheral>  (334) 
nan

>  <Num_H_Atoms_ProtBoundConf>  (334) 
nan

>  <Num_Resolved_Atoms>  (334) 
nan

>  <Num_Not_Resolved_Atoms>  (334) 
nan

$$$$
CHEMBL3666777
     RDKit          3D

  0  0  0  0  0  0  0  0  0  0999 V3000
M  V30 BEGIN CTAB
M  V30 COUNTS 96 101 0 0 0
M  V30 BEGIN ATOM
M  V30 1 C 4.999829 2.095151 1.960187 0
M  V30 2 C 4.286188 3.276780 2.572543 0
M  V30 3 C 4.617462 3.280030 4.039162 0
M  V30 4 C 5.510066 4.137319 4.642366 0
M  V30 5 C 5.819300 4.146751 5.967353 0
M  V30 6 C 5.192264 3.220469 6.800106 0
M  V30 7 C 4.277623 2.320831 6.263945 0
M  V30 8 C 3.548009 1.289944 7.054884 0
M  V30 9 C 4.193532 -0.053221 6.784551 0
M  V30 10 C 4.009219 2.365171 4.910108 0
M  V30 11 N 3.078188 1.461731 4.279446 0
M  V30 12 C 1.680851 1.682353 4.150258 0
M  V30 13 O 1.311975 2.767205 4.656972 0
M  V30 14 C 0.834033 0.700366 3.484837 0
M  V30 15 N 1.203734 -0.427407 2.859166 0
M  V30 16 N 0.144833 -1.077253 2.376768 0
M  V30 17 C 0.356097 -2.306758 1.651372 0
M  V30 18 C 0.260410 -3.530048 2.574675 0
M  V30 19 O 1.219480 -3.455750 3.576886 0
M  V30 20 C -0.909086 -0.321510 2.720298 0
M  V30 21 C -0.537211 0.805809 3.415949 0
M  V30 22 C -1.456264 1.826240 3.926753 0
M  V30 23 C -2.616627 1.123348 4.647456 0
M  V30 24 C -3.764518 0.831780 3.724216 0
M  V30 25 C -3.447988 -0.276422 2.795089 0
M  V30 26 C -4.615045 -0.857491 2.333754 0
M  V30 27 N -4.566207 -1.887650 1.471353 0
M  V30 28 C -3.410119 -2.395303 1.022353 0
M  V30 29 N -3.009119 -3.443628 0.134439 0
M  V30 30 C -2.910000 -3.101392 -1.248594 0
M  V30 31 C -3.264713 -1.860021 -1.727169 0
M  V30 32 C -3.216916 -1.431163 -3.029342 0
M  V30 33 C -2.765922 -2.333853 -3.966654 0
M  V30 34 N -2.682045 -2.016995 -5.365001 0
M  V30 35 C -1.803328 -2.801353 -6.198276 0
M  V30 36 C -1.104324 -2.002127 -7.272711 0
M  V30 37 C -2.134839 -1.183743 -8.027959 0
M  V30 38 N -1.569157 -0.472269 -9.124779 0
M  V30 39 C -2.516262 0.265276 -9.892974 0
M  V30 40 C -0.674360 -1.200452 -9.962440 0
M  V30 41 C -2.637882 -0.168349 -6.986426 0
M  V30 42 C -3.433744 -0.976085 -5.994634 0
M  V30 43 C -2.385368 -3.620304 -3.555656 0
M  V30 44 C -2.461179 -3.982078 -2.222497 0
M  V30 45 O -2.097409 -5.239065 -1.764472 0
M  V30 46 C -1.614499 -6.294160 -2.550433 0
M  V30 47 N -2.300265 -1.808368 1.490444 0
M  V30 48 C -2.240174 -0.783281 2.346274 0
M  V30 49 H 5.487010 2.419943 1.009920 0
M  V30 50 H 5.824851 1.771000 2.626980 0
M  V30 51 H 4.275604 1.267407 1.763059 0
M  V30 52 H 4.730164 4.196785 2.136935 0
M  V30 53 H 3.186024 3.249364 2.422448 0
M  V30 54 H 6.001526 4.864692 3.979062 0
M  V30 55 H 6.521800 4.837539 6.380724 0
M  V30 56 H 5.373232 3.151183 7.864252 0
M  V30 57 H 2.491652 1.309593 6.681559 0
M  V30 58 H 3.615341 1.507247 8.123852 0
M  V30 59 H 4.836801 -0.066466 5.896395 0
M  V30 60 H 3.358365 -0.795336 6.618401 0
M  V30 61 H 4.804445 -0.369018 7.672744 0
M  V30 62 H 3.532366 0.591990 3.914295 0
M  V30 63 H -0.322833 -2.489211 0.811278 0
M  V30 64 H 1.380288 -2.327761 1.185106 0
M  V30 65 H 0.446396 -4.459374 2.001158 0
M  V30 66 H -0.724261 -3.548465 3.056434 0
M  V30 67 H 2.113371 -3.607991 3.162054 0
M  V30 68 H -0.989088 2.525987 4.628098 0
M  V30 69 H -1.923822 2.389016 3.085645 0
M  V30 70 H -2.910543 1.641802 5.570566 0
M  V30 71 H -2.218638 0.131721 4.984536 0
M  V30 72 H -4.627599 0.531618 4.372631 0
M  V30 73 H -4.015221 1.719180 3.087093 0
M  V30 74 H -5.608186 -0.563775 2.601014 0
M  V30 75 H -2.787118 -4.423638 0.414987 0
M  V30 76 H -3.628318 -1.120348 -1.000060 0
M  V30 77 H -3.519164 -0.430587 -3.302597 0
M  V30 78 H -1.032020 -3.304766 -5.559457 0
M  V30 79 H -2.399395 -3.603882 -6.667865 0
M  V30 80 H -0.439150 -1.264883 -6.758596 0
M  V30 81 H -0.488068 -2.647001 -7.889551 0
M  V30 82 H -2.953105 -1.883299 -8.303421 0
M  V30 83 H -3.264745 -0.397550 -10.410071 0
M  V30 84 H -3.051602 1.066242 -9.385021 0
M  V30 85 H -1.939301 0.778610 -10.719564 0
M  V30 86 H -0.921683 -0.968027 -11.029918 0
M  V30 87 H 0.381934 -0.817677 -9.848822 0
M  V30 88 H -0.726288 -2.302413 -9.881819 0
M  V30 89 H -3.226361 0.637089 -7.422131 0
M  V30 90 H -1.740705 0.216622 -6.482166 0
M  V30 91 H -3.951302 -0.313479 -5.265598 0
M  V30 92 H -4.287107 -1.414752 -6.597143 0
M  V30 93 H -2.022617 -4.406393 -4.208621 0
M  V30 94 H -2.411281 -6.960309 -2.938521 0
M  V30 95 H -0.989713 -6.958157 -1.901797 0
M  V30 96 H -0.931390 -5.988277 -3.368757 0
M  V30 END ATOM
M  V30 BEGIN BOND
M  V30 1 1 1 2
M  V30 2 1 2 3
M  V30 3 2 3 4
M  V30 4 1 4 5
M  V30 5 2 5 6
M  V30 6 1 6 7
M  V30 7 1 7 8
M  V30 8 1 8 9
M  V30 9 2 7 10
M  V30 10 1 10 11
M  V30 11 1 11 12
M  V30 12 2 12 13
M  V30 13 1 12 14
M  V30 14 2 14 15
M  V30 15 1 15 16
M  V30 16 1 16 17
M  V30 17 1 17 18
M  V30 18 1 18 19
M  V30 19 1 16 20
M  V30 20 2 20 21
M  V30 21 1 21 22
M  V30 22 1 22 23
M  V30 23 1 23 24
M  V30 24 1 24 25
M  V30 25 2 25 26
M  V30 26 1 26 27
M  V30 27 2 27 28
M  V30 28 1 28 29
M  V30 29 1 29 30
M  V30 30 2 30 31
M  V30 31 1 31 32
M  V30 32 2 32 33
M  V30 33 1 33 34
M  V30 34 1 34 35
M  V30 35 1 35 36
M  V30 36 1 36 37
M  V30 37 1 37 38
M  V30 38 1 38 39
M  V30 39 1 38 40
M  V30 40 1 37 41
M  V30 41 1 41 42
M  V30 42 1 33 43
M  V30 43 2 43 44
M  V30 44 1 44 45
M  V30 45 1 45 46
M  V30 46 1 28 47
M  V30 47 2 47 48
M  V30 48 1 10 3
M  V30 49 1 21 14
M  V30 50 1 48 25
M  V30 51 1 48 20
M  V30 52 1 44 30
M  V30 53 1 42 34
M  V30 54 1 1 49
M  V30 55 1 1 50
M  V30 56 1 1 51
M  V30 57 1 2 52
M  V30 58 1 2 53
M  V30 59 1 4 54
M  V30 60 1 5 55
M  V30 61 1 6 56
M  V30 62 1 8 57
M  V30 63 1 8 58
M  V30 64 1 9 59
M  V30 65 1 9 60
M  V30 66 1 9 61
M  V30 67 1 11 62
M  V30 68 1 17 63
M  V30 69 1 17 64
M  V30 70 1 18 65
M  V30 71 1 18 66
M  V30 72 1 19 67
M  V30 73 1 22 68
M  V30 74 1 22 69
M  V30 75 1 23 70
M  V30 76 1 23 71
M  V30 77 1 24 72
M  V30 78 1 24 73
M  V30 79 1 26 74
M  V30 80 1 29 75
M  V30 81 1 31 76
M  V30 82 1 32 77
M  V30 83 1 35 78
M  V30 84 1 35 79
M  V30 85 1 36 80
M  V30 86 1 36 81
M  V30 87 1 37 82
M  V30 88 1 39 83
M  V30 89 1 39 84
M  V30 90 1 39 85
M  V30 91 1 40 86
M  V30 92 1 40 87
M  V30 93 1 40 88
M  V30 94 1 41 89
M  V30 95 1 41 90
M  V30 96 1 42 91
M  V30 97 1 42 92
M  V30 98 1 43 93
M  V30 99 1 46 94
M  V30 100 1 46 95
M  V30 101 1 46 96
M  V30 END BOND
M  V30 END CTAB
M  END
>  <Dataset>  (335) 
ChEMBL_Kinases

>  <Ligand_Instance>  (335) 
nan

>  <PDB_ID>  (335) 
nan

>  <Standardized_SMILES>  (335) 
CCc1cccc(CC)c1NC(=O)c1nn(CCO)c2c1CCCc1cnc(Nc3ccc(N4CCC(N(C)C)CC4)cc3OC)nc1-2

>  <Name>  (335) 
nan

>  <Pocket>  (335) 
nan

>  <ATP_Site>  (335) 
nan

>  <Peripheral>  (335) 
nan

>  <Num_H_Atoms_ProtBoundConf>  (335) 
nan

>  <Num_Resolved_Atoms>  (335) 
nan

>  <Num_Not_Resolved_Atoms>  (335) 
nan

$$$$
CHEMBL3667488
     RDKit          3D

  0  0  0  0  0  0  0  0  0  0999 V3000
M  V30 BEGIN CTAB
M  V30 COUNTS 72 76 0 0 0
M  V30 BEGIN ATOM
M  V30 1 C 4.529387 -0.937166 2.149737 0
M  V30 2 C 3.081783 -1.186045 2.335413 0 CFG=2
M  V30 3 C 2.575136 -2.409185 1.589631 0
M  V30 4 N 1.196833 -2.135917 1.230631 0
M  V30 5 C 0.879497 -2.284670 -0.147560 0
M  V30 6 O 1.970252 -2.644250 -0.694593 0
M  V30 7 N -0.334206 -2.102011 -0.858750 0
M  V30 8 C -1.652251 -1.692970 -0.345957 0
M  V30 9 C -2.543112 -1.770635 -1.505574 0
M  V30 10 C -3.815611 -1.642644 -2.000872 0
M  V30 11 N -5.008222 -1.270408 -1.338068 0
M  V30 12 C -5.197892 -0.888588 -0.002673 0
M  V30 13 O -4.179301 -0.856056 0.752206 0
M  V30 14 C -6.461651 -0.528741 0.585979 0
M  V30 15 C -6.599999 -0.161822 1.897801 0
M  V30 16 N -7.770624 0.171434 2.450997 0
M  V30 17 C -8.902081 0.161125 1.721383 0
M  V30 18 C -8.787924 -0.206137 0.394137 0
M  V30 19 N -7.596434 -0.533705 -0.128234 0
M  V30 20 N -3.783415 -1.926585 -3.305545 0
M  V30 21 N -2.555964 -2.232670 -3.683959 0
M  V30 22 C -1.792985 -2.138159 -2.587149 0
M  V30 23 C -0.370320 -2.330954 -2.292441 0
M  V30 24 C 0.440412 -1.304449 -3.028834 0
M  V30 25 C 0.056534 -3.738926 -2.660021 0
M  V30 26 C 0.435202 -1.754149 2.434037 0 CFG=1
M  V30 27 C 0.406672 -2.863904 3.448593 0
M  V30 28 C 0.976522 -0.441825 3.022483 0
M  V30 29 N 2.150294 -0.173759 2.199337 0
M  V30 30 C 2.323025 1.100075 1.764874 0
M  V30 31 C 3.368765 1.528931 0.817869 0
M  V30 32 C 3.167597 3.053298 0.635289 0
M  V30 33 C 2.214629 3.327659 -0.504519 0
M  V30 34 O 2.839200 3.080756 -1.733196 0
M  V30 35 C 3.713449 1.987096 -1.557923 0
M  V30 36 C 3.164324 0.967186 -0.586936 0
M  V30 37 H 4.924129 -0.107058 2.773509 0
M  V30 38 H 5.135754 -1.824666 2.544259 0
M  V30 39 H 4.824185 -0.906433 1.088357 0
M  V30 40 H 2.995876 -1.522831 3.433393 0
M  V30 41 H 2.614542 -3.325253 2.238796 0
M  V30 42 H 3.219256 -2.649023 0.719793 0
M  V30 43 H -1.521641 -0.703558 0.101730 0
M  V30 44 H -2.005153 -2.429113 0.410087 0
M  V30 45 H -5.933802 -1.255748 -1.856928 0
M  V30 46 H -5.696397 -0.145958 2.511414 0
M  V30 47 H -9.919573 0.394176 1.977906 0
M  V30 48 H -9.617812 -0.259217 -0.316826 0
M  V30 49 H -2.372413 -2.479776 -4.679452 0
M  V30 50 H 1.161836 -1.790155 -3.739459 0
M  V30 51 H 1.012648 -0.716516 -2.270273 0
M  V30 52 H -0.221657 -0.583768 -3.520450 0
M  V30 53 H 1.077187 -3.768110 -3.085680 0
M  V30 54 H -0.649983 -4.091837 -3.443337 0
M  V30 55 H -0.051358 -4.371340 -1.751497 0
M  V30 56 H -0.592855 -1.527752 2.128331 0
M  V30 57 H 1.072396 -2.598949 4.309826 0
M  V30 58 H -0.607790 -3.001538 3.878203 0
M  V30 59 H 0.703113 -3.856247 3.014798 0
M  V30 60 H 0.261763 0.363835 3.037412 0
M  V30 61 H 1.350539 -0.669143 4.036388 0
M  V30 62 H 1.340132 1.451090 1.306413 0
M  V30 63 H 2.395201 1.794585 2.665944 0
M  V30 64 H 4.408550 1.416521 1.073237 0
M  V30 65 H 2.696720 3.480807 1.558166 0
M  V30 66 H 4.121638 3.553442 0.411399 0
M  V30 67 H 1.955994 4.407594 -0.442955 0
M  V30 68 H 1.287443 2.744036 -0.461093 0
M  V30 69 H 4.653446 2.389978 -1.159263 0
M  V30 70 H 3.961537 1.527280 -2.541074 0
M  V30 71 H 2.073592 0.891662 -0.784025 0
M  V30 72 H 3.687707 0.029621 -0.764006 0
M  V30 END ATOM
M  V30 BEGIN BOND
M  V30 1 1 1 2
M  V30 2 1 2 3
M  V30 3 1 3 4
M  V30 4 1 4 5
M  V30 5 2 5 6
M  V30 6 1 5 7
M  V30 7 1 7 8
M  V30 8 1 8 9
M  V30 9 1 9 10
M  V30 10 1 10 11
M  V30 11 1 11 12
M  V30 12 2 12 13
M  V30 13 1 12 14
M  V30 14 2 14 15
M  V30 15 1 15 16
M  V30 16 2 16 17
M  V30 17 1 17 18
M  V30 18 2 18 19
M  V30 19 2 10 20
M  V30 20 1 20 21
M  V30 21 1 21 22
M  V30 22 1 22 23
M  V30 23 1 23 24
M  V30 24 1 23 25
M  V30 25 1 4 26
M  V30 26 1 26 27
M  V30 27 1 26 28
M  V30 28 1 28 29
M  V30 29 1 29 30
M  V30 30 1 30 31
M  V30 31 1 31 32
M  V30 32 1 32 33
M  V30 33 1 33 34
M  V30 34 1 34 35
M  V30 35 1 35 36
M  V30 36 1 29 2
M  V30 37 1 36 31
M  V30 38 1 23 7
M  V30 39 2 22 9
M  V30 40 1 19 14
M  V30 41 1 1 37
M  V30 42 1 1 38
M  V30 43 1 1 39
M  V30 44 1 2 40 CFG=1
M  V30 45 1 3 41
M  V30 46 1 3 42
M  V30 47 1 8 43
M  V30 48 1 8 44
M  V30 49 1 11 45
M  V30 50 1 15 46
M  V30 51 1 17 47
M  V30 52 1 18 48
M  V30 53 1 21 49
M  V30 54 1 24 50
M  V30 55 1 24 51
M  V30 56 1 24 52
M  V30 57 1 25 53
M  V30 58 1 25 54
M  V30 59 1 25 55
M  V30 60 1 26 56 CFG=3
M  V30 61 1 27 57
M  V30 62 1 27 58
M  V30 63 1 27 59
M  V30 64 1 28 60
M  V30 65 1 28 61
M  V30 66 1 30 62
M  V30 67 1 30 63
M  V30 68 1 31 64
M  V30 69 1 32 65
M  V30 70 1 32 66
M  V30 71 1 33 67
M  V30 72 1 33 68
M  V30 73 1 35 69
M  V30 74 1 35 70
M  V30 75 1 36 71
M  V30 76 1 36 72
M  V30 END BOND
M  V30 END CTAB
M  END
>  <Dataset>  (336) 
ChEMBL_Kinases

>  <Ligand_Instance>  (336) 
nan

>  <PDB_ID>  (336) 
nan

>  <Standardized_SMILES>  (336) 
C[C@@H]1CN(C(=O)N2Cc3c(NC(=O)c4cnccn4)n[nH]c3C2(C)C)[C@@H](C)CN1CC1CCOCC1

>  <Name>  (336) 
nan

>  <Pocket>  (336) 
nan

>  <ATP_Site>  (336) 
nan

>  <Peripheral>  (336) 
nan

>  <Num_H_Atoms_ProtBoundConf>  (336) 
nan

>  <Num_Resolved_Atoms>  (336) 
nan

>  <Num_Not_Resolved_Atoms>  (336) 
nan

$$$$
CHEMBL3668346
     RDKit          3D

  0  0  0  0  0  0  0  0  0  0999 V3000
M  V30 BEGIN CTAB
M  V30 COUNTS 48 51 0 0 0
M  V30 BEGIN ATOM
M  V30 1 C 1.195522 -4.841119 -2.479960 0
M  V30 2 O 1.303107 -3.458977 -2.290054 0
M  V30 3 C 2.515682 -2.937865 -1.867162 0
M  V30 4 C 3.655033 -3.674798 -1.609726 0
M  V30 5 C 4.832741 -3.087136 -1.189693 0
M  V30 6 F 5.908228 -3.900909 -0.960163 0
M  V30 7 C 4.873125 -1.702151 -1.019602 0
M  V30 8 C 3.749838 -0.939739 -1.269317 0
M  V30 9 C 2.568991 -1.555508 -1.693495 0
M  V30 10 C 1.434325 -0.668684 -1.932450 0
M  V30 11 C 1.305863 -0.156353 -3.216636 0
M  V30 12 C 0.209204 0.686235 -3.403248 0
M  V30 13 N -0.660714 0.984235 -2.420953 0
M  V30 14 C -0.502981 0.468611 -1.190382 0
M  V30 15 N -1.200222 0.590811 -0.047119 0
M  V30 16 C -0.677693 -0.113896 0.967203 0
M  V30 17 C -1.115709 -0.258636 2.361433 0
M  V30 18 C -0.639416 0.904000 3.224511 0
M  V30 19 N -1.407154 0.857375 4.454435 0
M  V30 20 C -2.799493 1.187853 4.231080 0
M  V30 21 C -3.038141 2.682326 4.282185 0
M  V30 22 C -3.622656 0.561214 5.339697 0
M  V30 23 C -3.180873 0.658243 2.867440 0
M  V30 24 O -2.477643 -0.473383 2.506696 0
M  V30 25 C 0.442541 -0.725542 0.397776 0
M  V30 26 C 0.552458 -0.374790 -0.911647 0
M  V30 27 H 1.953359 -5.243477 -3.183364 0
M  V30 28 H 1.323838 -5.327239 -1.474139 0
M  V30 29 H 0.167623 -5.087515 -2.810779 0
M  V30 30 H 3.518423 -4.751423 -1.773485 0
M  V30 31 H 5.800018 -1.266049 -0.692042 0
M  V30 32 H 3.784521 0.142994 -1.135409 0
M  V30 33 H 2.012786 -0.407128 -3.988598 0
M  V30 34 H 0.111511 1.090073 -4.423257 0
M  V30 35 H -2.054724 1.181560 0.008233 0
M  V30 36 H -0.629103 -1.178111 2.798896 0
M  V30 37 H 0.419864 0.808321 3.474423 0
M  V30 38 H -0.791150 1.860732 2.674919 0
M  V30 39 H -0.983463 1.386843 5.235043 0
M  V30 40 H -2.098091 3.236173 4.452344 0
M  V30 41 H -3.495860 3.014489 3.325448 0
M  V30 42 H -3.792472 2.960830 5.064993 0
M  V30 43 H -3.191563 0.920343 6.296235 0
M  V30 44 H -3.525631 -0.534442 5.276823 0
M  V30 45 H -4.671747 0.909281 5.262833 0
M  V30 46 H -4.253764 0.330144 2.948600 0
M  V30 47 H -3.203008 1.456189 2.097774 0
M  V30 48 H 1.118694 -1.381219 0.928386 0
M  V30 END ATOM
M  V30 BEGIN BOND
M  V30 1 1 1 2
M  V30 2 1 2 3
M  V30 3 2 3 4
M  V30 4 1 4 5
M  V30 5 1 5 6
M  V30 6 2 5 7
M  V30 7 1 7 8
M  V30 8 2 8 9
M  V30 9 1 9 10
M  V30 10 2 10 11
M  V30 11 1 11 12
M  V30 12 2 12 13
M  V30 13 1 13 14
M  V30 14 1 14 15
M  V30 15 1 15 16
M  V30 16 1 16 17
M  V30 17 1 17 18
M  V30 18 1 18 19
M  V30 19 1 19 20
M  V30 20 1 20 21
M  V30 21 1 20 22
M  V30 22 1 20 23
M  V30 23 1 23 24
M  V30 24 2 16 25
M  V30 25 1 25 26
M  V30 26 1 9 3
M  V30 27 1 26 10
M  V30 28 2 26 14
M  V30 29 1 24 17
M  V30 30 1 1 27
M  V30 31 1 1 28
M  V30 32 1 1 29
M  V30 33 1 4 30
M  V30 34 1 7 31
M  V30 35 1 8 32
M  V30 36 1 11 33
M  V30 37 1 12 34
M  V30 38 1 15 35
M  V30 39 1 17 36
M  V30 40 1 18 37
M  V30 41 1 18 38
M  V30 42 1 19 39
M  V30 43 1 21 40
M  V30 44 1 21 41
M  V30 45 1 21 42
M  V30 46 1 22 43
M  V30 47 1 22 44
M  V30 48 1 22 45
M  V30 49 1 23 46
M  V30 50 1 23 47
M  V30 51 1 25 48
M  V30 END BOND
M  V30 END CTAB
M  END
>  <Dataset>  (337) 
ChEMBL_Kinases

>  <Ligand_Instance>  (337) 
nan

>  <PDB_ID>  (337) 
nan

>  <Standardized_SMILES>  (337) 
COc1cc(F)ccc1-c1ccnc2[nH]c(C3CNC(C)(C)CO3)cc12

>  <Name>  (337) 
nan

>  <Pocket>  (337) 
nan

>  <ATP_Site>  (337) 
nan

>  <Peripheral>  (337) 
nan

>  <Num_H_Atoms_ProtBoundConf>  (337) 
nan

>  <Num_Resolved_Atoms>  (337) 
nan

>  <Num_Not_Resolved_Atoms>  (337) 
nan

$$$$
CHEMBL3667490
     RDKit          3D

  0  0  0  0  0  0  0  0  0  0999 V3000
M  V30 BEGIN CTAB
M  V30 COUNTS 79 83 0 0 0
M  V30 BEGIN ATOM
M  V30 1 C 2.683301 -5.612735 1.209370 0
M  V30 2 C 2.321776 -6.174135 2.534424 0
M  V30 3 N 2.817812 -7.293683 3.090824 0
M  V30 4 O 2.250260 -7.458355 4.268831 0
M  V30 5 C 1.403806 -6.502534 4.517594 0
M  V30 6 C 0.563361 -6.319471 5.725927 0
M  V30 7 C 1.414115 -5.644324 3.422756 0
M  V30 8 C 0.649911 -4.418961 3.193965 0
M  V30 9 C 1.486883 -3.188666 3.384733 0
M  V30 10 O 2.690376 -3.042803 3.697357 0
M  V30 11 N 0.677398 -2.044513 3.145279 0
M  V30 12 C 1.090398 -0.685563 3.222662 0
M  V30 13 N 1.038859 0.093734 4.318069 0
M  V30 14 N 1.502982 1.297213 4.026532 0
M  V30 15 C 1.872624 1.348210 2.737119 0
M  V30 16 C 1.617075 0.102823 2.219902 0
M  V30 17 C 2.030024 0.162431 0.793117 0
M  V30 18 N 1.717998 1.569392 0.478809 0
M  V30 19 C 0.984799 2.276202 -0.547580 0
M  V30 20 O 0.953295 3.548524 -0.428276 0
M  V30 21 N 0.288742 1.726472 -1.682679 0
M  V30 22 C 0.210252 0.342981 -2.011370 0
M  V30 23 C -0.371711 0.189573 -3.423638 0 CFG=1
M  V30 24 C -0.291868 -1.202884 -3.920483 0
M  V30 25 N -1.632295 0.809658 -3.396999 0
M  V30 26 C -2.797434 0.046354 -3.347650 0
M  V30 27 C -3.090954 -0.723880 -2.109040 0
M  V30 28 C -4.396389 -1.471459 -2.296083 0
M  V30 29 C -5.606555 -0.580439 -2.233101 0
M  V30 30 O -5.614553 0.048147 -0.986744 0
M  V30 31 C -4.540727 0.961106 -0.958949 0
M  V30 32 C -3.273081 0.162792 -0.893251 0
M  V30 33 C -1.645040 2.183801 -3.176673 0
M  V30 34 C -0.383518 2.666223 -2.550421 0 CFG=2
M  V30 35 C 0.642619 3.180754 -3.533283 0
M  V30 36 C 2.438398 2.143647 1.593457 0
M  V30 37 C 3.927361 1.873729 1.547693 0
M  V30 38 C 2.147695 3.611996 1.782401 0
M  V30 39 H 2.696886 -6.458428 0.460387 0
M  V30 40 H 1.868943 -4.946261 0.820115 0
M  V30 41 H 3.674768 -5.154102 1.165060 0
M  V30 42 H -0.521062 -6.459134 5.511555 0
M  V30 43 H 0.834632 -7.043617 6.505111 0
M  V30 44 H 0.661539 -5.261298 6.099323 0
M  V30 45 H -0.188493 -4.340765 3.924479 0
M  V30 46 H 0.191606 -4.420780 2.177253 0
M  V30 47 H -0.339025 -1.976249 2.876253 0
M  V30 48 H 1.589073 2.127083 4.679757 0
M  V30 49 H 1.500302 -0.553156 0.169973 0
M  V30 50 H 3.141230 -0.012141 0.719404 0
M  V30 51 H 1.261844 -0.032359 -2.098077 0
M  V30 52 H -0.324454 -0.299683 -1.303620 0
M  V30 53 H 0.297401 0.806725 -4.058563 0
M  V30 54 H 0.450724 -1.734840 -3.255727 0
M  V30 55 H -1.196120 -1.805043 -3.889587 0
M  V30 56 H 0.155501 -1.243389 -4.933106 0
M  V30 57 H -2.841573 -0.649892 -4.210313 0
M  V30 58 H -3.676015 0.732422 -3.506828 0
M  V30 59 H -2.347841 -1.478222 -1.818818 0
M  V30 60 H -4.391055 -2.088052 -3.219672 0
M  V30 61 H -4.491973 -2.193127 -1.447999 0
M  V30 62 H -6.490397 -1.236400 -2.278028 0
M  V30 63 H -5.670435 0.135753 -3.060838 0
M  V30 64 H -4.595870 1.640925 -1.826193 0
M  V30 65 H -4.609919 1.559011 -0.032028 0
M  V30 66 H -3.395153 -0.546779 -0.036088 0
M  V30 67 H -2.382355 0.765774 -0.652936 0
M  V30 68 H -1.691525 2.683733 -4.191192 0
M  V30 69 H -2.542771 2.543325 -2.658051 0
M  V30 70 H -0.679119 3.556910 -1.911692 0
M  V30 71 H 1.637026 2.676438 -3.411906 0
M  V30 72 H 0.851232 4.247599 -3.319174 0
M  V30 73 H 0.269266 3.140731 -4.577458 0
M  V30 74 H 4.207235 1.692697 0.492323 0
M  V30 75 H 4.199715 0.976302 2.131865 0
M  V30 76 H 4.512412 2.765906 1.876330 0
M  V30 77 H 2.615500 3.931810 2.745626 0
M  V30 78 H 2.623648 4.201596 0.990083 0
M  V30 79 H 1.077134 3.791342 1.842200 0
M  V30 END ATOM
M  V30 BEGIN BOND
M  V30 1 1 1 2
M  V30 2 2 2 3
M  V30 3 1 3 4
M  V30 4 1 4 5
M  V30 5 1 5 6
M  V30 6 2 5 7
M  V30 7 1 7 8
M  V30 8 1 8 9
M  V30 9 2 9 10
M  V30 10 1 9 11
M  V30 11 1 11 12
M  V30 12 2 12 13
M  V30 13 1 13 14
M  V30 14 1 14 15
M  V30 15 2 15 16
M  V30 16 1 16 17
M  V30 17 1 17 18
M  V30 18 1 18 19
M  V30 19 2 19 20
M  V30 20 1 19 21
M  V30 21 1 21 22
M  V30 22 1 22 23
M  V30 23 1 23 24
M  V30 24 1 23 25
M  V30 25 1 25 26
M  V30 26 1 26 27
M  V30 27 1 27 28
M  V30 28 1 28 29
M  V30 29 1 29 30
M  V30 30 1 30 31
M  V30 31 1 31 32
M  V30 32 1 25 33
M  V30 33 1 33 34
M  V30 34 1 34 35
M  V30 35 1 18 36
M  V30 36 1 36 37
M  V30 37 1 36 38
M  V30 38 1 7 2
M  V30 39 1 16 12
M  V30 40 1 34 21
M  V30 41 1 36 15
M  V30 42 1 32 27
M  V30 43 1 1 39
M  V30 44 1 1 40
M  V30 45 1 1 41
M  V30 46 1 6 42
M  V30 47 1 6 43
M  V30 48 1 6 44
M  V30 49 1 8 45
M  V30 50 1 8 46
M  V30 51 1 11 47
M  V30 52 1 14 48
M  V30 53 1 17 49
M  V30 54 1 17 50
M  V30 55 1 22 51
M  V30 56 1 22 52
M  V30 57 1 23 53 CFG=3
M  V30 58 1 24 54
M  V30 59 1 24 55
M  V30 60 1 24 56
M  V30 61 1 26 57
M  V30 62 1 26 58
M  V30 63 1 27 59
M  V30 64 1 28 60
M  V30 65 1 28 61
M  V30 66 1 29 62
M  V30 67 1 29 63
M  V30 68 1 31 64
M  V30 69 1 31 65
M  V30 70 1 32 66
M  V30 71 1 32 67
M  V30 72 1 33 68
M  V30 73 1 33 69
M  V30 74 1 34 70 CFG=1
M  V30 75 1 35 71
M  V30 76 1 35 72
M  V30 77 1 35 73
M  V30 78 1 37 74
M  V30 79 1 37 75
M  V30 80 1 37 76
M  V30 81 1 38 77
M  V30 82 1 38 78
M  V30 83 1 38 79
M  V30 END BOND
M  V30 END CTAB
M  END
>  <Dataset>  (338) 
ChEMBL_Kinases

>  <Ligand_Instance>  (338) 
nan

>  <PDB_ID>  (338) 
nan

>  <Standardized_SMILES>  (338) 
Cc1noc(C)c1CC(=O)Nc1n[nH]c2c1CN(C(=O)N1C[C@@H](C)N(CC3CCOCC3)C[C@@H]1C)C2(C)C

>  <Name>  (338) 
nan

>  <Pocket>  (338) 
nan

>  <ATP_Site>  (338) 
nan

>  <Peripheral>  (338) 
nan

>  <Num_H_Atoms_ProtBoundConf>  (338) 
nan

>  <Num_Resolved_Atoms>  (338) 
nan

>  <Num_Not_Resolved_Atoms>  (338) 
nan

$$$$
CHEMBL3667491
     RDKit          3D

  0  0  0  0  0  0  0  0  0  0999 V3000
M  V30 BEGIN CTAB
M  V30 COUNTS 76 80 0 0 0
M  V30 BEGIN ATOM
M  V30 1 C 2.454626 -3.800828 2.731069 0
M  V30 2 C 1.344606 -3.070701 3.454221 0 CFG=2
M  V30 3 C 0.047017 -3.817051 3.150026 0
M  V30 4 N -0.709497 -3.081892 2.158178 0
M  V30 5 C -0.821978 -3.676054 0.878820 0
M  V30 6 O -0.177030 -4.751162 0.981098 0
M  V30 7 N -1.479759 -3.247883 -0.304349 0
M  V30 8 C -2.290860 -2.157193 -0.835641 0
M  V30 9 C -1.548104 -1.811512 -2.049330 0
M  V30 10 C -1.192106 -0.773956 -2.887917 0
M  V30 11 N -1.571817 0.588031 -2.731986 0
M  V30 12 C -1.119560 1.572117 -3.675202 0
M  V30 13 O -0.375915 1.276402 -4.670050 0
M  V30 14 C -1.562119 2.962362 -3.435712 0
M  V30 15 C -1.180251 3.978630 -4.285898 0
M  V30 16 C -1.590790 5.278067 -4.066928 0
M  V30 17 C -2.392630 5.604947 -2.996685 0
M  V30 18 C -2.913316 6.942570 -2.628194 0
M  V30 19 F -2.155056 7.966780 -3.152441 0
M  V30 20 F -2.934902 7.061027 -1.236210 0
M  V30 21 F -4.221946 7.050042 -3.049446 0
M  V30 22 C -2.752667 4.563734 -2.171025 0
M  V30 23 N -2.355648 3.298100 -2.380245 0
M  V30 24 N -0.437650 -1.347325 -3.842257 0
M  V30 25 N -0.317792 -2.638705 -3.637812 0
M  V30 26 C -0.995701 -2.980582 -2.525914 0
M  V30 27 C -1.463345 -4.006099 -1.524433 0
M  V30 28 C -2.807807 -4.479484 -1.985774 0
M  V30 29 C -0.471488 -5.154604 -1.469659 0
M  V30 30 C -1.194765 -1.840975 2.746969 0 CFG=1
M  V30 31 C -2.349021 -2.184239 3.647398 0
M  V30 32 C -0.057544 -1.224479 3.570964 0
M  V30 33 N 1.185217 -1.719784 3.013037 0
M  V30 34 C 2.293810 -0.876244 3.337645 0
M  V30 35 C 2.227204 0.455931 2.662179 0
M  V30 36 C 2.216837 0.354565 1.159801 0
M  V30 37 C 3.593831 0.122622 0.575391 0
M  V30 38 O 4.541210 -0.219970 1.512700 0
M  V30 39 C 4.728967 0.739053 2.481890 0
M  V30 40 C 3.457228 1.263926 3.087093 0
M  V30 41 H 2.307550 -4.882690 2.999731 0
M  V30 42 H 3.457444 -3.542489 3.078689 0
M  V30 43 H 2.306523 -3.754768 1.648065 0
M  V30 44 H 1.504796 -3.119315 4.533265 0
M  V30 45 H -0.570991 -3.918216 4.075588 0
M  V30 46 H 0.271671 -4.843916 2.832068 0
M  V30 47 H -3.307810 -2.588413 -1.019052 0
M  V30 48 H -2.443102 -1.331631 -0.140087 0
M  V30 49 H -2.178483 0.864163 -1.930129 0
M  V30 50 H -0.554163 3.759336 -5.131811 0
M  V30 51 H -1.316998 6.125024 -4.710456 0
M  V30 52 H -3.374374 4.611976 -1.281491 0
M  V30 53 H 0.203486 -3.368706 -4.198572 0
M  V30 54 H -3.467938 -4.616689 -1.086674 0
M  V30 55 H -2.653246 -5.483831 -2.452234 0
M  V30 56 H -3.256276 -3.764516 -2.675249 0
M  V30 57 H -0.411202 -5.524569 -2.535718 0
M  V30 58 H 0.556407 -4.840634 -1.227201 0
M  V30 59 H -0.832532 -5.993280 -0.874078 0
M  V30 60 H -1.443508 -1.066371 2.005329 0
M  V30 61 H -2.481966 -3.265357 3.828409 0
M  V30 62 H -2.199364 -1.702073 4.649742 0
M  V30 63 H -3.311026 -1.753788 3.283586 0
M  V30 64 H -0.139129 -0.139224 3.622033 0
M  V30 65 H -0.198491 -1.647651 4.608960 0
M  V30 66 H 3.220606 -1.379092 3.045577 0
M  V30 67 H 2.322439 -0.679255 4.432399 0
M  V30 68 H 1.364078 1.077446 2.976516 0
M  V30 69 H 1.806920 1.315487 0.755153 0
M  V30 70 H 1.480111 -0.439774 0.846156 0
M  V30 71 H 3.541403 -0.748249 -0.142247 0
M  V30 72 H 3.934233 0.977084 -0.056902 0
M  V30 73 H 5.372527 1.574264 2.080289 0
M  V30 74 H 5.323236 0.292748 3.318912 0
M  V30 75 H 3.295775 2.317220 2.729925 0
M  V30 76 H 3.454512 1.281735 4.193589 0
M  V30 END ATOM
M  V30 BEGIN BOND
M  V30 1 1 1 2
M  V30 2 1 2 3
M  V30 3 1 3 4
M  V30 4 1 4 5
M  V30 5 2 5 6
M  V30 6 1 5 7
M  V30 7 1 7 8
M  V30 8 1 8 9
M  V30 9 1 9 10
M  V30 10 1 10 11
M  V30 11 1 11 12
M  V30 12 2 12 13
M  V30 13 1 12 14
M  V30 14 2 14 15
M  V30 15 1 15 16
M  V30 16 2 16 17
M  V30 17 1 17 18
M  V30 18 1 18 19
M  V30 19 1 18 20
M  V30 20 1 18 21
M  V30 21 1 17 22
M  V30 22 2 22 23
M  V30 23 2 10 24
M  V30 24 1 24 25
M  V30 25 1 25 26
M  V30 26 1 26 27
M  V30 27 1 27 28
M  V30 28 1 27 29
M  V30 29 1 4 30
M  V30 30 1 30 31
M  V30 31 1 30 32
M  V30 32 1 32 33
M  V30 33 1 33 34
M  V30 34 1 34 35
M  V30 35 1 35 36
M  V30 36 1 36 37
M  V30 37 1 37 38
M  V30 38 1 38 39
M  V30 39 1 39 40
M  V30 40 1 33 2
M  V30 41 1 40 35
M  V30 42 1 27 7
M  V30 43 2 26 9
M  V30 44 1 23 14
M  V30 45 1 1 41
M  V30 46 1 1 42
M  V30 47 1 1 43
M  V30 48 1 2 44 CFG=1
M  V30 49 1 3 45
M  V30 50 1 3 46
M  V30 51 1 8 47
M  V30 52 1 8 48
M  V30 53 1 11 49
M  V30 54 1 15 50
M  V30 55 1 16 51
M  V30 56 1 22 52
M  V30 57 1 25 53
M  V30 58 1 28 54
M  V30 59 1 28 55
M  V30 60 1 28 56
M  V30 61 1 29 57
M  V30 62 1 29 58
M  V30 63 1 29 59
M  V30 64 1 30 60 CFG=3
M  V30 65 1 31 61
M  V30 66 1 31 62
M  V30 67 1 31 63
M  V30 68 1 32 64
M  V30 69 1 32 65
M  V30 70 1 34 66
M  V30 71 1 34 67
M  V30 72 1 35 68
M  V30 73 1 36 69
M  V30 74 1 36 70
M  V30 75 1 37 71
M  V30 76 1 37 72
M  V30 77 1 39 73
M  V30 78 1 39 74
M  V30 79 1 40 75
M  V30 80 1 40 76
M  V30 END BOND
M  V30 END CTAB
M  END
>  <Dataset>  (339) 
ChEMBL_Kinases

>  <Ligand_Instance>  (339) 
nan

>  <PDB_ID>  (339) 
nan

>  <Standardized_SMILES>  (339) 
C[C@@H]1CN(C(=O)N2Cc3c(NC(=O)c4ccc(C(F)(F)F)cn4)n[nH]c3C2(C)C)[C@@H](C)CN1CC1CCOCC1

>  <Name>  (339) 
nan

>  <Pocket>  (339) 
nan

>  <ATP_Site>  (339) 
nan

>  <Peripheral>  (339) 
nan

>  <Num_H_Atoms_ProtBoundConf>  (339) 
nan

>  <Num_Resolved_Atoms>  (339) 
nan

>  <Num_Not_Resolved_Atoms>  (339) 
nan

$$$$
CHEMBL3667493
     RDKit          3D

  0  0  0  0  0  0  0  0  0  0999 V3000
M  V30 BEGIN CTAB
M  V30 COUNTS 60 63 0 0 0
M  V30 BEGIN ATOM
M  V30 1 C -1.404500 1.913716 -2.723120 0
M  V30 2 C -2.306314 2.679756 -1.825802 0 CFG=2
M  V30 3 C -1.824585 2.500518 -0.400408 0
M  V30 4 N -2.749892 1.679799 0.362855 0
M  V30 5 C -2.770779 0.358753 0.936533 0
M  V30 6 O -3.843465 0.031806 1.572148 0
M  V30 7 N -1.700806 -0.607623 0.854250 0
M  V30 8 C -0.419571 -0.444281 0.176062 0
M  V30 9 C 0.122200 -1.849565 0.255254 0
M  V30 10 C 1.203019 -2.599196 -0.196127 0
M  V30 11 N 2.300105 -2.190352 -1.000663 0
M  V30 12 C 3.589465 -1.657066 -0.760205 0
M  V30 13 O 3.954239 -1.456286 0.427440 0
M  V30 14 C 4.404480 -1.379101 -1.936165 0
M  V30 15 C 5.653147 -0.861703 -1.684957 0
M  V30 16 C 6.512757 -0.560642 -2.744991 0
M  V30 17 C 6.053620 -0.803684 -4.020008 0
M  V30 18 C 6.873437 -0.523528 -5.187311 0
M  V30 19 N 7.533149 -0.312860 -6.120777 0
M  V30 20 C 4.799360 -1.322942 -4.262682 0
M  V30 21 N 3.984192 -1.606496 -3.212992 0
M  V30 22 N 1.005856 -3.835585 0.291988 0
M  V30 23 N -0.115032 -3.864445 0.998328 0
M  V30 24 C -0.696386 -2.656489 1.003382 0
M  V30 25 C -1.866009 -1.914462 1.513105 0
M  V30 26 C -3.122323 -2.594557 1.023099 0
M  V30 27 C -1.866273 -1.767993 3.010679 0
M  V30 28 C -3.976305 2.479204 0.553927 0 CFG=1
M  V30 29 C -3.596706 3.667173 1.396161 0
M  V30 30 C -4.457213 2.856398 -0.828853 0
M  V30 31 N -3.680857 2.243416 -1.848116 0
M  V30 32 C -4.286656 2.143159 -3.125098 0
M  V30 33 H -1.739245 0.898647 -2.998662 0
M  V30 34 H -1.263237 2.447667 -3.708216 0
M  V30 35 H -0.366406 1.800387 -2.316879 0
M  V30 36 H -2.224655 3.759015 -2.075167 0
M  V30 37 H -0.783124 2.121644 -0.386998 0
M  V30 38 H -1.758895 3.493680 0.128177 0
M  V30 39 H -0.536331 -0.162682 -0.897255 0
M  V30 40 H 0.260279 0.259039 0.641043 0
M  V30 41 H 1.955489 -2.373942 -1.983218 0
M  V30 42 H 6.030126 -0.664020 -0.683658 0
M  V30 43 H 7.503688 -0.152921 -2.606749 0
M  V30 44 H 4.390038 -1.532540 -5.241831 0
M  V30 45 H -0.513708 -4.709079 1.496066 0
M  V30 46 H -3.449049 -2.191848 0.028748 0
M  V30 47 H -3.922991 -2.403725 1.782611 0
M  V30 48 H -2.985222 -3.689473 0.978907 0
M  V30 49 H -2.895323 -1.551667 3.339628 0
M  V30 50 H -1.224304 -0.906005 3.267210 0
M  V30 51 H -1.447389 -2.684880 3.477337 0
M  V30 52 H -4.772460 1.883980 1.052970 0
M  V30 53 H -2.663842 3.452389 1.948260 0
M  V30 54 H -4.408801 3.896514 2.130227 0
M  V30 55 H -3.395902 4.530789 0.732040 0
M  V30 56 H -5.516145 2.503486 -0.973714 0
M  V30 57 H -4.524059 3.972144 -0.940222 0
M  V30 58 H -3.884519 2.809056 -3.910894 0
M  V30 59 H -4.207528 1.102625 -3.493684 0
M  V30 60 H -5.373345 2.355209 -3.037022 0
M  V30 END ATOM
M  V30 BEGIN BOND
M  V30 1 1 1 2
M  V30 2 1 2 3
M  V30 3 1 3 4
M  V30 4 1 4 5
M  V30 5 2 5 6
M  V30 6 1 5 7
M  V30 7 1 7 8
M  V30 8 1 8 9
M  V30 9 1 9 10
M  V30 10 1 10 11
M  V30 11 1 11 12
M  V30 12 2 12 13
M  V30 13 1 12 14
M  V30 14 2 14 15
M  V30 15 1 15 16
M  V30 16 2 16 17
M  V30 17 1 17 18
M  V30 18 3 18 19
M  V30 19 1 17 20
M  V30 20 2 20 21
M  V30 21 2 10 22
M  V30 22 1 22 23
M  V30 23 1 23 24
M  V30 24 1 24 25
M  V30 25 1 25 26
M  V30 26 1 25 27
M  V30 27 1 4 28
M  V30 28 1 28 29
M  V30 29 1 28 30
M  V30 30 1 30 31
M  V30 31 1 31 32
M  V30 32 1 31 2
M  V30 33 1 25 7
M  V30 34 2 24 9
M  V30 35 1 21 14
M  V30 36 1 1 33
M  V30 37 1 1 34
M  V30 38 1 1 35
M  V30 39 1 2 36 CFG=3
M  V30 40 1 3 37
M  V30 41 1 3 38
M  V30 42 1 8 39
M  V30 43 1 8 40
M  V30 44 1 11 41
M  V30 45 1 15 42
M  V30 46 1 16 43
M  V30 47 1 20 44
M  V30 48 1 23 45
M  V30 49 1 26 46
M  V30 50 1 26 47
M  V30 51 1 26 48
M  V30 52 1 27 49
M  V30 53 1 27 50
M  V30 54 1 27 51
M  V30 55 1 28 52 CFG=1
M  V30 56 1 29 53
M  V30 57 1 29 54
M  V30 58 1 29 55
M  V30 59 1 30 56
M  V30 60 1 30 57
M  V30 61 1 32 58
M  V30 62 1 32 59
M  V30 63 1 32 60
M  V30 END BOND
M  V30 END CTAB
M  END
>  <Dataset>  (340) 
ChEMBL_Kinases

>  <Ligand_Instance>  (340) 
nan

>  <PDB_ID>  (340) 
nan

>  <Standardized_SMILES>  (340) 
C[C@@H]1CN(C(=O)N2Cc3c(NC(=O)c4ccc(C#N)cn4)n[nH]c3C2(C)C)[C@@H](C)CN1C

>  <Name>  (340) 
nan

>  <Pocket>  (340) 
nan

>  <ATP_Site>  (340) 
nan

>  <Peripheral>  (340) 
nan

>  <Num_H_Atoms_ProtBoundConf>  (340) 
nan

>  <Num_Resolved_Atoms>  (340) 
nan

>  <Num_Not_Resolved_Atoms>  (340) 
nan

$$$$
CHEMBL3668018
     RDKit          3D

  0  0  0  0  0  0  0  0  0  0999 V3000
M  V30 BEGIN CTAB
M  V30 COUNTS 59 64 0 0 0
M  V30 BEGIN ATOM
M  V30 1 C 7.670039 -4.654653 -0.745686 0
M  V30 2 C 7.135470 -3.377265 -0.708899 0
M  V30 3 C 6.112857 -3.194643 0.201993 0
M  V30 4 C 5.642610 -4.174658 1.016974 0
M  V30 5 C 4.625767 -3.966823 1.914245 0
M  V30 6 C 4.011992 -2.643026 2.006693 0
M  V30 7 C 4.478476 -1.655619 2.851855 0
M  V30 8 N 3.676829 -0.563813 2.675586 0
M  V30 9 N 2.752205 -0.851951 1.764325 0
M  V30 10 C 1.723167 -0.178077 1.206650 0
M  V30 11 C 0.875169 -0.703900 0.252197 0
M  V30 12 C -0.194956 0.149210 -0.261359 0
M  V30 13 C -0.718636 1.071436 0.620118 0
M  V30 14 C -1.727424 1.905782 0.199017 0
M  V30 15 C -2.261953 1.882945 -1.068094 0
M  V30 16 O -3.219162 2.526837 -1.796632 0
M  V30 17 C -4.058525 3.545896 -1.370975 0
M  V30 18 C -4.996607 3.191006 -0.287760 0
M  V30 19 N -5.940919 2.167835 -0.509358 0
M  V30 20 C -5.527838 0.830649 -0.654922 0
M  V30 21 C -5.067254 0.143273 0.602959 0
M  V30 22 O -5.092084 1.060131 1.637294 0
M  V30 23 C -6.421252 1.479819 1.793863 0
M  V30 24 C -6.919424 2.255800 0.591882 0
M  V30 25 C -1.720011 0.937180 -1.961168 0
M  V30 26 C -0.685796 0.073996 -1.547724 0
M  V30 27 C 1.101872 -2.023236 -0.160502 0
M  V30 28 N 2.129995 -2.694103 0.398056 0
M  V30 29 C 2.926124 -2.130999 1.325603 0
M  V30 30 C 4.202054 -5.013890 2.710296 0
M  V30 31 C 4.753875 -6.268613 2.648261 0
M  V30 32 N 5.749389 -6.444670 1.759689 0
M  V30 33 C 6.191381 -5.452111 0.966695 0
M  V30 34 C 7.214730 -5.669528 0.067701 0
M  V30 35 H 8.486333 -4.962641 -1.412786 0
M  V30 36 H 7.543602 -2.646551 -1.371068 0
M  V30 37 H 5.675894 -2.213513 0.255388 0
M  V30 38 H 5.323376 -1.746192 3.522498 0
M  V30 39 H 1.620027 0.843167 1.586273 0
M  V30 40 H -0.435585 1.240866 1.646455 0
M  V30 41 H -2.203942 2.662769 0.780696 0
M  V30 42 H -4.520239 4.115660 -2.209934 0
M  V30 43 H -3.355103 4.323469 -0.921650 0
M  V30 44 H -4.462094 3.079633 0.674645 0
M  V30 45 H -5.625731 4.135412 -0.099241 0
M  V30 46 H -6.451999 0.247964 -0.977300 0
M  V30 47 H -4.805921 0.624110 -1.450628 0
M  V30 48 H -4.059214 -0.306169 0.458374 0
M  V30 49 H -5.721491 -0.716831 0.885616 0
M  V30 50 H -7.010016 0.548062 1.943732 0
M  V30 51 H -6.477157 2.057252 2.723307 0
M  V30 52 H -7.119787 3.283025 0.886187 0
M  V30 53 H -7.830933 1.747695 0.223003 0
M  V30 54 H -1.932987 0.689942 -3.001571 0
M  V30 55 H -0.185533 -0.688047 -2.126587 0
M  V30 56 H 0.423281 -2.410024 -0.908965 0
M  V30 57 H 3.389904 -4.784133 3.403643 0
M  V30 58 H 4.352135 -7.020187 3.313243 0
M  V30 59 H 7.629889 -6.679893 0.047346 0
M  V30 END ATOM
M  V30 BEGIN BOND
M  V30 1 2 1 2
M  V30 2 1 2 3
M  V30 3 2 3 4
M  V30 4 1 4 5
M  V30 5 1 5 6
M  V30 6 1 6 7
M  V30 7 2 7 8
M  V30 8 1 8 9
M  V30 9 1 9 10
M  V30 10 2 10 11
M  V30 11 1 11 12
M  V30 12 2 12 13
M  V30 13 1 13 14
M  V30 14 2 14 15
M  V30 15 1 15 16
M  V30 16 1 16 17
M  V30 17 1 17 18
M  V30 18 1 18 19
M  V30 19 1 19 20
M  V30 20 1 20 21
M  V30 21 1 21 22
M  V30 22 1 22 23
M  V30 23 1 23 24
M  V30 24 1 15 25
M  V30 25 2 25 26
M  V30 26 1 11 27
M  V30 27 2 27 28
M  V30 28 1 28 29
M  V30 29 2 5 30
M  V30 30 1 30 31
M  V30 31 2 31 32
M  V30 32 1 32 33
M  V30 33 2 33 34
M  V30 34 1 34 1
M  V30 35 1 33 4
M  V30 36 2 29 6
M  V30 37 1 29 9
M  V30 38 1 26 12
M  V30 39 1 24 19
M  V30 40 1 1 35
M  V30 41 1 2 36
M  V30 42 1 3 37
M  V30 43 1 7 38
M  V30 44 1 10 39
M  V30 45 1 13 40
M  V30 46 1 14 41
M  V30 47 1 17 42
M  V30 48 1 17 43
M  V30 49 1 18 44
M  V30 50 1 18 45
M  V30 51 1 20 46
M  V30 52 1 20 47
M  V30 53 1 21 48
M  V30 54 1 21 49
M  V30 55 1 23 50
M  V30 56 1 23 51
M  V30 57 1 24 52
M  V30 58 1 24 53
M  V30 59 1 25 54
M  V30 60 1 26 55
M  V30 61 1 27 56
M  V30 62 1 30 57
M  V30 63 1 31 58
M  V30 64 1 34 59
M  V30 END BOND
M  V30 END CTAB
M  END
>  <Dataset>  (341) 
ChEMBL_Kinases

>  <Ligand_Instance>  (341) 
nan

>  <PDB_ID>  (341) 
nan

>  <Standardized_SMILES>  (341) 
c1ccc2c(-c3cnn4cc(-c5ccc(OCCN6CCOCC6)cc5)cnc34)ccnc2c1

>  <Name>  (341) 
nan

>  <Pocket>  (341) 
nan

>  <ATP_Site>  (341) 
nan

>  <Peripheral>  (341) 
nan

>  <Num_H_Atoms_ProtBoundConf>  (341) 
nan

>  <Num_Resolved_Atoms>  (341) 
nan

>  <Num_Not_Resolved_Atoms>  (341) 
nan

$$$$
CHEMBL3668019
     RDKit          3D

  0  0  0  0  0  0  0  0  0  0999 V3000
M  V30 BEGIN CTAB
M  V30 COUNTS 57 61 0 0 0
M  V30 BEGIN ATOM
M  V30 1 C 6.421633 -2.555747 2.047900 0
M  V30 2 N 7.479899 -1.636417 1.598521 0
M  V30 3 C 8.654474 -2.503380 1.440604 0
M  V30 4 C 7.106231 -1.196489 0.267887 0
M  V30 5 C 5.869776 -0.316112 0.333976 0
M  V30 6 C 5.454511 0.158772 -1.014030 0
M  V30 7 O 4.313037 0.962767 -1.005242 0
M  V30 8 C 3.052725 0.608299 -0.618279 0
M  V30 9 C 2.422330 -0.518325 -0.150808 0
M  V30 10 C 1.085479 -0.564298 0.167714 0
M  V30 11 C 0.324449 0.575559 0.013981 0
M  V30 12 C -1.084539 0.442130 0.370696 0
M  V30 13 C -1.681112 -0.808104 0.162674 0
M  V30 14 N -2.979039 -0.952560 0.480531 0
M  V30 15 C -3.747130 0.025567 0.987353 0
M  V30 16 C -5.088173 0.041986 1.363761 0
M  V30 17 C -5.943305 -1.135512 1.251627 0
M  V30 18 C -6.093023 -2.054871 2.265330 0
M  V30 19 C -6.926552 -3.144792 2.066986 0
M  V30 20 N -7.579126 -3.300704 0.899159 0
M  V30 21 C -7.447819 -2.409185 -0.113747 0
M  V30 22 C -8.138251 -2.601986 -1.312982 0
M  V30 23 C -7.950644 -1.652544 -2.294328 0
M  V30 24 C -7.142435 -0.542761 -2.178156 0
M  V30 25 C -6.492801 -0.413065 -0.974075 0
M  V30 26 C -6.611344 -1.305258 0.071180 0
M  V30 27 C -5.278019 1.353724 1.807834 0
M  V30 28 N -4.119956 2.029632 1.688823 0
M  V30 29 N -3.184177 1.230586 1.191227 0
M  V30 30 C -1.892073 1.453114 0.898034 0
M  V30 31 C 0.893282 1.766176 -0.458340 0
M  V30 32 C 2.263035 1.759435 -0.768977 0
M  V30 33 H 6.855194 -3.341223 2.726504 0
M  V30 34 H 6.104900 -3.112818 1.140890 0
M  V30 35 H 5.596018 -2.031930 2.551724 0
M  V30 36 H 9.418903 -2.063437 0.795948 0
M  V30 37 H 8.290352 -3.455911 0.966588 0
M  V30 38 H 9.017361 -2.810677 2.447435 0
M  V30 39 H 7.960744 -0.643821 -0.160609 0
M  V30 40 H 6.941955 -2.099568 -0.340930 0
M  V30 41 H 6.202861 0.580993 0.939663 0
M  V30 42 H 5.081477 -0.785721 0.925684 0
M  V30 43 H 6.320728 0.699534 -1.500212 0
M  V30 44 H 5.293253 -0.746266 -1.675011 0
M  V30 45 H 3.089402 -1.344164 -0.080822 0
M  V30 46 H 0.740898 -1.521177 0.521635 0
M  V30 47 H -1.150233 -1.651477 -0.237726 0
M  V30 48 H -5.554090 -1.898946 3.191224 0
M  V30 49 H -7.043046 -3.869047 2.868552 0
M  V30 50 H -8.767801 -3.474608 -1.389361 0
M  V30 51 H -8.477863 -1.781133 -3.243138 0
M  V30 52 H -7.013383 0.183363 -2.960714 0
M  V30 53 H -5.846489 0.450275 -0.848707 0
M  V30 54 H -6.264600 1.638457 2.167244 0
M  V30 55 H -1.414214 2.410154 1.051676 0
M  V30 56 H 0.202902 2.587250 -0.537064 0
M  V30 57 H 2.515442 2.772510 -1.116216 0
M  V30 END ATOM
M  V30 BEGIN BOND
M  V30 1 1 1 2
M  V30 2 1 2 3
M  V30 3 1 2 4
M  V30 4 1 4 5
M  V30 5 1 5 6
M  V30 6 1 6 7
M  V30 7 1 7 8
M  V30 8 2 8 9
M  V30 9 1 9 10
M  V30 10 2 10 11
M  V30 11 1 11 12
M  V30 12 1 12 13
M  V30 13 2 13 14
M  V30 14 1 14 15
M  V30 15 2 15 16
M  V30 16 1 16 17
M  V30 17 2 17 18
M  V30 18 1 18 19
M  V30 19 2 19 20
M  V30 20 1 20 21
M  V30 21 2 21 22
M  V30 22 1 22 23
M  V30 23 2 23 24
M  V30 24 1 24 25
M  V30 25 2 25 26
M  V30 26 1 16 27
M  V30 27 2 27 28
M  V30 28 1 28 29
M  V30 29 1 29 30
M  V30 30 1 11 31
M  V30 31 2 31 32
M  V30 32 1 32 8
M  V30 33 2 30 12
M  V30 34 1 29 15
M  V30 35 1 26 17
M  V30 36 1 26 21
M  V30 37 1 1 33
M  V30 38 1 1 34
M  V30 39 1 1 35
M  V30 40 1 3 36
M  V30 41 1 3 37
M  V30 42 1 3 38
M  V30 43 1 4 39
M  V30 44 1 4 40
M  V30 45 1 5 41
M  V30 46 1 5 42
M  V30 47 1 6 43
M  V30 48 1 6 44
M  V30 49 1 9 45
M  V30 50 1 10 46
M  V30 51 1 13 47
M  V30 52 1 18 48
M  V30 53 1 19 49
M  V30 54 1 22 50
M  V30 55 1 23 51
M  V30 56 1 24 52
M  V30 57 1 25 53
M  V30 58 1 27 54
M  V30 59 1 30 55
M  V30 60 1 31 56
M  V30 61 1 32 57
M  V30 END BOND
M  V30 END CTAB
M  END
>  <Dataset>  (342) 
ChEMBL_Kinases

>  <Ligand_Instance>  (342) 
nan

>  <PDB_ID>  (342) 
nan

>  <Standardized_SMILES>  (342) 
CN(C)CCCOc1ccc(-c2cnc3c(-c4ccnc5ccccc45)cnn3c2)cc1

>  <Name>  (342) 
nan

>  <Pocket>  (342) 
nan

>  <ATP_Site>  (342) 
nan

>  <Peripheral>  (342) 
nan

>  <Num_H_Atoms_ProtBoundConf>  (342) 
nan

>  <Num_Resolved_Atoms>  (342) 
nan

>  <Num_Not_Resolved_Atoms>  (342) 
nan

$$$$
CHEMBL3668343
     RDKit          3D

  0  0  0  0  0  0  0  0  0  0999 V3000
M  V30 BEGIN CTAB
M  V30 COUNTS 45 48 0 0 0
M  V30 BEGIN ATOM
M  V30 1 C -1.284547 -3.889041 -1.015534 0
M  V30 2 O -0.643607 -2.658621 -1.240135 0
M  V30 3 C 0.733449 -2.611103 -1.387027 0
M  V30 4 C 1.564176 -3.728605 -1.327446 0
M  V30 5 C 2.941318 -3.566892 -1.489102 0
M  V30 6 C 3.498219 -2.320771 -1.707134 0
M  V30 7 F 4.853513 -2.277634 -1.851223 0
M  V30 8 C 2.659515 -1.211814 -1.764797 0
M  V30 9 C 1.302480 -1.371854 -1.605416 0
M  V30 10 C 0.570431 -0.113250 -1.693462 0
M  V30 11 C 0.094625 0.344927 -2.918123 0
M  V30 12 C -0.580703 1.534386 -2.907544 0
M  V30 13 N -0.809478 2.278469 -1.797433 0
M  V30 14 C -0.364111 1.870094 -0.584645 0
M  V30 15 N -0.403305 2.329127 0.681077 0
M  V30 16 C 0.242805 1.446003 1.497759 0
M  V30 17 C 0.264523 1.854544 2.944999 0
M  V30 18 C 0.913205 0.797175 3.758245 0
M  V30 19 N 0.056045 -0.108537 4.440722 0
M  V30 20 C -0.399961 -1.233635 3.655717 0
M  V30 21 C -1.003598 0.602488 5.079299 0
M  V30 22 C -1.748071 1.418694 4.048502 0
M  V30 23 O -0.960985 2.301360 3.372053 0
M  V30 24 C 0.691589 0.411989 0.700584 0
M  V30 25 C 0.313459 0.675526 -0.599057 0
M  V30 26 H -2.368296 -3.759483 -1.286853 0
M  V30 27 H -0.891170 -4.706429 -1.649411 0
M  V30 28 H -1.218342 -4.197950 0.046966 0
M  V30 29 H 1.090357 -4.683842 -1.155508 0
M  V30 30 H 3.538515 -4.481295 -1.431926 0
M  V30 31 H 3.182347 -0.287460 -1.937732 0
M  V30 32 H 0.266558 -0.233599 -3.815121 0
M  V30 33 H -0.948094 1.881228 -3.875730 0
M  V30 34 H -0.904533 3.254836 0.828162 0
M  V30 35 H 0.932386 2.753900 2.950154 0
M  V30 36 H 1.670380 0.282904 3.106899 0
M  V30 37 H 1.540703 1.299777 4.551206 0
M  V30 38 H -0.867785 -0.983244 2.706014 0
M  V30 39 H 0.420188 -1.956855 3.470942 0
M  V30 40 H -1.178448 -1.765026 4.258670 0
M  V30 41 H -0.606637 1.210769 5.906216 0
M  V30 42 H -1.721703 -0.126698 5.495298 0
M  V30 43 H -2.324760 0.717015 3.419708 0
M  V30 44 H -2.510713 2.001966 4.616059 0
M  V30 45 H 1.226892 -0.366542 1.225255 0
M  V30 END ATOM
M  V30 BEGIN BOND
M  V30 1 1 1 2
M  V30 2 1 2 3
M  V30 3 2 3 4
M  V30 4 1 4 5
M  V30 5 2 5 6
M  V30 6 1 6 7
M  V30 7 1 6 8
M  V30 8 2 8 9
M  V30 9 1 9 10
M  V30 10 2 10 11
M  V30 11 1 11 12
M  V30 12 2 12 13
M  V30 13 1 13 14
M  V30 14 1 14 15
M  V30 15 1 15 16
M  V30 16 1 16 17
M  V30 17 1 17 18
M  V30 18 1 18 19
M  V30 19 1 19 20
M  V30 20 1 19 21
M  V30 21 1 21 22
M  V30 22 1 22 23
M  V30 23 2 16 24
M  V30 24 1 24 25
M  V30 25 1 9 3
M  V30 26 1 25 10
M  V30 27 2 25 14
M  V30 28 1 23 17
M  V30 29 1 1 26
M  V30 30 1 1 27
M  V30 31 1 1 28
M  V30 32 1 4 29
M  V30 33 1 5 30
M  V30 34 1 8 31
M  V30 35 1 11 32
M  V30 36 1 12 33
M  V30 37 1 15 34
M  V30 38 1 17 35
M  V30 39 1 18 36
M  V30 40 1 18 37
M  V30 41 1 20 38
M  V30 42 1 20 39
M  V30 43 1 20 40
M  V30 44 1 21 41
M  V30 45 1 21 42
M  V30 46 1 22 43
M  V30 47 1 22 44
M  V30 48 1 24 45
M  V30 END BOND
M  V30 END CTAB
M  END
>  <Dataset>  (343) 
ChEMBL_Kinases

>  <Ligand_Instance>  (343) 
nan

>  <PDB_ID>  (343) 
nan

>  <Standardized_SMILES>  (343) 
COc1ccc(F)cc1-c1ccnc2[nH]c(C3CN(C)CCO3)cc12

>  <Name>  (343) 
nan

>  <Pocket>  (343) 
nan

>  <ATP_Site>  (343) 
nan

>  <Peripheral>  (343) 
nan

>  <Num_H_Atoms_ProtBoundConf>  (343) 
nan

>  <Num_Resolved_Atoms>  (343) 
nan

>  <Num_Not_Resolved_Atoms>  (343) 
nan

$$$$
CHEMBL3668344
     RDKit          3D

  0  0  0  0  0  0  0  0  0  0999 V3000
M  V30 BEGIN CTAB
M  V30 COUNTS 52 56 0 0 0
M  V30 BEGIN ATOM
M  V30 1 Cl 1.675841 -2.505261 4.790930 0
M  V30 2 C 1.990151 -1.012309 3.968511 0
M  V30 3 C 2.195481 0.078261 4.791856 0
M  V30 4 C 2.462853 1.319132 4.270063 0
M  V30 5 C 2.520470 1.445757 2.882352 0
M  V30 6 N 2.810616 2.648347 2.187890 0
M  V30 7 C 3.051056 2.977044 0.808367 0
M  V30 8 C 1.919477 2.720609 -0.085990 0
M  V30 9 C 1.752119 1.523271 -0.739594 0
M  V30 10 C 0.719580 1.232742 -1.613164 0
M  V30 11 C -0.207113 2.240218 -1.830382 0
M  V30 12 C -0.076234 3.451094 -1.195727 0
M  V30 13 C 0.970130 3.717074 -0.324252 0
M  V30 14 N 2.316344 0.378184 2.125615 0
M  V30 15 C 2.050341 -0.865152 2.596986 0
M  V30 16 C 1.744619 -2.110558 1.892850 0
M  V30 17 C 2.655014 -3.149374 1.979758 0
M  V30 18 C 2.492296 -4.375308 1.320359 0
M  V30 19 N 1.383919 -4.555967 0.555050 0
M  V30 20 C 0.484928 -3.562269 0.457588 0
M  V30 21 N -0.698760 -3.434985 -0.168173 0
M  V30 22 C -1.282243 -2.250442 0.042007 0
M  V30 23 C -2.607158 -1.770841 -0.443619 0
M  V30 24 C -3.721794 -2.490003 0.308906 0
M  V30 25 N -5.000106 -2.347273 -0.331167 0
M  V30 26 C -4.982881 -2.739574 -1.710510 0
M  V30 27 C -3.573684 -3.109879 -2.091221 0
M  V30 28 O -2.724484 -2.059452 -1.783563 0
M  V30 29 C -0.449163 -1.490240 0.871424 0
M  V30 30 C 0.632391 -2.339957 1.106657 0
M  V30 31 H 2.167184 0.061637 5.888105 0
M  V30 32 H 2.633355 2.231041 4.856652 0
M  V30 33 H 2.857299 3.483947 2.856386 0
M  V30 34 H 3.872007 2.261341 0.458019 0
M  V30 35 H 3.398154 4.024199 0.673090 0
M  V30 36 H 2.448477 0.698047 -0.616438 0
M  V30 37 H 0.628891 0.272975 -2.110767 0
M  V30 38 H -1.025462 2.005416 -2.527579 0
M  V30 39 H -0.819021 4.223659 -1.385457 0
M  V30 40 H 1.089187 4.662630 0.184852 0
M  V30 41 H 3.554014 -3.068033 2.569856 0
M  V30 42 H 3.194675 -5.182821 1.385189 0
M  V30 43 H -1.081390 -4.219025 -0.752545 0
M  V30 44 H -2.734651 -0.701607 -0.252218 0
M  V30 45 H -3.783389 -2.155583 1.346205 0
M  V30 46 H -3.426996 -3.580958 0.364144 0
M  V30 47 H -5.666905 -2.958491 0.179804 0
M  V30 48 H -5.435908 -1.965868 -2.373393 0
M  V30 49 H -5.617168 -3.652231 -1.874720 0
M  V30 50 H -3.488725 -3.332505 -3.182552 0
M  V30 51 H -3.321872 -4.068245 -1.595090 0
M  V30 52 H -0.581421 -0.498954 1.252342 0
M  V30 END ATOM
M  V30 BEGIN BOND
M  V30 1 1 1 2
M  V30 2 2 2 3
M  V30 3 1 3 4
M  V30 4 2 4 5
M  V30 5 1 5 6
M  V30 6 1 6 7
M  V30 7 1 7 8
M  V30 8 2 8 9
M  V30 9 1 9 10
M  V30 10 2 10 11
M  V30 11 1 11 12
M  V30 12 2 12 13
M  V30 13 1 5 14
M  V30 14 2 14 15
M  V30 15 1 15 16
M  V30 16 2 16 17
M  V30 17 1 17 18
M  V30 18 2 18 19
M  V30 19 1 19 20
M  V30 20 1 20 21
M  V30 21 1 21 22
M  V30 22 1 22 23
M  V30 23 1 23 24
M  V30 24 1 24 25
M  V30 25 1 25 26
M  V30 26 1 26 27
M  V30 27 1 27 28
M  V30 28 2 22 29
M  V30 29 1 29 30
M  V30 30 1 15 2
M  V30 31 1 30 16
M  V30 32 1 13 8
M  V30 33 2 30 20
M  V30 34 1 28 23
M  V30 35 1 3 31
M  V30 36 1 4 32
M  V30 37 1 6 33
M  V30 38 1 7 34
M  V30 39 1 7 35
M  V30 40 1 9 36
M  V30 41 1 10 37
M  V30 42 1 11 38
M  V30 43 1 12 39
M  V30 44 1 13 40
M  V30 45 1 17 41
M  V30 46 1 18 42
M  V30 47 1 21 43
M  V30 48 1 23 44
M  V30 49 1 24 45
M  V30 50 1 24 46
M  V30 51 1 25 47
M  V30 52 1 26 48
M  V30 53 1 26 49
M  V30 54 1 27 50
M  V30 55 1 27 51
M  V30 56 1 29 52
M  V30 END BOND
M  V30 END CTAB
M  END
>  <Dataset>  (344) 
ChEMBL_Kinases

>  <Ligand_Instance>  (344) 
nan

>  <PDB_ID>  (344) 
nan

>  <Standardized_SMILES>  (344) 
Clc1ccc(NCc2ccccc2)nc1-c1ccnc2[nH]c(C3CNCCO3)cc12

>  <Name>  (344) 
nan

>  <Pocket>  (344) 
nan

>  <ATP_Site>  (344) 
nan

>  <Peripheral>  (344) 
nan

>  <Num_H_Atoms_ProtBoundConf>  (344) 
nan

>  <Num_Resolved_Atoms>  (344) 
nan

>  <Num_Not_Resolved_Atoms>  (344) 
nan

$$$$
CHEMBL3668345
     RDKit          3D

  0  0  0  0  0  0  0  0  0  0999 V3000
M  V30 BEGIN CTAB
M  V30 COUNTS 48 51 0 0 0
M  V30 BEGIN ATOM
M  V30 1 C 1.642933 -4.213442 -3.106452 0
M  V30 2 O 1.574515 -2.872214 -2.658662 0
M  V30 3 C 2.732380 -2.327347 -2.124481 0
M  V30 4 C 3.930675 -3.000633 -2.003440 0
M  V30 5 C 5.003918 -2.301535 -1.440568 0
M  V30 6 C 4.869495 -0.999699 -1.026142 0
M  V30 7 F 5.932337 -0.355208 -0.485418 0
M  V30 8 C 3.655628 -0.332119 -1.153801 0
M  V30 9 C 2.582888 -1.033670 -1.717381 0
M  V30 10 C 1.372713 -0.220804 -1.793218 0
M  V30 11 C 1.125893 0.544855 -2.922600 0
M  V30 12 C -0.032337 1.295058 -2.943607 0
M  V30 13 N -0.949976 1.343666 -1.946819 0
M  V30 14 C -0.713130 0.599424 -0.845397 0
M  V30 15 N -1.383399 0.407332 0.305301 0
M  V30 16 C -0.743010 -0.444434 1.128350 0
M  V30 17 C -1.179723 -0.895639 2.483545 0
M  V30 18 C -0.680031 -0.010635 3.586370 0
M  V30 19 N -1.661931 0.005438 4.650848 0
M  V30 20 C -2.937154 0.511340 4.183987 0
M  V30 21 C -2.798891 1.987818 3.859944 0
M  V30 22 C -3.869843 0.425655 5.383229 0
M  V30 23 C -3.381588 -0.308066 3.019565 0
M  V30 24 O -2.501889 -1.243598 2.559042 0
M  V30 25 C 0.410528 -0.798027 0.418452 0
M  V30 26 C 0.434228 -0.162490 -0.789763 0
M  V30 27 H 2.295240 -4.313763 -4.009493 0
M  V30 28 H 2.098268 -4.794563 -2.276709 0
M  V30 29 H 0.647675 -4.641925 -3.312087 0
M  V30 30 H 3.983587 -4.017897 -2.342768 0
M  V30 31 H 5.949062 -2.813363 -1.338383 0
M  V30 32 H 3.615350 0.701887 -0.804871 0
M  V30 33 H 1.809009 0.549825 -3.741070 0
M  V30 34 H -0.257815 1.906370 -3.811648 0
M  V30 35 H -2.287462 0.892954 0.474478 0
M  V30 36 H -0.626955 -1.872633 2.629145 0
M  V30 37 H 0.261699 -0.390459 4.077302 0
M  V30 38 H -0.416045 0.963700 3.180557 0
M  V30 39 H -1.287262 0.550438 5.458689 0
M  V30 40 H -1.733293 2.326667 3.936776 0
M  V30 41 H -3.091647 2.216196 2.811206 0
M  V30 42 H -3.364929 2.642467 4.554193 0
M  V30 43 H -3.266441 0.707501 6.278135 0
M  V30 44 H -4.372838 -0.537841 5.461996 0
M  V30 45 H -4.655696 1.210170 5.203174 0
M  V30 46 H -4.274967 -0.895979 3.388574 0
M  V30 47 H -3.844471 0.328106 2.211284 0
M  V30 48 H 1.128728 -1.486100 0.845360 0
M  V30 END ATOM
M  V30 BEGIN BOND
M  V30 1 1 1 2
M  V30 2 1 2 3
M  V30 3 2 3 4
M  V30 4 1 4 5
M  V30 5 2 5 6
M  V30 6 1 6 7
M  V30 7 1 6 8
M  V30 8 2 8 9
M  V30 9 1 9 10
M  V30 10 2 10 11
M  V30 11 1 11 12
M  V30 12 2 12 13
M  V30 13 1 13 14
M  V30 14 1 14 15
M  V30 15 1 15 16
M  V30 16 1 16 17
M  V30 17 1 17 18
M  V30 18 1 18 19
M  V30 19 1 19 20
M  V30 20 1 20 21
M  V30 21 1 20 22
M  V30 22 1 20 23
M  V30 23 1 23 24
M  V30 24 2 16 25
M  V30 25 1 25 26
M  V30 26 1 9 3
M  V30 27 1 26 10
M  V30 28 2 26 14
M  V30 29 1 24 17
M  V30 30 1 1 27
M  V30 31 1 1 28
M  V30 32 1 1 29
M  V30 33 1 4 30
M  V30 34 1 5 31
M  V30 35 1 8 32
M  V30 36 1 11 33
M  V30 37 1 12 34
M  V30 38 1 15 35
M  V30 39 1 17 36
M  V30 40 1 18 37
M  V30 41 1 18 38
M  V30 42 1 19 39
M  V30 43 1 21 40
M  V30 44 1 21 41
M  V30 45 1 21 42
M  V30 46 1 22 43
M  V30 47 1 22 44
M  V30 48 1 22 45
M  V30 49 1 23 46
M  V30 50 1 23 47
M  V30 51 1 25 48
M  V30 END BOND
M  V30 END CTAB
M  END
>  <Dataset>  (345) 
ChEMBL_Kinases

>  <Ligand_Instance>  (345) 
nan

>  <PDB_ID>  (345) 
nan

>  <Standardized_SMILES>  (345) 
COc1ccc(F)cc1-c1ccnc2[nH]c(C3CNC(C)(C)CO3)cc12

>  <Name>  (345) 
nan

>  <Pocket>  (345) 
nan

>  <ATP_Site>  (345) 
nan

>  <Peripheral>  (345) 
nan

>  <Num_H_Atoms_ProtBoundConf>  (345) 
nan

>  <Num_Resolved_Atoms>  (345) 
nan

>  <Num_Not_Resolved_Atoms>  (345) 
nan

$$$$
CHEMBL3667489
     RDKit          3D

  0  0  0  0  0  0  0  0  0  0999 V3000
M  V30 BEGIN CTAB
M  V30 COUNTS 72 76 0 0 0
M  V30 BEGIN ATOM
M  V30 1 C 4.592376 -1.322947 2.341913 0
M  V30 2 C 3.128151 -1.346634 2.119812 0 CFG=2
M  V30 3 C 2.701225 -2.072757 0.840124 0
M  V30 4 N 1.244321 -1.856855 0.769237 0
M  V30 5 C 0.727465 -1.982935 -0.550501 0
M  V30 6 O 1.812695 -2.250702 -1.082205 0
M  V30 7 N -0.602295 -1.837616 -1.032352 0
M  V30 8 C -1.894288 -1.523066 -0.457611 0
M  V30 9 C -2.817951 -1.689386 -1.610398 0
M  V30 10 C -4.139303 -1.650549 -1.982074 0
M  V30 11 N -5.272579 -1.375291 -1.172482 0
M  V30 12 C -6.163217 -2.169452 -0.391193 0
M  V30 13 O -5.987431 -3.415538 -0.344189 0
M  V30 14 C -7.224199 -1.453245 0.300696 0
M  V30 15 N -7.391408 -0.114649 0.236528 0
M  V30 16 C -8.404202 0.496688 0.905022 0
M  V30 17 C -9.237016 -0.330857 1.642281 0
M  V30 18 C -9.087986 -1.703874 1.724865 0
M  V30 19 N -8.057278 -2.217832 1.029313 0
M  V30 20 N -4.187318 -1.928404 -3.297119 0
M  V30 21 N -2.963874 -2.140417 -3.773755 0
M  V30 22 C -2.114175 -1.996113 -2.745838 0
M  V30 23 C -0.678813 -2.067541 -2.475127 0
M  V30 24 C 0.039546 -1.003331 -3.262241 0
M  V30 25 C -0.189203 -3.451481 -2.855144 0
M  V30 26 C 0.460589 -1.550978 1.976413 0 CFG=1
M  V30 27 C 0.146835 -2.799909 2.773395 0
M  V30 28 C 1.101839 -0.461329 2.814595 0
M  V30 29 N 2.371605 -0.198366 2.173894 0
M  V30 30 C 2.764835 1.095037 2.045092 0
M  V30 31 C 3.990840 1.521252 1.351233 0
M  V30 32 C 4.030219 3.058652 1.462163 0
M  V30 33 C 3.314871 3.718591 0.327027 0
M  V30 34 O 4.041983 3.551185 -0.855427 0
M  V30 35 C 4.766432 2.359536 -0.787104 0
M  V30 36 C 3.975847 1.238149 -0.147553 0
M  V30 37 H 4.911379 -0.673667 3.178701 0
M  V30 38 H 4.971909 -2.344411 2.675554 0
M  V30 39 H 5.148381 -1.169724 1.395537 0
M  V30 40 H 2.736267 -2.056261 2.923276 0
M  V30 41 H 2.937199 -3.146179 0.958135 0
M  V30 42 H 3.242136 -1.653078 -0.005911 0
M  V30 43 H -1.878560 -0.453463 -0.155853 0
M  V30 44 H -2.178886 -2.228629 0.320217 0
M  V30 45 H -5.400541 -0.321684 -1.227512 0
M  V30 46 H -8.536334 1.553029 0.854460 0
M  V30 47 H -10.045571 0.118423 2.180685 0
M  V30 48 H -9.770957 -2.295943 2.317340 0
M  V30 49 H -2.741485 -2.373342 -4.768732 0
M  V30 50 H 1.066393 -1.329351 -3.558930 0
M  V30 51 H 0.080959 -0.088024 -2.636339 0
M  V30 52 H -0.522134 -0.773582 -4.193868 0
M  V30 53 H 0.916780 -3.507608 -2.833371 0
M  V30 54 H -0.502045 -3.592085 -3.923264 0
M  V30 55 H -0.643569 -4.232467 -2.243645 0
M  V30 56 H -0.506186 -1.147355 1.653448 0
M  V30 57 H -0.952460 -2.865683 3.030248 0
M  V30 58 H 0.324876 -3.725075 2.177402 0
M  V30 59 H 0.638194 -2.818170 3.773212 0
M  V30 60 H 0.474556 0.437847 2.927888 0
M  V30 61 H 1.332904 -0.871778 3.819027 0
M  V30 62 H 1.916593 1.671704 1.555262 0
M  V30 63 H 2.794418 1.579039 3.071420 0
M  V30 64 H 4.952637 1.189506 1.718387 0
M  V30 65 H 5.044794 3.447625 1.566069 0
M  V30 66 H 3.493013 3.378573 2.398169 0
M  V30 67 H 3.257241 4.788678 0.550019 0
M  V30 68 H 2.281885 3.337389 0.232553 0
M  V30 69 H 5.094299 2.102829 -1.814428 0
M  V30 70 H 5.650542 2.548067 -0.149599 0
M  V30 71 H 2.944963 1.156248 -0.545693 0
M  V30 72 H 4.549541 0.313430 -0.360524 0
M  V30 END ATOM
M  V30 BEGIN BOND
M  V30 1 1 1 2
M  V30 2 1 2 3
M  V30 3 1 3 4
M  V30 4 1 4 5
M  V30 5 2 5 6
M  V30 6 1 5 7
M  V30 7 1 7 8
M  V30 8 1 8 9
M  V30 9 1 9 10
M  V30 10 1 10 11
M  V30 11 1 11 12
M  V30 12 2 12 13
M  V30 13 1 12 14
M  V30 14 2 14 15
M  V30 15 1 15 16
M  V30 16 2 16 17
M  V30 17 1 17 18
M  V30 18 2 18 19
M  V30 19 2 10 20
M  V30 20 1 20 21
M  V30 21 1 21 22
M  V30 22 1 22 23
M  V30 23 1 23 24
M  V30 24 1 23 25
M  V30 25 1 4 26
M  V30 26 1 26 27
M  V30 27 1 26 28
M  V30 28 1 28 29
M  V30 29 1 29 30
M  V30 30 1 30 31
M  V30 31 1 31 32
M  V30 32 1 32 33
M  V30 33 1 33 34
M  V30 34 1 34 35
M  V30 35 1 35 36
M  V30 36 1 29 2
M  V30 37 1 36 31
M  V30 38 1 23 7
M  V30 39 2 22 9
M  V30 40 1 19 14
M  V30 41 1 1 37
M  V30 42 1 1 38
M  V30 43 1 1 39
M  V30 44 1 2 40 CFG=1
M  V30 45 1 3 41
M  V30 46 1 3 42
M  V30 47 1 8 43
M  V30 48 1 8 44
M  V30 49 1 11 45
M  V30 50 1 16 46
M  V30 51 1 17 47
M  V30 52 1 18 48
M  V30 53 1 21 49
M  V30 54 1 24 50
M  V30 55 1 24 51
M  V30 56 1 24 52
M  V30 57 1 25 53
M  V30 58 1 25 54
M  V30 59 1 25 55
M  V30 60 1 26 56 CFG=3
M  V30 61 1 27 57
M  V30 62 1 27 58
M  V30 63 1 27 59
M  V30 64 1 28 60
M  V30 65 1 28 61
M  V30 66 1 30 62
M  V30 67 1 30 63
M  V30 68 1 31 64
M  V30 69 1 32 65
M  V30 70 1 32 66
M  V30 71 1 33 67
M  V30 72 1 33 68
M  V30 73 1 35 69
M  V30 74 1 35 70
M  V30 75 1 36 71
M  V30 76 1 36 72
M  V30 END BOND
M  V30 END CTAB
M  END
>  <Dataset>  (346) 
ChEMBL_Kinases

>  <Ligand_Instance>  (346) 
nan

>  <PDB_ID>  (346) 
nan

>  <Standardized_SMILES>  (346) 
C[C@@H]1CN(C(=O)N2Cc3c(NC(=O)c4ncccn4)n[nH]c3C2(C)C)[C@@H](C)CN1CC1CCOCC1

>  <Name>  (346) 
nan

>  <Pocket>  (346) 
nan

>  <ATP_Site>  (346) 
nan

>  <Peripheral>  (346) 
nan

>  <Num_H_Atoms_ProtBoundConf>  (346) 
nan

>  <Num_Resolved_Atoms>  (346) 
nan

>  <Num_Not_Resolved_Atoms>  (346) 
nan

$$$$
CHEMBL3668394
     RDKit          3D

  0  0  0  0  0  0  0  0  0  0999 V3000
M  V30 BEGIN CTAB
M  V30 COUNTS 66 70 0 0 0
M  V30 BEGIN ATOM
M  V30 1 C 5.240810 -0.372145 5.883632 0
M  V30 2 C 3.861234 -0.309030 5.263628 0
M  V30 3 O 3.946886 0.109845 3.918758 0
M  V30 4 C 4.460944 1.301656 3.483686 0
M  V30 5 O 4.921827 2.164969 4.300416 0
M  V30 6 C 4.466564 1.564366 2.019419 0
M  V30 7 C 4.584668 0.399329 1.080451 0
M  V30 8 C 3.235744 1.032291 1.312307 0
M  V30 9 C 2.710041 1.967621 0.231716 0
M  V30 10 N 1.577414 1.565410 -0.459972 0
M  V30 11 C 0.290203 1.530021 0.050589 0 CFG=1
M  V30 12 C -0.015666 0.845409 1.330372 0
M  V30 13 C -1.454038 0.931617 1.744548 0
M  V30 14 C -2.428129 1.429647 0.745310 0 CFG=2
M  V30 15 C -3.168629 0.348887 0.030668 0
M  V30 16 C -2.664186 -0.728668 -0.669182 0
M  V30 17 C -3.661958 -1.517857 -1.202051 0
M  V30 18 C -3.738220 -2.672578 -1.960102 0
M  V30 19 C -2.456800 -3.267289 -2.329642 0
M  V30 20 C -1.930395 -2.806648 -3.540666 0
M  V30 21 C -0.710438 -3.313732 -3.980340 0
M  V30 22 F -0.176405 -2.881963 -5.155516 0
M  V30 23 C -0.040659 -4.259223 -3.218172 0
M  V30 24 C -0.570621 -4.703519 -2.028339 0
M  V30 25 C -1.776527 -4.223391 -1.562548 0
M  V30 26 O -2.387816 -4.614076 -0.373016 0
M  V30 27 C -1.811140 -5.570085 0.496122 0
M  V30 28 C -4.995313 -3.180150 -2.310848 0
M  V30 29 C -6.123025 -2.508374 -1.886103 0
M  V30 30 N -6.048463 -1.386982 -1.149829 0
M  V30 31 C -4.838720 -0.909492 -0.819899 0
M  V30 32 N -4.515609 0.178613 -0.100976 0
M  V30 33 C -1.925315 2.501230 -0.156774 0
M  V30 34 C -0.461563 2.859490 0.093945 0
M  V30 35 H 5.853801 0.504685 5.645783 0
M  V30 36 H 5.759835 -1.262348 5.440596 0
M  V30 37 H 5.148496 -0.486578 6.990115 0
M  V30 38 H 3.491773 -1.357929 5.234961 0
M  V30 39 H 3.171113 0.359414 5.830952 0
M  V30 40 H 4.888346 2.525597 1.722929 0
M  V30 41 H 5.067373 0.582332 0.094661 0
M  V30 42 H 4.804721 -0.553546 1.573585 0
M  V30 43 H 2.538772 0.361611 1.816078 0
M  V30 44 H 3.553759 2.051820 -0.518628 0
M  V30 45 H 2.654827 3.019452 0.630297 0
M  V30 46 H 1.780304 1.027218 -1.302746 0
M  V30 47 H -0.305380 0.944571 -0.741196 0
M  V30 48 H 0.276772 -0.233335 1.358894 0
M  V30 49 H 0.528237 1.404715 2.162662 0
M  V30 50 H -1.827572 -0.088826 2.077369 0
M  V30 51 H -1.570367 1.536434 2.695632 0
M  V30 52 H -3.260070 1.937241 1.348547 0
M  V30 53 H -1.643338 -0.997364 -0.827492 0
M  V30 54 H -2.424542 -2.072214 -4.159142 0
M  V30 55 H 0.922297 -4.684102 -3.526955 0
M  V30 56 H -0.081851 -5.434922 -1.408814 0
M  V30 57 H -1.271610 -6.374550 -0.042482 0
M  V30 58 H -1.112869 -5.078001 1.220497 0
M  V30 59 H -2.592447 -6.064696 1.103847 0
M  V30 60 H -4.939130 -4.071383 -2.893835 0
M  V30 61 H -7.072381 -2.927263 -2.173969 0
M  V30 62 H -5.219759 0.849881 0.329812 0
M  V30 63 H -2.483077 3.471727 -0.079672 0
M  V30 64 H -1.977410 2.237863 -1.234640 0
M  V30 65 H -0.112999 3.555641 -0.666278 0
M  V30 66 H -0.385542 3.237355 1.134275 0
M  V30 END ATOM
M  V30 BEGIN BOND
M  V30 1 1 1 2
M  V30 2 1 2 3
M  V30 3 1 3 4
M  V30 4 2 4 5
M  V30 5 1 4 6
M  V30 6 1 6 7
M  V30 7 1 7 8
M  V30 8 1 8 9
M  V30 9 1 9 10
M  V30 10 1 10 11
M  V30 11 1 11 12
M  V30 12 1 12 13
M  V30 13 1 13 14
M  V30 14 1 14 15
M  V30 15 2 15 16
M  V30 16 1 16 17
M  V30 17 2 17 18
M  V30 18 1 18 19
M  V30 19 2 19 20
M  V30 20 1 20 21
M  V30 21 1 21 22
M  V30 22 2 21 23
M  V30 23 1 23 24
M  V30 24 2 24 25
M  V30 25 1 25 26
M  V30 26 1 26 27
M  V30 27 1 18 28
M  V30 28 2 28 29
M  V30 29 1 29 30
M  V30 30 2 30 31
M  V30 31 1 31 32
M  V30 32 1 14 33
M  V30 33 1 33 34
M  V30 34 1 8 6
M  V30 35 1 34 11
M  V30 36 1 32 15
M  V30 37 1 31 17
M  V30 38 1 25 19
M  V30 39 1 1 35
M  V30 40 1 1 36
M  V30 41 1 1 37
M  V30 42 1 2 38
M  V30 43 1 2 39
M  V30 44 1 6 40
M  V30 45 1 7 41
M  V30 46 1 7 42
M  V30 47 1 8 43
M  V30 48 1 9 44
M  V30 49 1 9 45
M  V30 50 1 10 46
M  V30 51 1 11 47 CFG=3
M  V30 52 1 12 48
M  V30 53 1 12 49
M  V30 54 1 13 50
M  V30 55 1 13 51
M  V30 56 1 14 52 CFG=1
M  V30 57 1 16 53
M  V30 58 1 20 54
M  V30 59 1 23 55
M  V30 60 1 24 56
M  V30 61 1 27 57
M  V30 62 1 27 58
M  V30 63 1 27 59
M  V30 64 1 28 60
M  V30 65 1 29 61
M  V30 66 1 32 62
M  V30 67 1 33 63
M  V30 68 1 33 64
M  V30 69 1 34 65
M  V30 70 1 34 66
M  V30 END BOND
M  V30 END CTAB
M  END
>  <Dataset>  (347) 
ChEMBL_Kinases

>  <Ligand_Instance>  (347) 
nan

>  <PDB_ID>  (347) 
nan

>  <Standardized_SMILES>  (347) 
CCOC(=O)C1CC1CN[C@H]1CC[C@H](c2cc3c(-c4cc(F)ccc4OC)ccnc3[nH]2)CC1

>  <Name>  (347) 
nan

>  <Pocket>  (347) 
nan

>  <ATP_Site>  (347) 
nan

>  <Peripheral>  (347) 
nan

>  <Num_H_Atoms_ProtBoundConf>  (347) 
nan

>  <Num_Resolved_Atoms>  (347) 
nan

>  <Num_Not_Resolved_Atoms>  (347) 
nan

$$$$
CHEMBL3668393
     RDKit          3D

  0  0  0  0  0  0  0  0  0  0999 V3000
M  V30 BEGIN CTAB
M  V30 COUNTS 62 65 0 0 0
M  V30 BEGIN ATOM
M  V30 1 C 1.678709 -1.019398 5.485150 0
M  V30 2 O 2.234273 0.260149 5.753339 0
M  V30 3 C 2.772173 1.015685 4.757694 0
M  V30 4 O 2.553741 0.198158 3.824094 0
M  V30 5 C 3.429686 2.254939 4.368979 0
M  V30 6 C 2.599112 3.239294 3.595709 0
M  V30 7 C 2.078204 2.695284 2.290822 0
M  V30 8 N 1.324055 3.628752 1.539760 0
M  V30 9 C 0.769028 3.186291 0.300522 0 CFG=1
M  V30 10 C 1.764444 2.620795 -0.654864 0
M  V30 11 C 1.765140 1.144094 -0.815995 0
M  V30 12 C 0.636293 0.383137 -0.240267 0 CFG=2
M  V30 13 C 0.458078 -0.925615 -0.945937 0
M  V30 14 C -0.582654 -1.785618 -0.562530 0
M  V30 15 C -0.447324 -2.891865 -1.384664 0
M  V30 16 C -1.209393 -4.061850 -1.446424 0
M  V30 17 C -2.385629 -4.334321 -0.619402 0
M  V30 18 C -2.483367 -4.938240 0.618435 0
M  V30 19 C -3.727324 -5.072735 1.174493 0
M  V30 20 F -3.800347 -5.668685 2.407055 0
M  V30 21 C -4.911189 -4.657181 0.609736 0
M  V30 22 C -4.766874 -4.055233 -0.634802 0
M  V30 23 C -3.540977 -3.877146 -1.274068 0
M  V30 24 O -3.559421 -3.261864 -2.509288 0
M  V30 25 C -4.674340 -2.792932 -3.197037 0
M  V30 26 C -0.872307 -5.053582 -2.370811 0
M  V30 27 C 0.230787 -4.805028 -3.193482 0
M  V30 28 N 0.949971 -3.648176 -3.103528 0
M  V30 29 C 0.631090 -2.683716 -2.213461 0
M  V30 30 N 1.179403 -1.490677 -1.947030 0
M  V30 31 C -0.608070 1.265524 -0.512420 0
M  V30 32 C -0.438358 2.347308 0.540147 0
M  V30 33 H 1.514660 -1.495176 6.475740 0
M  V30 34 H 0.724624 -0.811854 4.944364 0
M  V30 35 H 2.363329 -1.653873 4.878122 0
M  V30 36 H 4.314070 1.998177 3.708527 0
M  V30 37 H 3.893325 2.715246 5.272351 0
M  V30 38 H 3.275976 4.131740 3.427860 0
M  V30 39 H 1.771621 3.669941 4.220582 0
M  V30 40 H 2.971471 2.409967 1.695483 0
M  V30 41 H 1.545468 1.752760 2.518600 0
M  V30 42 H 0.824908 4.360735 2.047750 0
M  V30 43 H 0.376375 4.129898 -0.178270 0
M  V30 44 H 1.690386 3.080062 -1.664433 0
M  V30 45 H 2.783594 2.926720 -0.278772 0
M  V30 46 H 2.721757 0.687075 -0.425856 0
M  V30 47 H 1.800995 0.863622 -1.911959 0
M  V30 48 H 0.600054 0.219372 0.834549 0
M  V30 49 H -1.328736 -1.646551 0.190438 0
M  V30 50 H -1.542684 -5.243418 1.021939 0
M  V30 51 H -5.870307 -4.773966 1.067900 0
M  V30 52 H -5.709106 -3.723519 -1.081407 0
M  V30 53 H -5.037071 -1.815376 -2.855043 0
M  V30 54 H -5.493363 -3.545580 -3.101194 0
M  V30 55 H -4.396595 -2.764183 -4.280470 0
M  V30 56 H -1.432728 -5.970650 -2.449685 0
M  V30 57 H 0.566967 -5.505810 -3.936558 0
M  V30 58 H 2.000725 -1.076225 -2.415123 0
M  V30 59 H -1.501358 0.688082 -0.269277 0
M  V30 60 H -0.555481 1.677202 -1.517574 0
M  V30 61 H -0.322773 1.781665 1.499816 0
M  V30 62 H -1.397899 2.896128 0.605385 0
M  V30 END ATOM
M  V30 BEGIN BOND
M  V30 1 1 1 2
M  V30 2 1 2 3
M  V30 3 2 3 4
M  V30 4 1 3 5
M  V30 5 1 5 6
M  V30 6 1 6 7
M  V30 7 1 7 8
M  V30 8 1 8 9
M  V30 9 1 9 10
M  V30 10 1 10 11
M  V30 11 1 11 12
M  V30 12 1 12 13
M  V30 13 2 13 14
M  V30 14 1 14 15
M  V30 15 2 15 16
M  V30 16 1 16 17
M  V30 17 2 17 18
M  V30 18 1 18 19
M  V30 19 1 19 20
M  V30 20 2 19 21
M  V30 21 1 21 22
M  V30 22 2 22 23
M  V30 23 1 23 24
M  V30 24 1 24 25
M  V30 25 1 16 26
M  V30 26 2 26 27
M  V30 27 1 27 28
M  V30 28 2 28 29
M  V30 29 1 29 30
M  V30 30 1 12 31
M  V30 31 1 31 32
M  V30 32 1 32 9
M  V30 33 1 30 13
M  V30 34 1 29 15
M  V30 35 1 23 17
M  V30 36 1 1 33
M  V30 37 1 1 34
M  V30 38 1 1 35
M  V30 39 1 5 36
M  V30 40 1 5 37
M  V30 41 1 6 38
M  V30 42 1 6 39
M  V30 43 1 7 40
M  V30 44 1 7 41
M  V30 45 1 8 42
M  V30 46 1 9 43 CFG=3
M  V30 47 1 10 44
M  V30 48 1 10 45
M  V30 49 1 11 46
M  V30 50 1 11 47
M  V30 51 1 12 48 CFG=1
M  V30 52 1 14 49
M  V30 53 1 18 50
M  V30 54 1 21 51
M  V30 55 1 22 52
M  V30 56 1 25 53
M  V30 57 1 25 54
M  V30 58 1 25 55
M  V30 59 1 26 56
M  V30 60 1 27 57
M  V30 61 1 30 58
M  V30 62 1 31 59
M  V30 63 1 31 60
M  V30 64 1 32 61
M  V30 65 1 32 62
M  V30 END BOND
M  V30 END CTAB
M  END
>  <Dataset>  (348) 
ChEMBL_Kinases

>  <Ligand_Instance>  (348) 
nan

>  <PDB_ID>  (348) 
nan

>  <Standardized_SMILES>  (348) 
COC(=O)CCCN[C@H]1CC[C@H](c2cc3c(-c4cc(F)ccc4OC)ccnc3[nH]2)CC1

>  <Name>  (348) 
nan

>  <Pocket>  (348) 
nan

>  <ATP_Site>  (348) 
nan

>  <Peripheral>  (348) 
nan

>  <Num_H_Atoms_ProtBoundConf>  (348) 
nan

>  <Num_Resolved_Atoms>  (348) 
nan

>  <Num_Not_Resolved_Atoms>  (348) 
nan

$$$$
CHEMBL3668392
     RDKit          3D

  0  0  0  0  0  0  0  0  0  0999 V3000
M  V30 BEGIN CTAB
M  V30 COUNTS 48 51 0 0 0
M  V30 BEGIN ATOM
M  V30 1 C 3.704753 -2.901710 0.877278 0
M  V30 2 O 3.323990 -1.565263 0.735449 0
M  V30 3 C 3.286666 -0.861674 -0.448042 0
M  V30 4 C 3.660497 -1.536388 -1.610789 0
M  V30 5 C 3.638912 -0.868445 -2.828452 0
M  V30 6 C 3.253020 0.455343 -2.909555 0
M  V30 7 F 3.216188 1.145684 -4.069298 0
M  V30 8 C 2.880789 1.135214 -1.768212 0
M  V30 9 C 2.900041 0.477874 -0.556362 0
M  V30 10 C 2.532761 1.062648 0.745433 0
M  V30 11 C 3.445588 1.690828 1.570104 0
M  V30 12 C 3.030357 2.216583 2.777866 0
M  V30 13 N 1.737025 2.114225 3.145847 0
M  V30 14 C 0.836871 1.494404 2.331917 0
M  V30 15 N -0.483815 1.278627 2.490705 0
M  V30 16 C -0.978928 0.621781 1.426799 0
M  V30 17 C -2.361595 0.177351 1.166845 0
M  V30 18 C -2.672408 -0.462444 0.055321 0
M  V30 19 C -4.114836 -0.839843 -0.047641 0
M  V30 20 N -4.574105 -1.395670 1.177082 0
M  V30 21 S -3.991192 -2.985043 1.461970 0
M  V30 22 C -2.242561 -3.077615 1.578644 0
M  V30 23 O -4.430673 -3.815221 0.273319 0
M  V30 24 O -4.610574 -3.601261 2.665239 0
M  V30 25 C -4.470079 -0.526924 2.312506 0
M  V30 26 C -3.378208 0.488468 2.219891 0
M  V30 27 C 0.082987 0.408459 0.544608 0
M  V30 28 C 1.209686 0.958791 1.123540 0
M  V30 29 H 3.869098 -3.111014 1.959925 0
M  V30 30 H 4.690787 -3.085046 0.387936 0
M  V30 31 H 2.987102 -3.608214 0.413071 0
M  V30 32 H 3.976833 -2.577213 -1.634963 0
M  V30 33 H 3.915172 -1.328228 -3.766955 0
M  V30 34 H 2.559392 2.174607 -1.706748 0
M  V30 35 H 4.486771 1.761882 1.251747 0
M  V30 36 H 3.718826 2.714982 3.447857 0
M  V30 37 H -1.053689 1.576360 3.321575 0
M  V30 38 H -1.883122 -0.660090 -0.676671 0
M  V30 39 H -4.736641 -0.043017 -0.459527 0
M  V30 40 H -4.113509 -1.692513 -0.789755 0
M  V30 41 H -1.907265 -2.527220 2.478616 0
M  V30 42 H -1.727528 -2.751532 0.661071 0
M  V30 43 H -1.985583 -4.142614 1.750296 0
M  V30 44 H -4.399501 -1.162890 3.219110 0
M  V30 45 H -5.446573 0.014058 2.387967 0
M  V30 46 H -2.903920 0.576692 3.218801 0
M  V30 47 H -3.791131 1.503378 2.002577 0
M  V30 48 H 0.057347 -0.088360 -0.413217 0
M  V30 END ATOM
M  V30 BEGIN BOND
M  V30 1 1 1 2
M  V30 2 1 2 3
M  V30 3 2 3 4
M  V30 4 1 4 5
M  V30 5 2 5 6
M  V30 6 1 6 7
M  V30 7 1 6 8
M  V30 8 2 8 9
M  V30 9 1 9 10
M  V30 10 2 10 11
M  V30 11 1 11 12
M  V30 12 2 12 13
M  V30 13 1 13 14
M  V30 14 1 14 15
M  V30 15 1 15 16
M  V30 16 1 16 17
M  V30 17 2 17 18
M  V30 18 1 18 19
M  V30 19 1 19 20
M  V30 20 1 20 21
M  V30 21 1 21 22
M  V30 22 2 21 23
M  V30 23 2 21 24
M  V30 24 1 20 25
M  V30 25 1 25 26
M  V30 26 2 16 27
M  V30 27 1 27 28
M  V30 28 1 9 3
M  V30 29 1 28 10
M  V30 30 2 28 14
M  V30 31 1 26 17
M  V30 32 1 1 29
M  V30 33 1 1 30
M  V30 34 1 1 31
M  V30 35 1 4 32
M  V30 36 1 5 33
M  V30 37 1 8 34
M  V30 38 1 11 35
M  V30 39 1 12 36
M  V30 40 1 15 37
M  V30 41 1 18 38
M  V30 42 1 19 39
M  V30 43 1 19 40
M  V30 44 1 22 41
M  V30 45 1 22 42
M  V30 46 1 22 43
M  V30 47 1 25 44
M  V30 48 1 25 45
M  V30 49 1 26 46
M  V30 50 1 26 47
M  V30 51 1 27 48
M  V30 END BOND
M  V30 END CTAB
M  END
>  <Dataset>  (349) 
ChEMBL_Kinases

>  <Ligand_Instance>  (349) 
nan

>  <PDB_ID>  (349) 
nan

>  <Standardized_SMILES>  (349) 
COc1ccc(F)cc1-c1ccnc2[nH]c(C3=CCN(S(C)(=O)=O)CC3)cc12

>  <Name>  (349) 
nan

>  <Pocket>  (349) 
nan

>  <ATP_Site>  (349) 
nan

>  <Peripheral>  (349) 
nan

>  <Num_H_Atoms_ProtBoundConf>  (349) 
nan

>  <Num_Resolved_Atoms>  (349) 
nan

>  <Num_Not_Resolved_Atoms>  (349) 
nan

$$$$
CHEMBL3668391
     RDKit          3D

  0  0  0  0  0  0  0  0  0  0999 V3000
M  V30 BEGIN CTAB
M  V30 COUNTS 60 64 0 0 0
M  V30 BEGIN ATOM
M  V30 1 C 3.666627 3.390709 4.242576 0
M  V30 2 O 3.073659 3.089967 3.002853 0
M  V30 3 C 3.644440 2.311579 2.023549 0
M  V30 4 C 4.903628 1.798456 2.314051 0
M  V30 5 C 5.493093 1.015753 1.343063 0
M  V30 6 C 4.907145 0.725650 0.128886 0
M  V30 7 F 5.467847 -0.037319 -0.829768 0
M  V30 8 C 3.655063 1.236255 -0.158497 0
M  V30 9 C 3.038767 2.022866 0.791602 0
M  V30 10 C 1.710126 2.667986 0.720350 0
M  V30 11 C 1.628266 3.959691 0.288853 0
M  V30 12 C 0.366562 4.515881 0.276069 0
M  V30 13 N -0.686812 3.798807 0.670733 0
M  V30 14 C -0.593239 2.526410 1.093871 0
M  V30 15 N -1.550958 1.667485 1.521807 0
M  V30 16 C -0.940195 0.519873 1.825299 0
M  V30 17 C -1.624033 -0.683281 2.350158 0
M  V30 18 C -0.722014 -1.829128 2.628274 0
M  V30 19 C -0.632990 -2.522452 1.266879 0
M  V30 20 N -1.887605 -2.322815 0.633897 0
M  V30 21 C -2.783155 -3.413414 0.571704 0
M  V30 22 C -2.399251 -4.548100 -0.331761 0
M  V30 23 N -2.274811 -4.131581 -1.717818 0
M  V30 24 C -3.581612 -3.766074 -2.265432 0
M  V30 25 C -3.702382 -4.207681 -3.708504 0
M  V30 26 O -2.502289 -4.070811 -4.378317 0
M  V30 27 C -1.480382 -4.829119 -3.860923 0
M  V30 28 C -1.832012 -5.290935 -2.470647 0
M  V30 29 C -2.520854 -1.181052 1.226397 0
M  V30 30 C 0.416126 0.624408 1.598479 0
M  V30 31 C 0.647599 1.886489 1.137482 0
M  V30 32 H 3.674875 2.496841 4.891772 0
M  V30 33 H 4.724684 3.720662 4.133519 0
M  V30 34 H 3.041081 4.203284 4.695803 0
M  V30 35 H 5.453987 1.959460 3.228252 0
M  V30 36 H 6.478483 0.596862 1.537781 0
M  V30 37 H 3.068660 1.104718 -1.045532 0
M  V30 38 H 2.461124 4.539874 -0.026144 0
M  V30 39 H 0.161094 5.518770 -0.040525 0
M  V30 40 H -2.564432 1.927489 1.576615 0
M  V30 41 H -2.241017 -0.449251 3.233926 0
M  V30 42 H 0.304498 -1.507471 2.960546 0
M  V30 43 H -1.127863 -2.532612 3.352871 0
M  V30 44 H -0.323369 -3.552870 1.452052 0
M  V30 45 H 0.133856 -1.939945 0.688309 0
M  V30 46 H -2.899056 -3.863437 1.596608 0
M  V30 47 H -3.776562 -3.057618 0.237280 0
M  V30 48 H -3.182004 -5.329146 -0.285320 0
M  V30 49 H -1.443164 -4.993226 -0.018304 0
M  V30 50 H -4.420901 -4.197925 -1.685524 0
M  V30 51 H -3.628245 -2.653584 -2.262242 0
M  V30 52 H -4.165439 -5.203790 -3.811538 0
M  V30 53 H -4.421105 -3.503368 -4.215821 0
M  V30 54 H -1.243556 -5.693768 -4.516920 0
M  V30 55 H -0.601485 -4.148529 -3.766418 0
M  V30 56 H -2.540062 -6.131310 -2.444468 0
M  V30 57 H -0.877714 -5.681866 -2.018471 0
M  V30 58 H -2.713317 -0.373856 0.479226 0
M  V30 59 H -3.493403 -1.438606 1.674615 0
M  V30 60 H 1.212671 -0.085247 1.727758 0
M  V30 END ATOM
M  V30 BEGIN BOND
M  V30 1 1 1 2
M  V30 2 1 2 3
M  V30 3 2 3 4
M  V30 4 1 4 5
M  V30 5 2 5 6
M  V30 6 1 6 7
M  V30 7 1 6 8
M  V30 8 2 8 9
M  V30 9 1 9 10
M  V30 10 2 10 11
M  V30 11 1 11 12
M  V30 12 2 12 13
M  V30 13 1 13 14
M  V30 14 1 14 15
M  V30 15 1 15 16
M  V30 16 1 16 17
M  V30 17 1 17 18
M  V30 18 1 18 19
M  V30 19 1 19 20
M  V30 20 1 20 21
M  V30 21 1 21 22
M  V30 22 1 22 23
M  V30 23 1 23 24
M  V30 24 1 24 25
M  V30 25 1 25 26
M  V30 26 1 26 27
M  V30 27 1 27 28
M  V30 28 1 20 29
M  V30 29 2 16 30
M  V30 30 1 30 31
M  V30 31 1 9 3
M  V30 32 1 31 10
M  V30 33 2 31 14
M  V30 34 1 29 17
M  V30 35 1 28 23
M  V30 36 1 1 32
M  V30 37 1 1 33
M  V30 38 1 1 34
M  V30 39 1 4 35
M  V30 40 1 5 36
M  V30 41 1 8 37
M  V30 42 1 11 38
M  V30 43 1 12 39
M  V30 44 1 15 40
M  V30 45 1 17 41
M  V30 46 1 18 42
M  V30 47 1 18 43
M  V30 48 1 19 44
M  V30 49 1 19 45
M  V30 50 1 21 46
M  V30 51 1 21 47
M  V30 52 1 22 48
M  V30 53 1 22 49
M  V30 54 1 24 50
M  V30 55 1 24 51
M  V30 56 1 25 52
M  V30 57 1 25 53
M  V30 58 1 27 54
M  V30 59 1 27 55
M  V30 60 1 28 56
M  V30 61 1 28 57
M  V30 62 1 29 58
M  V30 63 1 29 59
M  V30 64 1 30 60
M  V30 END BOND
M  V30 END CTAB
M  END
>  <Dataset>  (350) 
ChEMBL_Kinases

>  <Ligand_Instance>  (350) 
nan

>  <PDB_ID>  (350) 
nan

>  <Standardized_SMILES>  (350) 
COc1ccc(F)cc1-c1ccnc2[nH]c(C3CCN(CCN4CCOCC4)C3)cc12

>  <Name>  (350) 
nan

>  <Pocket>  (350) 
nan

>  <ATP_Site>  (350) 
nan

>  <Peripheral>  (350) 
nan

>  <Num_H_Atoms_ProtBoundConf>  (350) 
nan

>  <Num_Resolved_Atoms>  (350) 
nan

>  <Num_Not_Resolved_Atoms>  (350) 
nan

$$$$
CHEMBL3668390
     RDKit          3D

  0  0  0  0  0  0  0  0  0  0999 V3000
M  V30 BEGIN CTAB
M  V30 COUNTS 58 62 0 0 0
M  V30 BEGIN ATOM
M  V30 1 C 3.817099 2.220118 4.670098 0
M  V30 2 O 3.537262 2.115697 3.306943 0
M  V30 3 C 4.225074 1.300749 2.427740 0
M  V30 4 C 5.261717 0.527785 2.905350 0
M  V30 5 C 5.954686 -0.288623 2.038630 0
M  V30 6 C 5.679405 -0.387838 0.707172 0
M  V30 7 F 6.364225 -1.197630 -0.161241 0
M  V30 8 C 4.632685 0.387938 0.206344 0
M  V30 9 C 3.943720 1.202616 1.080336 0
M  V30 10 C 2.823402 2.051104 0.621925 0
M  V30 11 C 3.041838 3.340148 0.185740 0
M  V30 12 C 1.941485 4.070320 -0.226207 0
M  V30 13 N 0.684376 3.564883 -0.212995 0
M  V30 14 C 0.431548 2.314172 0.204866 0
M  V30 15 N -0.679790 1.558267 0.328412 0
M  V30 16 C -0.394093 0.326357 0.812206 0
M  V30 17 C -1.250197 -0.821242 1.115437 0
M  V30 18 C -2.326783 -0.544479 2.110324 0
M  V30 19 C -3.596109 -0.951628 1.439303 0
M  V30 20 N -3.245261 -1.688495 0.242658 0
M  V30 21 C -4.020170 -2.791242 0.053355 0
M  V30 22 C -3.862892 -3.745460 -1.062269 0
M  V30 23 C -2.564632 -4.457062 -1.108110 0
M  V30 24 C -1.833043 -4.269992 -2.419594 0
M  V30 25 O -2.644536 -4.798239 -3.423541 0
M  V30 26 C -3.918892 -4.249757 -3.427244 0
M  V30 27 C -4.092412 -3.121568 -2.427902 0
M  V30 28 C -1.959305 -1.386948 -0.128709 0
M  V30 29 C 0.992020 0.359399 0.986936 0
M  V30 30 C 1.518513 1.579531 0.616607 0
M  V30 31 H 3.401988 1.310803 5.165975 0
M  V30 32 H 3.294019 3.118805 5.059614 0
M  V30 33 H 4.886604 2.294003 4.886399 0
M  V30 34 H 5.557371 0.538220 3.953706 0
M  V30 35 H 6.781018 -0.913400 2.384449 0
M  V30 36 H 4.376267 0.344553 -0.840671 0
M  V30 37 H 4.044017 3.743869 0.174796 0
M  V30 38 H 2.179315 5.088507 -0.561341 0
M  V30 39 H -1.660997 1.857351 0.088727 0
M  V30 40 H -0.640919 -1.674528 1.516920 0
M  V30 41 H -2.349767 0.517469 2.433155 0
M  V30 42 H -2.170980 -1.115606 3.069253 0
M  V30 43 H -4.179391 -1.580517 2.170452 0
M  V30 44 H -4.263338 -0.089322 1.209375 0
M  V30 45 H -5.129298 -2.441111 0.045476 0
M  V30 46 H -4.055097 -3.441699 1.019008 0
M  V30 47 H -4.696792 -4.515219 -0.983318 0
M  V30 48 H -1.876717 -4.299686 -0.273814 0
M  V30 49 H -2.745554 -5.595714 -1.081965 0
M  V30 50 H -1.538900 -3.249112 -2.650072 0
M  V30 51 H -0.925344 -4.901128 -2.383343 0
M  V30 52 H -4.171709 -3.950076 -4.455199 0
M  V30 53 H -4.633452 -5.078720 -3.176289 0
M  V30 54 H -3.403582 -2.318453 -2.683350 0
M  V30 55 H -5.143015 -2.781141 -2.537869 0
M  V30 56 H -1.962399 -0.540393 -0.904868 0
M  V30 57 H -1.301748 -2.131347 -0.584617 0
M  V30 58 H 1.612065 -0.453141 1.364106 0
M  V30 END ATOM
M  V30 BEGIN BOND
M  V30 1 1 1 2
M  V30 2 1 2 3
M  V30 3 2 3 4
M  V30 4 1 4 5
M  V30 5 2 5 6
M  V30 6 1 6 7
M  V30 7 1 6 8
M  V30 8 2 8 9
M  V30 9 1 9 10
M  V30 10 2 10 11
M  V30 11 1 11 12
M  V30 12 2 12 13
M  V30 13 1 13 14
M  V30 14 1 14 15
M  V30 15 1 15 16
M  V30 16 1 16 17
M  V30 17 1 17 18
M  V30 18 1 18 19
M  V30 19 1 19 20
M  V30 20 1 20 21
M  V30 21 1 21 22
M  V30 22 1 22 23
M  V30 23 1 23 24
M  V30 24 1 24 25
M  V30 25 1 25 26
M  V30 26 1 26 27
M  V30 27 1 20 28
M  V30 28 2 16 29
M  V30 29 1 29 30
M  V30 30 1 9 3
M  V30 31 1 30 10
M  V30 32 2 30 14
M  V30 33 1 28 17
M  V30 34 1 27 22
M  V30 35 1 1 31
M  V30 36 1 1 32
M  V30 37 1 1 33
M  V30 38 1 4 34
M  V30 39 1 5 35
M  V30 40 1 8 36
M  V30 41 1 11 37
M  V30 42 1 12 38
M  V30 43 1 15 39
M  V30 44 1 17 40
M  V30 45 1 18 41
M  V30 46 1 18 42
M  V30 47 1 19 43
M  V30 48 1 19 44
M  V30 49 1 21 45
M  V30 50 1 21 46
M  V30 51 1 22 47
M  V30 52 1 23 48
M  V30 53 1 23 49
M  V30 54 1 24 50
M  V30 55 1 24 51
M  V30 56 1 26 52
M  V30 57 1 26 53
M  V30 58 1 27 54
M  V30 59 1 27 55
M  V30 60 1 28 56
M  V30 61 1 28 57
M  V30 62 1 29 58
M  V30 END BOND
M  V30 END CTAB
M  END
>  <Dataset>  (351) 
ChEMBL_Kinases

>  <Ligand_Instance>  (351) 
nan

>  <PDB_ID>  (351) 
nan

>  <Standardized_SMILES>  (351) 
COc1ccc(F)cc1-c1ccnc2[nH]c(C3CCN(CC4CCOCC4)C3)cc12

>  <Name>  (351) 
nan

>  <Pocket>  (351) 
nan

>  <ATP_Site>  (351) 
nan

>  <Peripheral>  (351) 
nan

>  <Num_H_Atoms_ProtBoundConf>  (351) 
nan

>  <Num_Resolved_Atoms>  (351) 
nan

>  <Num_Not_Resolved_Atoms>  (351) 
nan

$$$$
CHEMBL3668389
     RDKit          3D

  0  0  0  0  0  0  0  0  0  0999 V3000
M  V30 BEGIN CTAB
M  V30 COUNTS 68 72 0 0 0
M  V30 BEGIN ATOM
M  V30 1 C 2.687549 2.684237 6.358254 0
M  V30 2 O 2.853832 2.694229 4.957406 0
M  V30 3 C 3.754787 1.863074 4.304240 0
M  V30 4 C 4.586430 0.943239 4.897264 0
M  V30 5 C 5.443911 0.169090 4.143016 0
M  V30 6 C 5.470053 0.318875 2.762090 0
M  V30 7 F 6.336239 -0.469743 2.052217 0
M  V30 8 C 4.633269 1.244814 2.162530 0
M  V30 9 C 3.774524 2.018044 2.933604 0
M  V30 10 C 2.978829 2.931630 2.108301 0
M  V30 11 C 3.369337 4.229092 1.764412 0
M  V30 12 C 2.539920 5.000301 0.981289 0
M  V30 13 N 1.354689 4.543339 0.531277 0
M  V30 14 C 0.909981 3.291802 0.825957 0
M  V30 15 N -0.199196 2.570828 0.530905 0
M  V30 16 C -0.106212 1.343678 1.108364 0
M  V30 17 C -1.088197 0.227187 1.052706 0
M  V30 18 C -2.427014 0.591683 1.595181 0
M  V30 19 C -3.396826 0.227480 0.498682 0
M  V30 20 N -2.716855 -0.672957 -0.410781 0
M  V30 21 C -3.343746 -0.638670 -1.668612 0
M  V30 22 C -4.780712 -1.099379 -1.509847 0
M  V30 23 C -4.886736 -2.345116 -2.388635 0
M  V30 24 N -3.515590 -2.854170 -2.464456 0
M  V30 25 C -2.977336 -4.159226 -2.351224 0
M  V30 26 O -3.725113 -5.136404 -2.148253 0
M  V30 27 O -1.621015 -4.285217 -2.474143 0
M  V30 28 C -0.916299 -5.495812 -2.389830 0
M  V30 29 C -1.359016 -6.466770 -3.443752 0
M  V30 30 C -0.941885 -6.090985 -1.001109 0
M  V30 31 C 0.542377 -5.134942 -2.674942 0
M  V30 32 C -2.863455 -1.596583 -2.693423 0
M  V30 33 C -1.356233 -0.217142 -0.363223 0
M  V30 34 C 1.112584 1.342018 1.773309 0
M  V30 35 C 1.745003 2.533534 1.606571 0
M  V30 36 H 1.951587 1.932210 6.693797 0
M  V30 37 H 3.645488 2.474111 6.886441 0
M  V30 38 H 2.296819 3.678356 6.669861 0
M  V30 39 H 4.527400 0.864979 5.980625 0
M  V30 40 H 6.092729 -0.551741 4.630238 0
M  V30 41 H 4.738462 1.275154 1.089453 0
M  V30 42 H 4.324492 4.567518 2.139851 0
M  V30 43 H 2.836201 5.995797 0.715601 0
M  V30 44 H -0.993057 2.906566 -0.046016 0
M  V30 45 H -0.672622 -0.635467 1.651988 0
M  V30 46 H -2.469563 1.660658 1.870873 0
M  V30 47 H -2.646698 0.007721 2.528134 0
M  V30 48 H -3.674908 1.181241 -0.012894 0
M  V30 49 H -4.246099 -0.268875 0.967137 0
M  V30 50 H -3.406559 0.393648 -2.120731 0
M  V30 51 H -5.021862 -1.432917 -0.494283 0
M  V30 52 H -5.521532 -0.374188 -1.894451 0
M  V30 53 H -5.550356 -3.108619 -1.977952 0
M  V30 54 H -5.252305 -2.086584 -3.405580 0
M  V30 55 H -0.865879 -6.156751 -4.399445 0
M  V30 56 H -2.442581 -6.421744 -3.616111 0
M  V30 57 H -0.975041 -7.483707 -3.188787 0
M  V30 58 H -0.939346 -5.246430 -0.296501 0
M  V30 59 H 0.012398 -6.640340 -0.856754 0
M  V30 60 H -1.744352 -6.828075 -0.862920 0
M  V30 61 H 1.017195 -4.748024 -1.736534 0
M  V30 62 H 1.094536 -5.972313 -3.102148 0
M  V30 63 H 0.588216 -4.269914 -3.385452 0
M  V30 64 H -1.777386 -1.679382 -2.831720 0
M  V30 65 H -3.252028 -1.228037 -3.678867 0
M  V30 66 H -1.105612 0.527154 -1.123872 0
M  V30 67 H -0.712926 -1.103245 -0.551803 0
M  V30 68 H 1.456085 0.485320 2.328244 0
M  V30 END ATOM
M  V30 BEGIN BOND
M  V30 1 1 1 2
M  V30 2 1 2 3
M  V30 3 2 3 4
M  V30 4 1 4 5
M  V30 5 2 5 6
M  V30 6 1 6 7
M  V30 7 1 6 8
M  V30 8 2 8 9
M  V30 9 1 9 10
M  V30 10 2 10 11
M  V30 11 1 11 12
M  V30 12 2 12 13
M  V30 13 1 13 14
M  V30 14 1 14 15
M  V30 15 1 15 16
M  V30 16 1 16 17
M  V30 17 1 17 18
M  V30 18 1 18 19
M  V30 19 1 19 20
M  V30 20 1 20 21
M  V30 21 1 21 22
M  V30 22 1 22 23
M  V30 23 1 23 24
M  V30 24 1 24 25
M  V30 25 2 25 26
M  V30 26 1 25 27
M  V30 27 1 27 28
M  V30 28 1 28 29
M  V30 29 1 28 30
M  V30 30 1 28 31
M  V30 31 1 24 32
M  V30 32 1 20 33
M  V30 33 2 16 34
M  V30 34 1 34 35
M  V30 35 1 9 3
M  V30 36 1 35 10
M  V30 37 2 35 14
M  V30 38 1 33 17
M  V30 39 1 32 21
M  V30 40 1 1 36
M  V30 41 1 1 37
M  V30 42 1 1 38
M  V30 43 1 4 39
M  V30 44 1 5 40
M  V30 45 1 8 41
M  V30 46 1 11 42
M  V30 47 1 12 43
M  V30 48 1 15 44
M  V30 49 1 17 45
M  V30 50 1 18 46
M  V30 51 1 18 47
M  V30 52 1 19 48
M  V30 53 1 19 49
M  V30 54 1 21 50
M  V30 55 1 22 51
M  V30 56 1 22 52
M  V30 57 1 23 53
M  V30 58 1 23 54
M  V30 59 1 29 55
M  V30 60 1 29 56
M  V30 61 1 29 57
M  V30 62 1 30 58
M  V30 63 1 30 59
M  V30 64 1 30 60
M  V30 65 1 31 61
M  V30 66 1 31 62
M  V30 67 1 31 63
M  V30 68 1 32 64
M  V30 69 1 32 65
M  V30 70 1 33 66
M  V30 71 1 33 67
M  V30 72 1 34 68
M  V30 END BOND
M  V30 END CTAB
M  END
>  <Dataset>  (352) 
ChEMBL_Kinases

>  <Ligand_Instance>  (352) 
nan

>  <PDB_ID>  (352) 
nan

>  <Standardized_SMILES>  (352) 
COc1ccc(F)cc1-c1ccnc2[nH]c(C3CCN(C4CCN(C(=O)OC(C)(C)C)C4)C3)cc12

>  <Name>  (352) 
nan

>  <Pocket>  (352) 
nan

>  <ATP_Site>  (352) 
nan

>  <Peripheral>  (352) 
nan

>  <Num_H_Atoms_ProtBoundConf>  (352) 
nan

>  <Num_Resolved_Atoms>  (352) 
nan

>  <Num_Not_Resolved_Atoms>  (352) 
nan

$$$$
CHEMBL3668388
     RDKit          3D

  0  0  0  0  0  0  0  0  0  0999 V3000
M  V30 BEGIN CTAB
M  V30 COUNTS 64 67 0 0 0
M  V30 BEGIN ATOM
M  V30 1 C 3.999457 -1.066896 4.652065 0
M  V30 2 O 3.676491 -0.124056 3.647738 0
M  V30 3 C 3.732873 1.239031 3.795855 0
M  V30 4 C 4.148632 1.678567 5.058445 0
M  V30 5 C 4.223128 3.046824 5.262457 0
M  V30 6 C 3.917462 3.988013 4.311621 0
M  V30 7 F 3.992454 5.322034 4.516723 0
M  V30 8 C 3.513925 3.506995 3.086543 0
M  V30 9 C 3.415962 2.158900 2.811008 0
M  V30 10 C 3.000925 1.559319 1.548806 0
M  V30 11 C 4.046518 1.310593 0.655522 0
M  V30 12 C 3.704975 0.736692 -0.563287 0
M  V30 13 N 2.443983 0.417272 -0.913973 0
M  V30 14 C 1.448796 0.660098 -0.049762 0
M  V30 15 N 0.115921 0.480032 -0.060048 0
M  V30 16 C -0.473733 0.892288 1.068522 0
M  V30 17 C -1.879012 0.885962 1.478271 0
M  V30 18 C -2.322803 -0.581552 1.593811 0
M  V30 19 C -3.818574 -0.391759 1.387950 0
M  V30 20 N -3.845076 0.417827 0.204188 0
M  V30 21 C -3.581693 -0.318622 -1.000765 0
M  V30 22 C -4.710495 -1.264204 -1.309091 0
M  V30 23 N -4.479074 -2.033804 -2.511543 0
M  V30 24 C -3.334815 -2.873352 -2.527276 0
M  V30 25 O -2.482239 -3.044492 -1.630404 0
M  V30 26 O -2.900697 -3.692100 -3.532178 0
M  V30 27 C -1.704964 -4.461169 -3.330190 0
M  V30 28 C -0.548062 -3.513870 -3.069822 0
M  V30 29 C -1.377187 -5.257435 -4.554420 0
M  V30 30 C -1.899998 -5.454036 -2.196742 0
M  V30 31 C -2.831731 1.412782 0.421660 0
M  V30 32 C 0.559600 1.378344 1.875064 0
M  V30 33 C 1.726267 1.223865 1.164950 0
M  V30 34 H 3.422474 -0.846759 5.571818 0
M  V30 35 H 5.071172 -0.963028 4.937968 0
M  V30 36 H 3.809187 -2.078273 4.276236 0
M  V30 37 H 4.410111 1.021826 5.869182 0
M  V30 38 H 4.545897 3.390238 6.243198 0
M  V30 39 H 3.250080 4.175425 2.267954 0
M  V30 40 H 5.112585 1.526770 0.827826 0
M  V30 41 H 4.483867 0.529451 -1.280361 0
M  V30 42 H -0.371898 0.060317 -0.878680 0
M  V30 43 H -2.037555 1.354658 2.472348 0
M  V30 44 H -1.897581 -1.211976 0.809509 0
M  V30 45 H -2.133618 -0.996525 2.594580 0
M  V30 46 H -4.332822 -1.346913 1.333897 0
M  V30 47 H -4.190363 0.254974 2.216922 0
M  V30 48 H -3.602479 0.447565 -1.829515 0
M  V30 49 H -2.604387 -0.790085 -1.072167 0
M  V30 50 H -4.913995 -2.003162 -0.510147 0
M  V30 51 H -5.667183 -0.711646 -1.450047 0
M  V30 52 H -5.022462 -2.078709 -3.391110 0
M  V30 53 H -0.876628 -2.451599 -3.254473 0
M  V30 54 H 0.309973 -3.711944 -3.743333 0
M  V30 55 H -0.240571 -3.566655 -2.024741 0
M  V30 56 H -1.785371 -4.836362 -5.486828 0
M  V30 57 H -0.261992 -5.307145 -4.684697 0
M  V30 58 H -1.721457 -6.307806 -4.454371 0
M  V30 59 H -1.464503 -5.108363 -1.244097 0
M  V30 60 H -2.997155 -5.632306 -2.088154 0
M  V30 61 H -1.389338 -6.431574 -2.428289 0
M  V30 62 H -3.350902 2.313378 0.856414 0
M  V30 63 H -2.263668 1.685084 -0.491207 0
M  V30 64 H 0.443834 1.797667 2.876383 0
M  V30 END ATOM
M  V30 BEGIN BOND
M  V30 1 1 1 2
M  V30 2 1 2 3
M  V30 3 2 3 4
M  V30 4 1 4 5
M  V30 5 2 5 6
M  V30 6 1 6 7
M  V30 7 1 6 8
M  V30 8 2 8 9
M  V30 9 1 9 10
M  V30 10 2 10 11
M  V30 11 1 11 12
M  V30 12 2 12 13
M  V30 13 1 13 14
M  V30 14 1 14 15
M  V30 15 1 15 16
M  V30 16 1 16 17
M  V30 17 1 17 18
M  V30 18 1 18 19
M  V30 19 1 19 20
M  V30 20 1 20 21
M  V30 21 1 21 22
M  V30 22 1 22 23
M  V30 23 1 23 24
M  V30 24 2 24 25
M  V30 25 1 24 26
M  V30 26 1 26 27
M  V30 27 1 27 28
M  V30 28 1 27 29
M  V30 29 1 27 30
M  V30 30 1 20 31
M  V30 31 2 16 32
M  V30 32 1 32 33
M  V30 33 1 9 3
M  V30 34 1 33 10
M  V30 35 2 33 14
M  V30 36 1 31 17
M  V30 37 1 1 34
M  V30 38 1 1 35
M  V30 39 1 1 36
M  V30 40 1 4 37
M  V30 41 1 5 38
M  V30 42 1 8 39
M  V30 43 1 11 40
M  V30 44 1 12 41
M  V30 45 1 15 42
M  V30 46 1 17 43
M  V30 47 1 18 44
M  V30 48 1 18 45
M  V30 49 1 19 46
M  V30 50 1 19 47
M  V30 51 1 21 48
M  V30 52 1 21 49
M  V30 53 1 22 50
M  V30 54 1 22 51
M  V30 55 1 23 52
M  V30 56 1 28 53
M  V30 57 1 28 54
M  V30 58 1 28 55
M  V30 59 1 29 56
M  V30 60 1 29 57
M  V30 61 1 29 58
M  V30 62 1 30 59
M  V30 63 1 30 60
M  V30 64 1 30 61
M  V30 65 1 31 62
M  V30 66 1 31 63
M  V30 67 1 32 64
M  V30 END BOND
M  V30 END CTAB
M  END
>  <Dataset>  (353) 
ChEMBL_Kinases

>  <Ligand_Instance>  (353) 
nan

>  <PDB_ID>  (353) 
nan

>  <Standardized_SMILES>  (353) 
COc1ccc(F)cc1-c1ccnc2[nH]c(C3CCN(CCNC(=O)OC(C)(C)C)C3)cc12

>  <Name>  (353) 
nan

>  <Pocket>  (353) 
nan

>  <ATP_Site>  (353) 
nan

>  <Peripheral>  (353) 
nan

>  <Num_H_Atoms_ProtBoundConf>  (353) 
nan

>  <Num_Resolved_Atoms>  (353) 
nan

>  <Num_Not_Resolved_Atoms>  (353) 
nan

$$$$
CHEMBL3668387
     RDKit          3D

  0  0  0  0  0  0  0  0  0  0999 V3000
M  V30 BEGIN CTAB
M  V30 COUNTS 58 62 0 0 0
M  V30 BEGIN ATOM
M  V30 1 C 3.772312 2.039353 4.812818 0
M  V30 2 O 3.551873 2.085745 3.430864 0
M  V30 3 C 4.213254 1.321167 2.496913 0
M  V30 4 C 5.173533 0.440696 3.006264 0
M  V30 5 C 5.848994 -0.335984 2.086381 0
M  V30 6 C 5.647612 -0.306064 0.722761 0
M  V30 7 F 6.336600 -1.088560 -0.136571 0
M  V30 8 C 4.690917 0.574594 0.243509 0
M  V30 9 C 3.989695 1.372291 1.128585 0
M  V30 10 C 2.949772 2.345929 0.740431 0
M  V30 11 C 3.172686 3.673731 0.431468 0
M  V30 12 C 2.083782 4.445881 0.088134 0
M  V30 13 N 0.835196 3.947050 0.047754 0
M  V30 14 C 0.585774 2.656966 0.343530 0
M  V30 15 N -0.557234 1.946010 0.371481 0
M  V30 16 C -0.290325 0.661914 0.735089 0
M  V30 17 C -1.153851 -0.532245 0.923942 0
M  V30 18 C -2.211776 -0.341584 1.985737 0
M  V30 19 C -3.406665 -1.102788 1.473130 0
M  V30 20 N -3.178802 -1.444564 0.098590 0
M  V30 21 C -3.190987 -2.883007 -0.009245 0
M  V30 22 C -2.966790 -3.415515 -1.385943 0
M  V30 23 C -3.015213 -4.943051 -1.293005 0
M  V30 24 C -3.071046 -5.420023 -2.750194 0
M  V30 25 C -4.495509 -5.136971 -3.194730 0
M  V30 26 O -5.000412 -4.013759 -2.553134 0
M  V30 27 C -4.058002 -3.020452 -2.357697 0
M  V30 28 C -1.933635 -0.861027 -0.327858 0
M  V30 29 C 1.094219 0.628502 0.929570 0
M  V30 30 C 1.654937 1.867855 0.688540 0
M  V30 31 H 3.416955 1.083371 5.236709 0
M  V30 32 H 3.209925 2.872161 5.281608 0
M  V30 33 H 4.873112 2.123297 4.988676 0
M  V30 34 H 5.405099 0.345229 4.078196 0
M  V30 35 H 6.609466 -1.037146 2.457953 0
M  V30 36 H 4.453922 0.679517 -0.794996 0
M  V30 37 H 4.202352 4.007965 0.484452 0
M  V30 38 H 2.322788 5.488193 -0.145798 0
M  V30 39 H -1.542687 2.252947 0.160781 0
M  V30 40 H -0.574000 -1.431651 1.231445 0
M  V30 41 H -2.409932 0.753262 2.110227 0
M  V30 42 H -1.903643 -0.713174 2.984720 0
M  V30 43 H -3.565239 -2.006793 2.127711 0
M  V30 44 H -4.292779 -0.416055 1.516252 0
M  V30 45 H -4.191877 -3.231269 0.313465 0
M  V30 46 H -2.450285 -3.351630 0.662124 0
M  V30 47 H -2.013636 -3.174509 -1.855504 0
M  V30 48 H -2.053469 -5.281043 -0.868055 0
M  V30 49 H -3.912036 -5.310238 -0.776038 0
M  V30 50 H -2.330665 -4.770221 -3.301793 0
M  V30 51 H -2.820544 -6.481800 -2.857424 0
M  V30 52 H -4.597955 -5.128382 -4.280802 0
M  V30 53 H -5.089984 -6.002840 -2.787574 0
M  V30 54 H -3.656381 -2.644402 -3.327790 0
M  V30 55 H -4.597048 -2.161059 -1.911548 0
M  V30 56 H -2.175554 0.080054 -0.890037 0
M  V30 57 H -1.305245 -1.484252 -0.959425 0
M  V30 58 H 1.663040 -0.259479 1.232614 0
M  V30 END ATOM
M  V30 BEGIN BOND
M  V30 1 1 1 2
M  V30 2 1 2 3
M  V30 3 2 3 4
M  V30 4 1 4 5
M  V30 5 2 5 6
M  V30 6 1 6 7
M  V30 7 1 6 8
M  V30 8 2 8 9
M  V30 9 1 9 10
M  V30 10 2 10 11
M  V30 11 1 11 12
M  V30 12 2 12 13
M  V30 13 1 13 14
M  V30 14 1 14 15
M  V30 15 1 15 16
M  V30 16 1 16 17
M  V30 17 1 17 18
M  V30 18 1 18 19
M  V30 19 1 19 20
M  V30 20 1 20 21
M  V30 21 1 21 22
M  V30 22 1 22 23
M  V30 23 1 23 24
M  V30 24 1 24 25
M  V30 25 1 25 26
M  V30 26 1 26 27
M  V30 27 1 20 28
M  V30 28 2 16 29
M  V30 29 1 29 30
M  V30 30 1 9 3
M  V30 31 1 30 10
M  V30 32 2 30 14
M  V30 33 1 28 17
M  V30 34 1 27 22
M  V30 35 1 1 31
M  V30 36 1 1 32
M  V30 37 1 1 33
M  V30 38 1 4 34
M  V30 39 1 5 35
M  V30 40 1 8 36
M  V30 41 1 11 37
M  V30 42 1 12 38
M  V30 43 1 15 39
M  V30 44 1 17 40
M  V30 45 1 18 41
M  V30 46 1 18 42
M  V30 47 1 19 43
M  V30 48 1 19 44
M  V30 49 1 21 45
M  V30 50 1 21 46
M  V30 51 1 22 47
M  V30 52 1 23 48
M  V30 53 1 23 49
M  V30 54 1 24 50
M  V30 55 1 24 51
M  V30 56 1 25 52
M  V30 57 1 25 53
M  V30 58 1 27 54
M  V30 59 1 27 55
M  V30 60 1 28 56
M  V30 61 1 28 57
M  V30 62 1 29 58
M  V30 END BOND
M  V30 END CTAB
M  END
>  <Dataset>  (354) 
ChEMBL_Kinases

>  <Ligand_Instance>  (354) 
nan

>  <PDB_ID>  (354) 
nan

>  <Standardized_SMILES>  (354) 
COc1ccc(F)cc1-c1ccnc2[nH]c(C3CCN(CC4CCCOC4)C3)cc12

>  <Name>  (354) 
nan

>  <Pocket>  (354) 
nan

>  <ATP_Site>  (354) 
nan

>  <Peripheral>  (354) 
nan

>  <Num_H_Atoms_ProtBoundConf>  (354) 
nan

>  <Num_Resolved_Atoms>  (354) 
nan

>  <Num_Not_Resolved_Atoms>  (354) 
nan

$$$$
CHEMBL3668386
     RDKit          3D

  0  0  0  0  0  0  0  0  0  0999 V3000
M  V30 BEGIN CTAB
M  V30 COUNTS 53 57 0 0 0
M  V30 BEGIN ATOM
M  V30 1 C 0.179446 2.803158 -2.836204 0
M  V30 2 O 0.828681 2.544100 -1.590697 0
M  V30 3 C 1.888024 1.655238 -1.516356 0
M  V30 4 C 2.445692 0.932281 -2.548262 0
M  V30 5 C 3.508202 0.075284 -2.328913 0
M  V30 6 C 4.037194 -0.074747 -1.057956 0
M  V30 7 F 5.072982 -0.924114 -0.902666 0
M  V30 8 C 3.474092 0.655740 -0.013942 0
M  V30 9 C 2.400171 1.520023 -0.243714 0
M  V30 10 C 1.991392 2.165533 0.998307 0
M  V30 11 C 2.580050 3.353141 1.335659 0
M  V30 12 C 2.146858 3.908227 2.522457 0
M  V30 13 N 1.213279 3.332823 3.301030 0
M  V30 14 C 0.624219 2.173807 2.993002 0
M  V30 15 N -0.319054 1.351642 3.537938 0
M  V30 16 C -0.528410 0.260399 2.746293 0
M  V30 17 C -1.535019 -0.767689 3.171571 0
M  V30 18 C -0.906181 -2.112233 3.421784 0
M  V30 19 C -1.135876 -2.854527 2.148898 0
M  V30 20 N -2.486190 -2.439176 1.791587 0
M  V30 21 C -2.630670 -2.638166 0.362410 0
M  V30 22 C -2.448381 -4.030545 -0.048352 0
M  V30 23 C -3.648917 -4.747836 -0.026980 0
M  V30 24 C -3.709321 -6.092434 -0.382834 0
M  V30 25 N -2.551132 -6.678825 -0.752181 0
M  V30 26 C -1.375860 -6.016565 -0.784017 0
M  V30 27 C -1.295409 -4.679137 -0.433760 0
M  V30 28 C -2.570716 -1.046971 2.129684 0
M  V30 29 C 0.320394 0.428151 1.681287 0
M  V30 30 C 1.034995 1.592449 1.812345 0
M  V30 31 H -0.842000 3.193473 -2.692907 0
M  V30 32 H 0.827758 3.516716 -3.388005 0
M  V30 33 H 0.110807 1.892327 -3.464828 0
M  V30 34 H 1.988887 1.093711 -3.512039 0
M  V30 35 H 3.921022 -0.480777 -3.180268 0
M  V30 36 H 3.968652 0.457928 0.932691 0
M  V30 37 H 3.327881 3.873080 0.771243 0
M  V30 38 H 2.511781 4.844132 2.932234 0
M  V30 39 H -0.726293 1.678351 4.457799 0
M  V30 40 H -2.020025 -0.389945 4.128303 0
M  V30 41 H -1.458925 -2.601440 4.256839 0
M  V30 42 H 0.165166 -2.030807 3.699245 0
M  V30 43 H -1.088467 -3.958216 2.268143 0
M  V30 44 H -0.460973 -2.486834 1.375620 0
M  V30 45 H -3.583192 -2.195075 0.000803 0
M  V30 46 H -1.833736 -1.979816 -0.093662 0
M  V30 47 H -4.630403 -4.343733 0.260715 0
M  V30 48 H -4.626275 -6.659695 -0.371807 0
M  V30 49 H -0.456525 -6.492013 -1.079949 0
M  V30 50 H -0.412600 -4.062026 -0.425795 0
M  V30 51 H -2.483272 -0.387749 1.239324 0
M  V30 52 H -3.568203 -0.839526 2.567824 0
M  V30 53 H 0.350464 -0.305078 0.898665 0
M  V30 END ATOM
M  V30 BEGIN BOND
M  V30 1 1 1 2
M  V30 2 1 2 3
M  V30 3 2 3 4
M  V30 4 1 4 5
M  V30 5 2 5 6
M  V30 6 1 6 7
M  V30 7 1 6 8
M  V30 8 2 8 9
M  V30 9 1 9 10
M  V30 10 2 10 11
M  V30 11 1 11 12
M  V30 12 2 12 13
M  V30 13 1 13 14
M  V30 14 1 14 15
M  V30 15 1 15 16
M  V30 16 1 16 17
M  V30 17 1 17 18
M  V30 18 1 18 19
M  V30 19 1 19 20
M  V30 20 1 20 21
M  V30 21 1 21 22
M  V30 22 2 22 23
M  V30 23 1 23 24
M  V30 24 2 24 25
M  V30 25 1 25 26
M  V30 26 2 26 27
M  V30 27 1 20 28
M  V30 28 2 16 29
M  V30 29 1 29 30
M  V30 30 1 9 3
M  V30 31 1 30 10
M  V30 32 2 30 14
M  V30 33 1 28 17
M  V30 34 1 27 22
M  V30 35 1 1 31
M  V30 36 1 1 32
M  V30 37 1 1 33
M  V30 38 1 4 34
M  V30 39 1 5 35
M  V30 40 1 8 36
M  V30 41 1 11 37
M  V30 42 1 12 38
M  V30 43 1 15 39
M  V30 44 1 17 40
M  V30 45 1 18 41
M  V30 46 1 18 42
M  V30 47 1 19 43
M  V30 48 1 19 44
M  V30 49 1 21 45
M  V30 50 1 21 46
M  V30 51 1 23 47
M  V30 52 1 24 48
M  V30 53 1 26 49
M  V30 54 1 27 50
M  V30 55 1 28 51
M  V30 56 1 28 52
M  V30 57 1 29 53
M  V30 END BOND
M  V30 END CTAB
M  END
>  <Dataset>  (355) 
ChEMBL_Kinases

>  <Ligand_Instance>  (355) 
nan

>  <PDB_ID>  (355) 
nan

>  <Standardized_SMILES>  (355) 
COc1ccc(F)cc1-c1ccnc2[nH]c(C3CCN(Cc4ccncc4)C3)cc12

>  <Name>  (355) 
nan

>  <Pocket>  (355) 
nan

>  <ATP_Site>  (355) 
nan

>  <Peripheral>  (355) 
nan

>  <Num_H_Atoms_ProtBoundConf>  (355) 
nan

>  <Num_Resolved_Atoms>  (355) 
nan

>  <Num_Not_Resolved_Atoms>  (355) 
nan

$$$$
CHEMBL3668385
     RDKit          3D

  0  0  0  0  0  0  0  0  0  0999 V3000
M  V30 BEGIN CTAB
M  V30 COUNTS 53 57 0 0 0
M  V30 BEGIN ATOM
M  V30 1 C 0.082272 2.004928 -2.845604 0
M  V30 2 O 0.577956 1.975619 -1.508625 0
M  V30 3 C 1.626030 1.105076 -1.262919 0
M  V30 4 C 2.193249 0.289038 -2.230952 0
M  V30 5 C 3.234006 -0.578833 -1.997834 0
M  V30 6 C 3.697000 -0.584601 -0.680047 0
M  V30 7 F 4.730835 -1.432354 -0.402642 0
M  V30 8 C 3.163794 0.206861 0.307695 0
M  V30 9 C 2.114976 1.062747 0.013048 0
M  V30 10 C 1.638834 1.848517 1.147255 0
M  V30 11 C 2.190478 3.093168 1.424782 0
M  V30 12 C 1.728413 3.833605 2.509157 0
M  V30 13 N 0.746406 3.372608 3.311044 0
M  V30 14 C 0.191390 2.155833 3.058030 0
M  V30 15 N -0.790882 1.455568 3.683507 0
M  V30 16 C -0.951589 0.298453 3.015847 0
M  V30 17 C -1.944649 -0.719678 3.420694 0
M  V30 18 C -1.299874 -2.082249 3.564030 0
M  V30 19 C -1.719051 -2.860834 2.319413 0
M  V30 20 N -1.997594 -1.764480 1.412841 0
M  V30 21 C -2.618905 -2.198571 0.190358 0
M  V30 22 C -1.746750 -3.150625 -0.530081 0
M  V30 23 C -1.917937 -4.487950 -0.221927 0
M  V30 24 C -1.172580 -5.481493 -0.817966 0
M  V30 25 C -0.225872 -5.065540 -1.758573 0
M  V30 26 N -0.045277 -3.756371 -2.072543 0
M  V30 27 C -0.791774 -2.789099 -1.472552 0
M  V30 28 C -2.860093 -0.953519 2.234468 0
M  V30 29 C -0.093445 0.200648 1.945369 0
M  V30 30 C 0.625630 1.390006 1.987271 0
M  V30 31 H -0.811710 2.649752 -2.844768 0
M  V30 32 H 0.826446 2.387419 -3.560057 0
M  V30 33 H -0.254837 0.987038 -3.140914 0
M  V30 34 H 1.795881 0.330313 -3.245969 0
M  V30 35 H 3.651499 -1.200348 -2.776959 0
M  V30 36 H 3.599870 0.127899 1.314138 0
M  V30 37 H 2.964878 3.520004 0.839170 0
M  V30 38 H 2.098282 4.808135 2.798640 0
M  V30 39 H -1.287106 1.817121 4.527791 0
M  V30 40 H -2.508657 -0.426105 4.325700 0
M  V30 41 H -1.687284 -2.559100 4.486128 0
M  V30 42 H -0.204340 -2.021187 3.640312 0
M  V30 43 H -2.590647 -3.461135 2.584845 0
M  V30 44 H -0.890793 -3.512973 1.942073 0
M  V30 45 H -2.667119 -1.285638 -0.464433 0
M  V30 46 H -3.660913 -2.529757 0.299139 0
M  V30 47 H -2.656702 -4.815009 0.512353 0
M  V30 48 H -1.315203 -6.520179 -0.569485 0
M  V30 49 H 0.375259 -5.851271 -2.240981 0
M  V30 50 H -0.679143 -1.736738 -1.694164 0
M  V30 51 H -3.179183 -0.001418 1.764462 0
M  V30 52 H -3.742160 -1.534606 2.614006 0
M  V30 53 H 0.044755 -0.572674 1.214033 0
M  V30 END ATOM
M  V30 BEGIN BOND
M  V30 1 1 1 2
M  V30 2 1 2 3
M  V30 3 2 3 4
M  V30 4 1 4 5
M  V30 5 2 5 6
M  V30 6 1 6 7
M  V30 7 1 6 8
M  V30 8 2 8 9
M  V30 9 1 9 10
M  V30 10 2 10 11
M  V30 11 1 11 12
M  V30 12 2 12 13
M  V30 13 1 13 14
M  V30 14 1 14 15
M  V30 15 1 15 16
M  V30 16 1 16 17
M  V30 17 1 17 18
M  V30 18 1 18 19
M  V30 19 1 19 20
M  V30 20 1 20 21
M  V30 21 1 21 22
M  V30 22 2 22 23
M  V30 23 1 23 24
M  V30 24 2 24 25
M  V30 25 1 25 26
M  V30 26 2 26 27
M  V30 27 1 20 28
M  V30 28 2 16 29
M  V30 29 1 29 30
M  V30 30 1 9 3
M  V30 31 1 30 10
M  V30 32 2 30 14
M  V30 33 1 28 17
M  V30 34 1 27 22
M  V30 35 1 1 31
M  V30 36 1 1 32
M  V30 37 1 1 33
M  V30 38 1 4 34
M  V30 39 1 5 35
M  V30 40 1 8 36
M  V30 41 1 11 37
M  V30 42 1 12 38
M  V30 43 1 15 39
M  V30 44 1 17 40
M  V30 45 1 18 41
M  V30 46 1 18 42
M  V30 47 1 19 43
M  V30 48 1 19 44
M  V30 49 1 21 45
M  V30 50 1 21 46
M  V30 51 1 23 47
M  V30 52 1 24 48
M  V30 53 1 25 49
M  V30 54 1 27 50
M  V30 55 1 28 51
M  V30 56 1 28 52
M  V30 57 1 29 53
M  V30 END BOND
M  V30 END CTAB
M  END
>  <Dataset>  (356) 
ChEMBL_Kinases

>  <Ligand_Instance>  (356) 
nan

>  <PDB_ID>  (356) 
nan

>  <Standardized_SMILES>  (356) 
COc1ccc(F)cc1-c1ccnc2[nH]c(C3CCN(Cc4cccnc4)C3)cc12

>  <Name>  (356) 
nan

>  <Pocket>  (356) 
nan

>  <ATP_Site>  (356) 
nan

>  <Peripheral>  (356) 
nan

>  <Num_H_Atoms_ProtBoundConf>  (356) 
nan

>  <Num_Resolved_Atoms>  (356) 
nan

>  <Num_Not_Resolved_Atoms>  (356) 
nan

$$$$
CHEMBL3668384
     RDKit          3D

  0  0  0  0  0  0  0  0  0  0999 V3000
M  V30 BEGIN CTAB
M  V30 COUNTS 53 57 0 0 0
M  V30 BEGIN ATOM
M  V30 1 C -0.323409 2.532759 -2.957345 0
M  V30 2 O 0.459795 2.343276 -1.811567 0
M  V30 3 C 1.544473 1.477526 -1.741746 0
M  V30 4 C 2.010021 0.678903 -2.785197 0
M  V30 5 C 3.100142 -0.147286 -2.604569 0
M  V30 6 C 3.766845 -0.215521 -1.395596 0
M  V30 7 F 4.832742 -1.039396 -1.260089 0
M  V30 8 C 3.303976 0.576275 -0.363783 0
M  V30 9 C 2.206263 1.414196 -0.530508 0
M  V30 10 C 1.869815 2.170222 0.672247 0
M  V30 11 C 2.418372 3.424156 0.932908 0
M  V30 12 C 2.112311 4.147393 2.059018 0
M  V30 13 N 1.246513 3.631363 2.955062 0
M  V30 14 C 0.684001 2.419916 2.754244 0
M  V30 15 N -0.194428 1.669920 3.461516 0
M  V30 16 C -0.431858 0.507171 2.795017 0
M  V30 17 C -1.372954 -0.495589 3.372083 0
M  V30 18 C -0.717563 -1.801251 3.721188 0
M  V30 19 C -0.886136 -2.628231 2.497783 0
M  V30 20 N -2.141607 -2.230751 1.942681 0
M  V30 21 C -2.261385 -2.413476 0.529228 0
M  V30 22 C -2.088722 -3.842177 0.194041 0
M  V30 23 C -3.229764 -4.616618 0.181041 0
M  V30 24 C -3.162252 -5.970544 -0.123760 0
M  V30 25 C -1.951488 -6.561483 -0.418404 0
M  V30 26 C -0.843186 -5.750608 -0.392945 0
M  V30 27 N -0.934158 -4.430681 -0.092317 0
M  V30 28 C -2.452703 -0.922376 2.421857 0
M  V30 29 C 0.300275 0.489616 1.631213 0
M  V30 30 C 0.986217 1.707198 1.643561 0
M  V30 31 H -1.256604 3.068213 -2.636956 0
M  V30 32 H 0.171522 3.071212 -3.772029 0
M  V30 33 H -0.684917 1.543489 -3.351201 0
M  V30 34 H 1.454770 0.767998 -3.710765 0
M  V30 35 H 3.442663 -0.756013 -3.425171 0
M  V30 36 H 3.867175 0.486668 0.577862 0
M  V30 37 H 3.110722 3.830020 0.210695 0
M  V30 38 H 2.530083 5.123942 2.276961 0
M  V30 39 H -0.567793 2.042619 4.379636 0
M  V30 40 H -1.802791 -0.088847 4.332934 0
M  V30 41 H -1.300909 -2.277448 4.535615 0
M  V30 42 H 0.328498 -1.687174 4.055728 0
M  V30 43 H -0.087507 -2.530085 1.735947 0
M  V30 44 H -0.882985 -3.712824 2.785106 0
M  V30 45 H -1.490228 -1.820039 -0.003023 0
M  V30 46 H -3.293079 -2.067081 0.249434 0
M  V30 47 H -4.214720 -4.255606 0.394485 0
M  V30 48 H -4.050576 -6.593305 -0.138176 0
M  V30 49 H -1.925043 -7.602657 -0.649317 0
M  V30 50 H 0.112486 -6.161410 -0.613318 0
M  V30 51 H -2.633059 -0.189387 1.611691 0
M  V30 52 H -3.387426 -1.011148 3.020239 0
M  V30 53 H 0.295636 -0.319023 0.914364 0
M  V30 END ATOM
M  V30 BEGIN BOND
M  V30 1 1 1 2
M  V30 2 1 2 3
M  V30 3 2 3 4
M  V30 4 1 4 5
M  V30 5 2 5 6
M  V30 6 1 6 7
M  V30 7 1 6 8
M  V30 8 2 8 9
M  V30 9 1 9 10
M  V30 10 2 10 11
M  V30 11 1 11 12
M  V30 12 2 12 13
M  V30 13 1 13 14
M  V30 14 1 14 15
M  V30 15 1 15 16
M  V30 16 1 16 17
M  V30 17 1 17 18
M  V30 18 1 18 19
M  V30 19 1 19 20
M  V30 20 1 20 21
M  V30 21 1 21 22
M  V30 22 2 22 23
M  V30 23 1 23 24
M  V30 24 2 24 25
M  V30 25 1 25 26
M  V30 26 2 26 27
M  V30 27 1 20 28
M  V30 28 2 16 29
M  V30 29 1 29 30
M  V30 30 1 9 3
M  V30 31 1 30 10
M  V30 32 2 30 14
M  V30 33 1 28 17
M  V30 34 1 27 22
M  V30 35 1 1 31
M  V30 36 1 1 32
M  V30 37 1 1 33
M  V30 38 1 4 34
M  V30 39 1 5 35
M  V30 40 1 8 36
M  V30 41 1 11 37
M  V30 42 1 12 38
M  V30 43 1 15 39
M  V30 44 1 17 40
M  V30 45 1 18 41
M  V30 46 1 18 42
M  V30 47 1 19 43
M  V30 48 1 19 44
M  V30 49 1 21 45
M  V30 50 1 21 46
M  V30 51 1 23 47
M  V30 52 1 24 48
M  V30 53 1 25 49
M  V30 54 1 26 50
M  V30 55 1 28 51
M  V30 56 1 28 52
M  V30 57 1 29 53
M  V30 END BOND
M  V30 END CTAB
M  END
>  <Dataset>  (357) 
ChEMBL_Kinases

>  <Ligand_Instance>  (357) 
nan

>  <PDB_ID>  (357) 
nan

>  <Standardized_SMILES>  (357) 
COc1ccc(F)cc1-c1ccnc2[nH]c(C3CCN(Cc4ccccn4)C3)cc12

>  <Name>  (357) 
nan

>  <Pocket>  (357) 
nan

>  <ATP_Site>  (357) 
nan

>  <Peripheral>  (357) 
nan

>  <Num_H_Atoms_ProtBoundConf>  (357) 
nan

>  <Num_Resolved_Atoms>  (357) 
nan

>  <Num_Not_Resolved_Atoms>  (357) 
nan

$$$$
CHEMBL3668383
     RDKit          3D

  0  0  0  0  0  0  0  0  0  0999 V3000
M  V30 BEGIN CTAB
M  V30 COUNTS 55 59 0 0 0
M  V30 BEGIN ATOM
M  V30 1 C 5.953889 -1.382004 0.460245 0
M  V30 2 O 4.917929 -0.414583 0.310750 0
M  V30 3 C 4.771559 0.492169 1.354308 0
M  V30 4 C 5.572770 0.483668 2.492812 0
M  V30 5 C 5.397431 1.401856 3.510798 0
M  V30 6 C 4.397503 2.345395 3.379906 0
M  V30 7 F 4.257445 3.230024 4.402419 0
M  V30 8 C 3.557285 2.420532 2.277609 0
M  V30 9 C 3.781377 1.477362 1.295025 0
M  V30 10 C 2.942631 1.484312 0.101743 0
M  V30 11 C 3.321445 2.233608 -0.995460 0
M  V30 12 C 2.489243 2.205947 -2.102165 0
M  V30 13 N 1.351607 1.483022 -2.126414 0
M  V30 14 C 0.989729 0.749933 -1.040696 0
M  V30 15 N -0.058639 -0.028835 -0.818922 0
M  V30 16 C -0.052816 -0.579869 0.385494 0
M  V30 17 C -0.956161 -1.512896 1.127884 0
M  V30 18 C -0.921943 -2.872105 0.487598 0
M  V30 19 C -2.107573 -2.862014 -0.432677 0
M  V30 20 N -3.096657 -2.133953 0.335797 0
M  V30 21 C -4.184012 -1.642389 -0.483933 0
M  V30 22 C -5.209129 -0.890915 0.327556 0
M  V30 23 C -5.842305 -1.805333 1.320090 0
M  V30 24 O -5.908115 -3.129497 0.962972 0
M  V30 25 C -6.041364 -3.343671 -0.392625 0
M  V30 26 C -4.902612 -2.765446 -1.197120 0
M  V30 27 C -2.389524 -1.099418 1.015901 0
M  V30 28 C 1.128044 -0.071792 0.937695 0
M  V30 29 C 1.795875 0.757577 0.073013 0
M  V30 30 H 6.954208 -0.927535 0.537501 0
M  V30 31 H 5.785234 -1.975778 1.385138 0
M  V30 32 H 5.978071 -2.098455 -0.372382 0
M  V30 33 H 6.335371 -0.294078 2.512291 0
M  V30 34 H 6.040143 1.367145 4.385677 0
M  V30 35 H 2.779458 3.159268 2.182836 0
M  V30 36 H 4.224994 2.834248 -1.032663 0
M  V30 37 H 2.670972 2.743654 -3.017867 0
M  V30 38 H -0.810310 -0.189604 -1.513569 0
M  V30 39 H -0.627189 -1.591187 2.201542 0
M  V30 40 H 0.016287 -3.043720 -0.084346 0
M  V30 41 H -1.081719 -3.667820 1.253821 0
M  V30 42 H -2.461641 -3.893326 -0.673113 0
M  V30 43 H -1.803500 -2.323251 -1.363787 0
M  V30 44 H -3.780951 -0.907864 -1.229028 0
M  V30 45 H -5.915778 -0.394057 -0.366623 0
M  V30 46 H -4.719923 -0.059085 0.888657 0
M  V30 47 H -6.838376 -1.384472 1.602443 0
M  V30 48 H -5.241000 -1.765654 2.263938 0
M  V30 49 H -7.051470 -3.062945 -0.797053 0
M  V30 50 H -6.005000 -4.456386 -0.541069 0
M  V30 51 H -5.384193 -2.289419 -2.100970 0
M  V30 52 H -4.238134 -3.542548 -1.601404 0
M  V30 53 H -2.523824 -0.081341 0.604979 0
M  V30 54 H -2.807115 -1.026948 2.062579 0
M  V30 55 H 1.495557 -0.300458 1.950113 0
M  V30 END ATOM
M  V30 BEGIN BOND
M  V30 1 1 1 2
M  V30 2 1 2 3
M  V30 3 2 3 4
M  V30 4 1 4 5
M  V30 5 2 5 6
M  V30 6 1 6 7
M  V30 7 1 6 8
M  V30 8 2 8 9
M  V30 9 1 9 10
M  V30 10 2 10 11
M  V30 11 1 11 12
M  V30 12 2 12 13
M  V30 13 1 13 14
M  V30 14 1 14 15
M  V30 15 1 15 16
M  V30 16 1 16 17
M  V30 17 1 17 18
M  V30 18 1 18 19
M  V30 19 1 19 20
M  V30 20 1 20 21
M  V30 21 1 21 22
M  V30 22 1 22 23
M  V30 23 1 23 24
M  V30 24 1 24 25
M  V30 25 1 25 26
M  V30 26 1 20 27
M  V30 27 2 16 28
M  V30 28 1 28 29
M  V30 29 1 9 3
M  V30 30 1 29 10
M  V30 31 2 29 14
M  V30 32 1 27 17
M  V30 33 1 26 21
M  V30 34 1 1 30
M  V30 35 1 1 31
M  V30 36 1 1 32
M  V30 37 1 4 33
M  V30 38 1 5 34
M  V30 39 1 8 35
M  V30 40 1 11 36
M  V30 41 1 12 37
M  V30 42 1 15 38
M  V30 43 1 17 39
M  V30 44 1 18 40
M  V30 45 1 18 41
M  V30 46 1 19 42
M  V30 47 1 19 43
M  V30 48 1 21 44
M  V30 49 1 22 45
M  V30 50 1 22 46
M  V30 51 1 23 47
M  V30 52 1 23 48
M  V30 53 1 25 49
M  V30 54 1 25 50
M  V30 55 1 26 51
M  V30 56 1 26 52
M  V30 57 1 27 53
M  V30 58 1 27 54
M  V30 59 1 28 55
M  V30 END BOND
M  V30 END CTAB
M  END
>  <Dataset>  (358) 
ChEMBL_Kinases

>  <Ligand_Instance>  (358) 
nan

>  <PDB_ID>  (358) 
nan

>  <Standardized_SMILES>  (358) 
COc1ccc(F)cc1-c1ccnc2[nH]c(C3CCN(C4CCOCC4)C3)cc12

>  <Name>  (358) 
nan

>  <Pocket>  (358) 
nan

>  <ATP_Site>  (358) 
nan

>  <Peripheral>  (358) 
nan

>  <Num_H_Atoms_ProtBoundConf>  (358) 
nan

>  <Num_Resolved_Atoms>  (358) 
nan

>  <Num_Not_Resolved_Atoms>  (358) 
nan

$$$$
CHEMBL3668382
     RDKit          3D

  0  0  0  0  0  0  0  0  0  0999 V3000
M  V30 BEGIN CTAB
M  V30 COUNTS 48 51 0 0 0
M  V30 BEGIN ATOM
M  V30 1 C 2.677719 -4.087632 -2.430280 0
M  V30 2 O 2.227905 -2.783478 -2.112643 0
M  V30 3 C 3.157187 -1.918765 -1.546165 0
M  V30 4 C 4.467824 -2.280741 -1.290102 0
M  V30 5 C 5.341605 -1.356501 -0.719215 0
M  V30 6 C 4.888002 -0.073043 -0.410115 0
M  V30 7 F 5.763410 0.806297 0.145086 0
M  V30 8 C 3.576978 0.269281 -0.673034 0
M  V30 9 C 2.686767 -0.635114 -1.241985 0
M  V30 10 C 1.293222 -0.272844 -1.523582 0
M  V30 11 C 1.099902 0.274630 -2.796983 0
M  V30 12 C -0.196515 0.632116 -3.105900 0
M  V30 13 N -1.285091 0.507762 -2.310859 0
M  V30 14 C -1.045402 -0.027238 -1.088833 0
M  V30 15 N -1.855539 -0.310391 -0.027294 0
M  V30 16 C -1.125213 -0.849543 0.983232 0
M  V30 17 C -1.707307 -1.275394 2.287246 0
M  V30 18 C -0.698423 -1.097661 3.389619 0
M  V30 19 C -1.319988 -0.105378 4.312293 0
M  V30 20 N -2.349024 0.585728 3.536404 0
M  V30 21 C -3.290694 1.241404 4.389301 0
M  V30 22 C -4.318539 1.987635 3.600164 0
M  V30 23 O -5.090157 1.232801 2.752724 0
M  V30 24 C -2.870753 -0.447761 2.707054 0
M  V30 25 C 0.194941 -0.925892 0.585926 0
M  V30 26 C 0.211625 -0.416959 -0.682107 0
M  V30 27 H 3.450355 -4.067575 -3.244948 0
M  V30 28 H 3.172990 -4.522904 -1.539601 0
M  V30 29 H 1.830734 -4.768371 -2.655827 0
M  V30 30 H 4.801669 -3.278842 -1.535419 0
M  V30 31 H 6.367276 -1.629909 -0.515287 0
M  V30 32 H 3.238391 1.264477 -0.429606 0
M  V30 33 H 1.886194 0.425468 -3.523761 0
M  V30 34 H -0.380568 1.062810 -4.093691 0
M  V30 35 H -2.887731 -0.096512 -0.099895 0
M  V30 36 H -1.985592 -2.363379 2.163342 0
M  V30 37 H -0.537587 -2.105921 3.869927 0
M  V30 38 H 0.258537 -0.722860 2.942797 0
M  V30 39 H -1.833910 -0.608288 5.172417 0
M  V30 40 H -0.567256 0.632750 4.617758 0
M  V30 41 H -3.793343 0.549132 5.099268 0
M  V30 42 H -2.749310 1.975113 5.015982 0
M  V30 43 H -5.033475 2.529834 4.282337 0
M  V30 44 H -3.766279 2.759957 2.992818 0
M  V30 45 H -5.212050 1.636480 1.862191 0
M  V30 46 H -3.501913 -1.099821 3.380348 0
M  V30 47 H -3.487342 -0.103456 1.846414 0
M  V30 48 H 1.039795 -1.308715 1.157211 0
M  V30 END ATOM
M  V30 BEGIN BOND
M  V30 1 1 1 2
M  V30 2 1 2 3
M  V30 3 2 3 4
M  V30 4 1 4 5
M  V30 5 2 5 6
M  V30 6 1 6 7
M  V30 7 1 6 8
M  V30 8 2 8 9
M  V30 9 1 9 10
M  V30 10 2 10 11
M  V30 11 1 11 12
M  V30 12 2 12 13
M  V30 13 1 13 14
M  V30 14 1 14 15
M  V30 15 1 15 16
M  V30 16 1 16 17
M  V30 17 1 17 18
M  V30 18 1 18 19
M  V30 19 1 19 20
M  V30 20 1 20 21
M  V30 21 1 21 22
M  V30 22 1 22 23
M  V30 23 1 20 24
M  V30 24 2 16 25
M  V30 25 1 25 26
M  V30 26 1 9 3
M  V30 27 1 26 10
M  V30 28 2 26 14
M  V30 29 1 24 17
M  V30 30 1 1 27
M  V30 31 1 1 28
M  V30 32 1 1 29
M  V30 33 1 4 30
M  V30 34 1 5 31
M  V30 35 1 8 32
M  V30 36 1 11 33
M  V30 37 1 12 34
M  V30 38 1 15 35
M  V30 39 1 17 36
M  V30 40 1 18 37
M  V30 41 1 18 38
M  V30 42 1 19 39
M  V30 43 1 19 40
M  V30 44 1 21 41
M  V30 45 1 21 42
M  V30 46 1 22 43
M  V30 47 1 22 44
M  V30 48 1 23 45
M  V30 49 1 24 46
M  V30 50 1 24 47
M  V30 51 1 25 48
M  V30 END BOND
M  V30 END CTAB
M  END
>  <Dataset>  (359) 
ChEMBL_Kinases

>  <Ligand_Instance>  (359) 
nan

>  <PDB_ID>  (359) 
nan

>  <Standardized_SMILES>  (359) 
COc1ccc(F)cc1-c1ccnc2[nH]c(C3CCN(CCO)C3)cc12

>  <Name>  (359) 
nan

>  <Pocket>  (359) 
nan

>  <ATP_Site>  (359) 
nan

>  <Peripheral>  (359) 
nan

>  <Num_H_Atoms_ProtBoundConf>  (359) 
nan

>  <Num_Resolved_Atoms>  (359) 
nan

>  <Num_Not_Resolved_Atoms>  (359) 
nan

$$$$
CHEMBL3668381
     RDKit          3D

  0  0  0  0  0  0  0  0  0  0999 V3000
M  V30 BEGIN CTAB
M  V30 COUNTS 46 49 0 0 0
M  V30 BEGIN ATOM
M  V30 1 C 5.125928 -1.116998 1.550707 0
M  V30 2 O 4.084049 -0.431469 0.929563 0
M  V30 3 C 4.044568 -0.384961 -0.473503 0
M  V30 4 C 5.017474 -1.005217 -1.230430 0
M  V30 5 C 4.880282 -0.895505 -2.618814 0
M  V30 6 C 3.815701 -0.196597 -3.148604 0
M  V30 7 F 3.794490 -0.162527 -4.513035 0
M  V30 8 C 2.862587 0.410283 -2.356099 0
M  V30 9 C 2.965007 0.323050 -0.961440 0
M  V30 10 C 1.971666 0.955596 -0.136839 0
M  V30 11 C 2.212407 2.282349 0.243166 0
M  V30 12 C 1.328401 3.014001 1.043108 0
M  V30 13 N 0.177769 2.422042 1.479306 0
M  V30 14 C -0.071292 1.154320 1.127256 0
M  V30 15 N -1.102750 0.300916 1.391830 0
M  V30 16 C -0.889474 -0.907982 0.794379 0
M  V30 17 C -1.851862 -2.007083 0.922603 0
M  V30 18 C -1.994893 -2.446579 2.382750 0
M  V30 19 C -3.485265 -2.540003 2.621264 0
M  V30 20 N -3.953256 -1.399652 1.824884 0
M  V30 21 C -4.850856 -0.339516 2.187510 0
M  V30 22 C -5.391083 -0.399729 3.576777 0
M  V30 23 O -5.228967 0.634096 1.456398 0
M  V30 24 C -3.272251 -1.608792 0.551649 0
M  V30 25 C 0.309606 -0.859708 0.117046 0
M  V30 26 C 0.787447 0.415653 0.339240 0
M  V30 27 H 5.074948 -2.218742 1.430945 0
M  V30 28 H 6.104378 -0.727808 1.145629 0
M  V30 29 H 5.111264 -0.874153 2.631279 0
M  V30 30 H 5.831630 -1.540325 -0.784771 0
M  V30 31 H 5.655906 -1.390524 -3.186326 0
M  V30 32 H 2.064826 0.935668 -2.864112 0
M  V30 33 H 3.114357 2.791170 -0.081212 0
M  V30 34 H 1.585973 4.040655 1.295762 0
M  V30 35 H -1.907283 0.617810 1.983123 0
M  V30 36 H -1.503709 -2.896363 0.371969 0
M  V30 37 H -1.461548 -3.383733 2.580867 0
M  V30 38 H -1.599427 -1.622364 3.039001 0
M  V30 39 H -3.741522 -2.406886 3.689118 0
M  V30 40 H -3.901937 -3.457030 2.177866 0
M  V30 41 H -5.917380 0.532682 3.867298 0
M  V30 42 H -6.033766 -1.302313 3.682075 0
M  V30 43 H -4.565821 -0.548571 4.313299 0
M  V30 44 H -3.307359 -0.696881 -0.072812 0
M  V30 45 H -3.753899 -2.467945 0.014793 0
M  V30 46 H 0.753234 -1.640805 -0.446558 0
M  V30 END ATOM
M  V30 BEGIN BOND
M  V30 1 1 1 2
M  V30 2 1 2 3
M  V30 3 2 3 4
M  V30 4 1 4 5
M  V30 5 2 5 6
M  V30 6 1 6 7
M  V30 7 1 6 8
M  V30 8 2 8 9
M  V30 9 1 9 10
M  V30 10 2 10 11
M  V30 11 1 11 12
M  V30 12 2 12 13
M  V30 13 1 13 14
M  V30 14 1 14 15
M  V30 15 1 15 16
M  V30 16 1 16 17
M  V30 17 1 17 18
M  V30 18 1 18 19
M  V30 19 1 19 20
M  V30 20 1 20 21
M  V30 21 1 21 22
M  V30 22 2 21 23
M  V30 23 1 20 24
M  V30 24 2 16 25
M  V30 25 1 25 26
M  V30 26 1 9 3
M  V30 27 1 26 10
M  V30 28 2 26 14
M  V30 29 1 24 17
M  V30 30 1 1 27
M  V30 31 1 1 28
M  V30 32 1 1 29
M  V30 33 1 4 30
M  V30 34 1 5 31
M  V30 35 1 8 32
M  V30 36 1 11 33
M  V30 37 1 12 34
M  V30 38 1 15 35
M  V30 39 1 17 36
M  V30 40 1 18 37
M  V30 41 1 18 38
M  V30 42 1 19 39
M  V30 43 1 19 40
M  V30 44 1 22 41
M  V30 45 1 22 42
M  V30 46 1 22 43
M  V30 47 1 24 44
M  V30 48 1 24 45
M  V30 49 1 25 46
M  V30 END BOND
M  V30 END CTAB
M  END
>  <Dataset>  (360) 
ChEMBL_Kinases

>  <Ligand_Instance>  (360) 
nan

>  <PDB_ID>  (360) 
nan

>  <Standardized_SMILES>  (360) 
COc1ccc(F)cc1-c1ccnc2[nH]c(C3CCN(C(C)=O)C3)cc12

>  <Name>  (360) 
nan

>  <Pocket>  (360) 
nan

>  <ATP_Site>  (360) 
nan

>  <Peripheral>  (360) 
nan

>  <Num_H_Atoms_ProtBoundConf>  (360) 
nan

>  <Num_Resolved_Atoms>  (360) 
nan

>  <Num_Not_Resolved_Atoms>  (360) 
nan

$$$$
CHEMBL3668380
     RDKit          3D

  0  0  0  0  0  0  0  0  0  0999 V3000
M  V30 BEGIN CTAB
M  V30 COUNTS 58 62 0 0 0
M  V30 BEGIN ATOM
M  V30 1 C -0.851176 -2.131579 4.345684 0
M  V30 2 C 0.045722 -2.795185 5.171875 0
M  V30 3 C 1.404758 -2.704250 4.931724 0
M  V30 4 C 1.921126 -1.962023 3.878035 0
M  V30 5 S 3.688181 -1.987467 3.729153 0
M  V30 6 C 4.249698 -0.936290 2.359608 0
M  V30 7 C 4.056124 0.517432 2.634796 0
M  V30 8 N 4.519221 1.274069 1.460092 0
M  V30 9 C 3.674655 0.790652 0.390396 0
M  V30 10 C 4.088298 -0.072424 -0.576617 0
M  V30 11 C 3.177354 -0.481903 -1.509524 0
M  V30 12 C 1.911056 0.015130 -1.392062 0
M  V30 13 C 1.435811 0.874365 -0.453964 0
M  V30 14 C 0.146573 1.487998 -0.248187 0
M  V30 15 C 0.116600 2.691324 0.472053 0
M  V30 16 C -1.038217 3.375053 0.774464 0
M  V30 17 N -2.197686 2.849615 0.350143 0
M  V30 18 C -2.284467 1.712442 -0.339397 0
M  V30 19 N -3.295514 0.983293 -0.838531 0
M  V30 20 C -2.795518 -0.117415 -1.427904 0
M  V30 21 C -3.683623 -1.099372 -2.057393 0
M  V30 22 C -3.970217 -2.179671 -0.998908 0
M  V30 23 C -2.704492 -2.921817 -0.740435 0
M  V30 24 N -2.080743 -3.272056 -1.988072 0
M  V30 25 C -2.974699 -3.175397 -3.110553 0
M  V30 26 C -3.219284 -1.677355 -3.339864 0
M  V30 27 C -1.448072 -0.059262 -1.287222 0
M  V30 28 C -1.107856 1.066187 -0.617339 0
M  V30 29 N 2.416185 1.225249 0.428657 0
M  V30 30 C 0.987242 -1.331402 3.100034 0
M  V30 31 C -0.363347 -1.382630 3.284934 0
M  V30 32 H -1.918047 -2.185165 4.507614 0
M  V30 33 H -0.408274 -3.351185 5.968664 0
M  V30 34 H 1.966976 -3.274522 5.660526 0
M  V30 35 H 5.307594 -1.141956 2.154674 0
M  V30 36 H 3.606202 -1.216182 1.481649 0
M  V30 37 H 3.024579 0.821485 2.850545 0
M  V30 38 H 4.724034 0.799299 3.507504 0
M  V30 39 H 5.287554 2.001628 1.402047 0
M  V30 40 H 5.125463 -0.407742 -0.575526 0
M  V30 41 H 3.443103 -1.157786 -2.292830 0
M  V30 42 H 1.217433 -0.293510 -2.150114 0
M  V30 43 H 1.041549 3.131908 0.821691 0
M  V30 44 H -0.980682 4.296106 1.333977 0
M  V30 45 H -4.295324 1.325203 -0.723583 0
M  V30 46 H -4.708816 -0.638830 -2.208986 0
M  V30 47 H -4.253395 -1.659332 -0.057940 0
M  V30 48 H -4.804803 -2.836293 -1.313652 0
M  V30 49 H -2.023135 -2.266817 -0.163472 0
M  V30 50 H -2.864911 -3.809854 -0.091055 0
M  V30 51 H -1.513430 -4.141993 -1.948924 0
M  V30 52 H -2.458027 -3.604725 -3.995590 0
M  V30 53 H -3.927301 -3.714469 -2.990484 0
M  V30 54 H -2.247659 -1.286865 -3.709614 0
M  V30 55 H -3.943808 -1.560482 -4.182643 0
M  V30 56 H -0.846683 -0.831178 -1.670628 0
M  V30 57 H 1.383619 -0.766025 2.283363 0
M  V30 58 H -1.012895 -0.843881 2.604376 0
M  V30 END ATOM
M  V30 BEGIN BOND
M  V30 1 2 1 2
M  V30 2 1 2 3
M  V30 3 2 3 4
M  V30 4 1 4 5
M  V30 5 1 5 6
M  V30 6 1 6 7
M  V30 7 1 7 8
M  V30 8 1 8 9
M  V30 9 2 9 10
M  V30 10 1 10 11
M  V30 11 2 11 12
M  V30 12 1 12 13
M  V30 13 1 13 14
M  V30 14 2 14 15
M  V30 15 1 15 16
M  V30 16 2 16 17
M  V30 17 1 17 18
M  V30 18 1 18 19
M  V30 19 1 19 20
M  V30 20 1 20 21
M  V30 21 1 21 22
M  V30 22 1 22 23
M  V30 23 1 23 24
M  V30 24 1 24 25
M  V30 25 1 25 26
M  V30 26 2 20 27
M  V30 27 1 27 28
M  V30 28 2 13 29
M  V30 29 1 4 30
M  V30 30 2 30 31
M  V30 31 1 31 1
M  V30 32 1 29 9
M  V30 33 1 28 14
M  V30 34 2 28 18
M  V30 35 1 26 21
M  V30 36 1 1 32
M  V30 37 1 2 33
M  V30 38 1 3 34
M  V30 39 1 6 35
M  V30 40 1 6 36
M  V30 41 1 7 37
M  V30 42 1 7 38
M  V30 43 1 8 39
M  V30 44 1 10 40
M  V30 45 1 11 41
M  V30 46 1 12 42
M  V30 47 1 15 43
M  V30 48 1 16 44
M  V30 49 1 19 45
M  V30 50 1 21 46
M  V30 51 1 22 47
M  V30 52 1 22 48
M  V30 53 1 23 49
M  V30 54 1 23 50
M  V30 55 1 24 51
M  V30 56 1 25 52
M  V30 57 1 25 53
M  V30 58 1 26 54
M  V30 59 1 26 55
M  V30 60 1 27 56
M  V30 61 1 30 57
M  V30 62 1 31 58
M  V30 END BOND
M  V30 END CTAB
M  END
>  <Dataset>  (361) 
ChEMBL_Kinases

>  <Ligand_Instance>  (361) 
nan

>  <PDB_ID>  (361) 
nan

>  <Standardized_SMILES>  (361) 
c1ccc(SCCNc2cccc(-c3ccnc4[nH]c(C5CCNCC5)cc34)n2)cc1

>  <Name>  (361) 
nan

>  <Pocket>  (361) 
nan

>  <ATP_Site>  (361) 
nan

>  <Peripheral>  (361) 
nan

>  <Num_H_Atoms_ProtBoundConf>  (361) 
nan

>  <Num_Resolved_Atoms>  (361) 
nan

>  <Num_Not_Resolved_Atoms>  (361) 
nan

$$$$
CHEMBL3668362
     RDKit          3D

  0  0  0  0  0  0  0  0  0  0999 V3000
M  V30 BEGIN CTAB
M  V30 COUNTS 58 62 0 0 0
M  V30 BEGIN ATOM
M  V30 1 C -0.010894 2.168066 4.163981 0
M  V30 2 C 1.063176 1.493943 3.640990 0
M  V30 3 C 0.781800 0.634827 2.578213 0
M  V30 4 N 1.899186 -0.065014 2.047609 0
M  V30 5 C 2.624858 0.729449 1.080220 0
M  V30 6 C 3.795193 -0.087502 0.601893 0
M  V30 7 C 4.700491 -0.452589 1.769828 0
M  V30 8 C 6.005331 -0.937870 1.172534 0
M  V30 9 O 5.781698 -1.407358 -0.126574 0
M  V30 10 C 4.664505 -2.233854 -0.185814 0
M  V30 11 C 3.420898 -1.344327 -0.124555 0
M  V30 12 N -0.463950 0.519275 2.144965 0
M  V30 13 C -1.559907 1.113899 2.571047 0
M  V30 14 C -2.915142 0.980894 2.080896 0
M  V30 15 C -3.942840 1.679330 2.686668 0
M  V30 16 C -5.235242 1.561902 2.225138 0
M  V30 17 N -5.544008 0.767807 1.175109 0
M  V30 18 C -4.546942 0.067451 0.560221 0
M  V30 19 N -4.598660 -0.770274 -0.485451 0
M  V30 20 C -3.357801 -1.192426 -0.703883 0
M  V30 21 C -3.056415 -2.132560 -1.799875 0
M  V30 22 C -2.401484 -3.396837 -1.362257 0
M  V30 23 C -0.949256 -3.488965 -1.763018 0
M  V30 24 N -0.741029 -3.326221 -3.185776 0
M  V30 25 C -1.809057 -2.581709 -3.822003 0
M  V30 26 C -2.192656 -1.464834 -2.854365 0
M  V30 27 C -2.456419 -0.651769 0.182727 0
M  V30 28 C -3.233082 0.173902 1.012496 0
M  V30 29 C -1.267615 1.975836 3.639386 0
M  V30 30 H 0.196744 2.839023 4.987227 0
M  V30 31 H 2.055010 1.609816 4.013706 0
M  V30 32 H 2.143094 -1.047503 2.344977 0
M  V30 33 H 1.993996 1.058084 0.233732 0
M  V30 34 H 3.073466 1.647389 1.559593 0
M  V30 35 H 4.453101 0.533466 -0.071761 0
M  V30 36 H 4.859226 0.406379 2.441872 0
M  V30 37 H 4.171028 -1.273002 2.310616 0
M  V30 38 H 6.643525 -0.015347 1.072956 0
M  V30 39 H 6.501406 -1.710669 1.797420 0
M  V30 40 H 4.681548 -2.871983 0.726610 0
M  V30 41 H 4.680587 -2.845500 -1.088108 0
M  V30 42 H 2.660415 -1.907881 0.463588 0
M  V30 43 H 3.062087 -1.149971 -1.152687 0
M  V30 44 H -3.869324 2.345788 3.525759 0
M  V30 45 H -6.087337 2.077581 2.646540 0
M  V30 46 H -5.499463 -0.999381 -0.989413 0
M  V30 47 H -4.009308 -2.410841 -2.340363 0
M  V30 48 H -2.890615 -4.302658 -1.822641 0
M  V30 49 H -2.476493 -3.538543 -0.283935 0
M  V30 50 H -0.581145 -4.488404 -1.468066 0
M  V30 51 H -0.321722 -2.744321 -1.223241 0
M  V30 52 H -0.505804 -4.208042 -3.682239 0
M  V30 53 H -1.476754 -2.159381 -4.774669 0
M  V30 54 H -2.705418 -3.239699 -3.914001 0
M  V30 55 H -2.781819 -0.678922 -3.381480 0
M  V30 56 H -1.278461 -1.067339 -2.378514 0
M  V30 57 H -1.387907 -0.799103 0.263716 0
M  V30 58 H -2.013793 2.570641 4.149721 0
M  V30 END ATOM
M  V30 BEGIN BOND
M  V30 1 2 1 2
M  V30 2 1 2 3
M  V30 3 1 3 4
M  V30 4 1 4 5
M  V30 5 1 5 6
M  V30 6 1 6 7
M  V30 7 1 7 8
M  V30 8 1 8 9
M  V30 9 1 9 10
M  V30 10 1 10 11
M  V30 11 2 3 12
M  V30 12 1 12 13
M  V30 13 1 13 14
M  V30 14 2 14 15
M  V30 15 1 15 16
M  V30 16 2 16 17
M  V30 17 1 17 18
M  V30 18 1 18 19
M  V30 19 1 19 20
M  V30 20 1 20 21
M  V30 21 1 21 22
M  V30 22 1 22 23
M  V30 23 1 23 24
M  V30 24 1 24 25
M  V30 25 1 25 26
M  V30 26 2 20 27
M  V30 27 1 27 28
M  V30 28 2 13 29
M  V30 29 1 29 1
M  V30 30 1 11 6
M  V30 31 1 28 14
M  V30 32 2 28 18
M  V30 33 1 26 21
M  V30 34 1 1 30
M  V30 35 1 2 31
M  V30 36 1 4 32
M  V30 37 1 5 33
M  V30 38 1 5 34
M  V30 39 1 6 35
M  V30 40 1 7 36
M  V30 41 1 7 37
M  V30 42 1 8 38
M  V30 43 1 8 39
M  V30 44 1 10 40
M  V30 45 1 10 41
M  V30 46 1 11 42
M  V30 47 1 11 43
M  V30 48 1 15 44
M  V30 49 1 16 45
M  V30 50 1 19 46
M  V30 51 1 21 47
M  V30 52 1 22 48
M  V30 53 1 22 49
M  V30 54 1 23 50
M  V30 55 1 23 51
M  V30 56 1 24 52
M  V30 57 1 25 53
M  V30 58 1 25 54
M  V30 59 1 26 55
M  V30 60 1 26 56
M  V30 61 1 27 57
M  V30 62 1 29 58
M  V30 END BOND
M  V30 END CTAB
M  END
>  <Dataset>  (362) 
ChEMBL_Kinases

>  <Ligand_Instance>  (362) 
nan

>  <PDB_ID>  (362) 
nan

>  <Standardized_SMILES>  (362) 
c1cc(NCC2CCOCC2)nc(-c2ccnc3[nH]c(C4CCNCC4)cc23)c1

>  <Name>  (362) 
nan

>  <Pocket>  (362) 
nan

>  <ATP_Site>  (362) 
nan

>  <Peripheral>  (362) 
nan

>  <Num_H_Atoms_ProtBoundConf>  (362) 
nan

>  <Num_Resolved_Atoms>  (362) 
nan

>  <Num_Not_Resolved_Atoms>  (362) 
nan

$$$$
CHEMBL3668363
     RDKit          3D

  0  0  0  0  0  0  0  0  0  0999 V3000
M  V30 BEGIN CTAB
M  V30 COUNTS 61 65 0 0 0
M  V30 BEGIN ATOM
M  V30 1 C -0.685269 0.528980 5.736897 0
M  V30 2 N -0.879197 0.033448 4.393485 0
M  V30 3 C 0.138869 0.508937 3.481285 0
M  V30 4 C 1.415933 -0.185932 3.870761 0
M  V30 5 C 1.316301 -1.620933 3.420459 0
M  V30 6 C 2.060508 -1.815507 2.138576 0
M  V30 7 C 1.830386 -1.348014 0.860798 0
M  V30 8 C 2.798171 -1.787814 -0.019523 0
M  V30 9 C 2.950759 -1.560964 -1.370703 0
M  V30 10 C 2.029346 -0.748070 -2.152210 0
M  V30 11 C 2.218051 -0.557172 -3.500529 0
M  V30 12 C 1.382376 0.197737 -4.288760 0
M  V30 13 C 0.276993 0.806420 -3.684447 0
M  V30 14 C 0.100065 0.605367 -2.326915 0
M  V30 15 N -1.011007 1.217212 -1.702349 0
M  V30 16 C -2.392401 1.057643 -1.379476 0
M  V30 17 C -2.697956 -0.147167 -0.514801 0
M  V30 18 C -2.302480 -1.456375 -1.150860 0
M  V30 19 C -2.837743 -1.519543 -2.565172 0
M  V30 20 O -4.110925 -0.972944 -2.551862 0
M  V30 21 C -4.753924 -1.123127 -1.345395 0
M  V30 22 C -4.185616 -0.250953 -0.237058 0
M  V30 23 N 0.952527 -0.139499 -1.629503 0
M  V30 24 C 4.075887 -2.188569 -1.915180 0
M  V30 25 C 4.939359 -2.956127 -1.162864 0
M  V30 26 N 4.702878 -3.117199 0.151037 0
M  V30 27 C 3.647559 -2.550859 0.752931 0
M  V30 28 N 3.190245 -2.550218 2.017405 0
M  V30 29 C -0.094509 -2.045577 3.353916 0
M  V30 30 C -1.014709 -1.401988 4.347457 0
M  V30 31 H -0.309729 1.580375 5.611534 0
M  V30 32 H -1.635346 0.616289 6.300700 0
M  V30 33 H 0.045963 -0.044390 6.314840 0
M  V30 34 H 0.179269 1.610083 3.569676 0
M  V30 35 H -0.197431 0.271871 2.475958 0
M  V30 36 H 1.579392 -0.106398 4.964921 0
M  V30 37 H 2.235352 0.320371 3.298452 0
M  V30 38 H 1.811155 -2.219563 4.226816 0
M  V30 39 H 0.981288 -0.724428 0.657377 0
M  V30 40 H 3.027029 -0.976982 -4.052804 0
M  V30 41 H 1.514296 0.359225 -5.350412 0
M  V30 42 H -0.436973 1.417959 -4.217634 0
M  V30 43 H -0.517945 2.090794 -1.413972 0
M  V30 44 H -2.765807 1.937730 -0.817769 0
M  V30 45 H -2.953895 1.040312 -2.322654 0
M  V30 46 H -2.199064 -0.061449 0.470076 0
M  V30 47 H -1.257897 -1.734767 -1.041731 0
M  V30 48 H -2.879254 -2.251452 -0.591033 0
M  V30 49 H -2.848179 -2.592374 -2.871118 0
M  V30 50 H -2.166211 -0.999233 -3.292282 0
M  V30 51 H -4.865445 -2.186641 -1.040466 0
M  V30 52 H -5.809671 -0.761282 -1.488138 0
M  V30 53 H -4.664109 0.733126 -0.229971 0
M  V30 54 H -4.346011 -0.803897 0.712760 0
M  V30 55 H 4.296176 -2.085073 -2.948019 0
M  V30 56 H 5.790925 -3.423673 -1.606072 0
M  V30 57 H 3.707062 -3.084564 2.773572 0
M  V30 58 H -0.125198 -3.148023 3.496744 0
M  V30 59 H -0.469671 -1.847974 2.324462 0
M  V30 60 H -0.752273 -1.788272 5.352571 0
M  V30 61 H -2.056089 -1.709512 4.141646 0
M  V30 END ATOM
M  V30 BEGIN BOND
M  V30 1 1 1 2
M  V30 2 1 2 3
M  V30 3 1 3 4
M  V30 4 1 4 5
M  V30 5 1 5 6
M  V30 6 2 6 7
M  V30 7 1 7 8
M  V30 8 2 8 9
M  V30 9 1 9 10
M  V30 10 2 10 11
M  V30 11 1 11 12
M  V30 12 2 12 13
M  V30 13 1 13 14
M  V30 14 1 14 15
M  V30 15 1 15 16
M  V30 16 1 16 17
M  V30 17 1 17 18
M  V30 18 1 18 19
M  V30 19 1 19 20
M  V30 20 1 20 21
M  V30 21 1 21 22
M  V30 22 2 14 23
M  V30 23 1 9 24
M  V30 24 2 24 25
M  V30 25 1 25 26
M  V30 26 2 26 27
M  V30 27 1 27 28
M  V30 28 1 5 29
M  V30 29 1 29 30
M  V30 30 1 30 2
M  V30 31 1 28 6
M  V30 32 1 27 8
M  V30 33 1 23 10
M  V30 34 1 22 17
M  V30 35 1 1 31
M  V30 36 1 1 32
M  V30 37 1 1 33
M  V30 38 1 3 34
M  V30 39 1 3 35
M  V30 40 1 4 36
M  V30 41 1 4 37
M  V30 42 1 5 38
M  V30 43 1 7 39
M  V30 44 1 11 40
M  V30 45 1 12 41
M  V30 46 1 13 42
M  V30 47 1 15 43
M  V30 48 1 16 44
M  V30 49 1 16 45
M  V30 50 1 17 46
M  V30 51 1 18 47
M  V30 52 1 18 48
M  V30 53 1 19 49
M  V30 54 1 19 50
M  V30 55 1 21 51
M  V30 56 1 21 52
M  V30 57 1 22 53
M  V30 58 1 22 54
M  V30 59 1 24 55
M  V30 60 1 25 56
M  V30 61 1 28 57
M  V30 62 1 29 58
M  V30 63 1 29 59
M  V30 64 1 30 60
M  V30 65 1 30 61
M  V30 END BOND
M  V30 END CTAB
M  END
>  <Dataset>  (363) 
ChEMBL_Kinases

>  <Ligand_Instance>  (363) 
nan

>  <PDB_ID>  (363) 
nan

>  <Standardized_SMILES>  (363) 
CN1CCC(c2cc3c(-c4cccc(NCC5CCOCC5)n4)ccnc3[nH]2)CC1

>  <Name>  (363) 
nan

>  <Pocket>  (363) 
nan

>  <ATP_Site>  (363) 
nan

>  <Peripheral>  (363) 
nan

>  <Num_H_Atoms_ProtBoundConf>  (363) 
nan

>  <Num_Resolved_Atoms>  (363) 
nan

>  <Num_Not_Resolved_Atoms>  (363) 
nan

$$$$
CHEMBL3668364
     RDKit          3D

  0  0  0  0  0  0  0  0  0  0999 V3000
M  V30 BEGIN CTAB
M  V30 COUNTS 56 60 0 0 0
M  V30 BEGIN ATOM
M  V30 1 C -2.730570 -1.474583 1.892598 0
M  V30 2 N -1.495094 -2.179547 1.981772 0
M  V30 3 C -1.062056 -2.430530 3.332947 0
M  V30 4 C 0.328170 -2.958268 3.427574 0
M  V30 5 C 0.698312 -3.924269 2.351557 0
M  V30 6 C 1.709122 -3.379351 1.393609 0
M  V30 7 C 1.666887 -2.243614 0.611979 0
M  V30 8 C 2.815847 -2.108553 -0.139784 0
M  V30 9 C 3.303898 -1.203684 -1.061458 0
M  V30 10 C 2.493750 -0.048190 -1.418842 0
M  V30 11 C 2.901839 0.897744 -2.335155 0
M  V30 12 C 2.181191 2.010224 -2.714275 0
M  V30 13 C 0.943310 2.215632 -2.141510 0
M  V30 14 C 0.523504 1.277636 -1.223982 0
M  V30 15 N -0.744868 1.444523 -0.604630 0
M  V30 16 C -1.535845 2.614685 -0.984871 0
M  V30 17 C -2.818143 2.641470 -0.250973 0
M  V30 18 C -4.009489 2.076152 -0.643149 0
M  V30 19 C -5.129204 2.188908 0.160757 0
M  V30 20 C -5.104761 2.854071 1.358768 0
M  V30 21 N -3.938749 3.420187 1.766006 0
M  V30 22 C -2.843688 3.299882 0.961359 0
M  V30 23 N 1.281745 0.222493 -0.908025 0
M  V30 24 C 4.549450 -1.455630 -1.594826 0
M  V30 25 C 5.306304 -2.555307 -1.246655 0
M  V30 26 N 4.785513 -3.406773 -0.344102 0
M  V30 27 C 3.573134 -3.207821 0.207884 0
M  V30 28 N 2.915698 -3.953775 1.112545 0
M  V30 29 C -0.536648 -4.419393 1.658498 0
M  V30 30 C -1.344491 -3.294877 1.106979 0
M  V30 31 H -3.619206 -2.075511 2.197857 0
M  V30 32 H -2.920448 -1.224533 0.816541 0
M  V30 33 H -2.702829 -0.567557 2.496297 0
M  V30 34 H -1.095297 -1.444630 3.855483 0
M  V30 35 H -1.751176 -3.097751 3.903127 0
M  V30 36 H 1.027654 -2.076987 3.336506 0
M  V30 37 H 0.508129 -3.333994 4.456223 0
M  V30 38 H 1.146020 -4.813446 2.859397 0
M  V30 39 H 0.845408 -1.553436 0.593337 0
M  V30 40 H 3.857612 0.818178 -2.834294 0
M  V30 41 H 2.528176 2.729278 -3.432408 0
M  V30 42 H 0.359085 3.079713 -2.421633 0
M  V30 43 H -1.112534 0.766460 0.097437 0
M  V30 44 H -1.001864 3.561471 -0.780673 0
M  V30 45 H -1.753072 2.609715 -2.072007 0
M  V30 46 H -3.981252 1.553606 -1.609242 0
M  V30 47 H -6.003166 1.699891 -0.262471 0
M  V30 48 H -6.015146 2.906355 1.939991 0
M  V30 49 H -1.996231 3.809450 1.436446 0
M  V30 50 H 4.981469 -0.782015 -2.320484 0
M  V30 51 H 6.281175 -2.716764 -1.689687 0
M  V30 52 H 3.236113 -4.825900 1.548636 0
M  V30 53 H -1.157057 -4.915088 2.436740 0
M  V30 54 H -0.327718 -5.148324 0.860619 0
M  V30 55 H -1.022582 -2.955099 0.086858 0
M  V30 56 H -2.371828 -3.728390 0.911655 0
M  V30 END ATOM
M  V30 BEGIN BOND
M  V30 1 1 1 2
M  V30 2 1 2 3
M  V30 3 1 3 4
M  V30 4 1 4 5
M  V30 5 1 5 6
M  V30 6 2 6 7
M  V30 7 1 7 8
M  V30 8 2 8 9
M  V30 9 1 9 10
M  V30 10 2 10 11
M  V30 11 1 11 12
M  V30 12 2 12 13
M  V30 13 1 13 14
M  V30 14 1 14 15
M  V30 15 1 15 16
M  V30 16 1 16 17
M  V30 17 2 17 18
M  V30 18 1 18 19
M  V30 19 2 19 20
M  V30 20 1 20 21
M  V30 21 2 21 22
M  V30 22 2 14 23
M  V30 23 1 9 24
M  V30 24 2 24 25
M  V30 25 1 25 26
M  V30 26 2 26 27
M  V30 27 1 27 28
M  V30 28 1 5 29
M  V30 29 1 29 30
M  V30 30 1 30 2
M  V30 31 1 28 6
M  V30 32 1 27 8
M  V30 33 1 23 10
M  V30 34 1 22 17
M  V30 35 1 1 31
M  V30 36 1 1 32
M  V30 37 1 1 33
M  V30 38 1 3 34
M  V30 39 1 3 35
M  V30 40 1 4 36
M  V30 41 1 4 37
M  V30 42 1 5 38
M  V30 43 1 7 39
M  V30 44 1 11 40
M  V30 45 1 12 41
M  V30 46 1 13 42
M  V30 47 1 15 43
M  V30 48 1 16 44
M  V30 49 1 16 45
M  V30 50 1 18 46
M  V30 51 1 19 47
M  V30 52 1 20 48
M  V30 53 1 22 49
M  V30 54 1 24 50
M  V30 55 1 25 51
M  V30 56 1 28 52
M  V30 57 1 29 53
M  V30 58 1 29 54
M  V30 59 1 30 55
M  V30 60 1 30 56
M  V30 END BOND
M  V30 END CTAB
M  END
>  <Dataset>  (364) 
ChEMBL_Kinases

>  <Ligand_Instance>  (364) 
nan

>  <PDB_ID>  (364) 
nan

>  <Standardized_SMILES>  (364) 
CN1CCC(c2cc3c(-c4cccc(NCc5cccnc5)n4)ccnc3[nH]2)CC1

>  <Name>  (364) 
nan

>  <Pocket>  (364) 
nan

>  <ATP_Site>  (364) 
nan

>  <Peripheral>  (364) 
nan

>  <Num_H_Atoms_ProtBoundConf>  (364) 
nan

>  <Num_Resolved_Atoms>  (364) 
nan

>  <Num_Not_Resolved_Atoms>  (364) 
nan

$$$$
CHEMBL3668365
     RDKit          3D

  0  0  0  0  0  0  0  0  0  0999 V3000
M  V30 BEGIN CTAB
M  V30 COUNTS 61 65 0 0 0
M  V30 BEGIN ATOM
M  V30 1 C -0.483762 -0.520854 5.550135 0
M  V30 2 N -0.715895 -0.965214 4.197048 0
M  V30 3 C -0.213553 -2.275491 3.905762 0
M  V30 4 C 1.028676 -2.300216 3.084160 0
M  V30 5 C 1.929335 -1.113172 3.217600 0
M  V30 6 C 2.783892 -1.004195 1.981566 0
M  V30 7 C 2.340616 -0.650009 0.722942 0
M  V30 8 C 3.378765 -0.648483 -0.189678 0
M  V30 9 C 3.440585 -0.366900 -1.537537 0
M  V30 10 C 2.274820 0.028643 -2.317319 0
M  V30 11 C 2.426354 0.375274 -3.642976 0
M  V30 12 C 1.372306 0.773961 -4.438574 0
M  V30 13 C 0.112324 0.830511 -3.892364 0
M  V30 14 C -0.046558 0.479180 -2.546679 0
M  V30 15 N -1.340408 0.536267 -1.938022 0
M  V30 16 C -1.627061 0.124746 -0.600441 0
M  V30 17 C -1.415411 -1.356394 -0.383751 0
M  V30 18 S -2.484635 -2.346481 -1.460395 0
M  V30 19 C -4.209039 -2.144126 -1.049333 0
M  V30 20 C -4.779079 -1.090071 -1.767512 0
M  V30 21 C -6.127363 -0.755311 -1.598497 0
M  V30 22 C -6.897356 -1.491705 -0.699306 0
M  V30 23 C -6.308144 -2.525335 -0.005370 0
M  V30 24 C -4.988958 -2.868199 -0.157498 0
M  V30 25 N 1.028620 0.096382 -1.820347 0
M  V30 26 C 4.707831 -0.488431 -2.061370 0
M  V30 27 C 5.825421 -0.852791 -1.341181 0
M  V30 28 N 5.679577 -1.115437 -0.009488 0
M  V30 29 C 4.468410 -1.014277 0.560921 0
M  V30 30 N 4.102642 -1.221067 1.839992 0
M  V30 31 C 1.270250 0.168857 3.574726 0
M  V30 32 C -0.213898 0.043394 3.283497 0
M  V30 33 H -0.477941 0.598896 5.539730 0
M  V30 34 H 0.502766 -0.827348 5.943880 0
M  V30 35 H -1.273732 -0.863542 6.258093 0
M  V30 36 H -1.031688 -2.860320 3.439912 0
M  V30 37 H 0.009740 -2.771915 4.882200 0
M  V30 38 H 1.626090 -3.236943 3.286284 0
M  V30 39 H 0.736270 -2.384145 2.016020 0
M  V30 40 H 2.654600 -1.370432 4.045107 0
M  V30 41 H 1.316113 -0.406174 0.500472 0
M  V30 42 H 3.359014 0.373029 -4.186771 0
M  V30 43 H 1.455570 1.054150 -5.486358 0
M  V30 44 H -0.748441 1.134325 -4.462226 0
M  V30 45 H -2.129594 0.915515 -2.543255 0
M  V30 46 H -0.977759 0.653006 0.134196 0
M  V30 47 H -2.677700 0.350789 -0.360377 0
M  V30 48 H -0.369756 -1.625793 -0.629958 0
M  V30 49 H -1.593466 -1.648787 0.666862 0
M  V30 50 H -4.291828 -0.447999 -2.488587 0
M  V30 51 H -6.612429 0.046980 -2.127566 0
M  V30 52 H -7.960108 -1.270172 -0.529747 0
M  V30 53 H -6.864230 -3.131833 0.708646 0
M  V30 54 H -4.427255 -3.644999 0.323464 0
M  V30 55 H 4.898365 -0.298551 -3.100267 0
M  V30 56 H 6.791892 -0.938642 -1.772723 0
M  V30 57 H 4.701038 -1.505028 2.637323 0
M  V30 58 H 1.464719 0.443436 4.625089 0
M  V30 59 H 1.670207 0.983849 2.939635 0
M  V30 60 H -0.325616 -0.300456 2.240134 0
M  V30 61 H -0.771960 0.975432 3.475504 0
M  V30 END ATOM
M  V30 BEGIN BOND
M  V30 1 1 1 2
M  V30 2 1 2 3
M  V30 3 1 3 4
M  V30 4 1 4 5
M  V30 5 1 5 6
M  V30 6 2 6 7
M  V30 7 1 7 8
M  V30 8 2 8 9
M  V30 9 1 9 10
M  V30 10 2 10 11
M  V30 11 1 11 12
M  V30 12 2 12 13
M  V30 13 1 13 14
M  V30 14 1 14 15
M  V30 15 1 15 16
M  V30 16 1 16 17
M  V30 17 1 17 18
M  V30 18 1 18 19
M  V30 19 2 19 20
M  V30 20 1 20 21
M  V30 21 2 21 22
M  V30 22 1 22 23
M  V30 23 2 23 24
M  V30 24 2 14 25
M  V30 25 1 9 26
M  V30 26 2 26 27
M  V30 27 1 27 28
M  V30 28 2 28 29
M  V30 29 1 29 30
M  V30 30 1 5 31
M  V30 31 1 31 32
M  V30 32 1 32 2
M  V30 33 1 30 6
M  V30 34 1 29 8
M  V30 35 1 25 10
M  V30 36 1 24 19
M  V30 37 1 1 33
M  V30 38 1 1 34
M  V30 39 1 1 35
M  V30 40 1 3 36
M  V30 41 1 3 37
M  V30 42 1 4 38
M  V30 43 1 4 39
M  V30 44 1 5 40
M  V30 45 1 7 41
M  V30 46 1 11 42
M  V30 47 1 12 43
M  V30 48 1 13 44
M  V30 49 1 15 45
M  V30 50 1 16 46
M  V30 51 1 16 47
M  V30 52 1 17 48
M  V30 53 1 17 49
M  V30 54 1 20 50
M  V30 55 1 21 51
M  V30 56 1 22 52
M  V30 57 1 23 53
M  V30 58 1 24 54
M  V30 59 1 26 55
M  V30 60 1 27 56
M  V30 61 1 30 57
M  V30 62 1 31 58
M  V30 63 1 31 59
M  V30 64 1 32 60
M  V30 65 1 32 61
M  V30 END BOND
M  V30 END CTAB
M  END
>  <Dataset>  (365) 
ChEMBL_Kinases

>  <Ligand_Instance>  (365) 
nan

>  <PDB_ID>  (365) 
nan

>  <Standardized_SMILES>  (365) 
CN1CCC(c2cc3c(-c4cccc(NCCSc5ccccc5)n4)ccnc3[nH]2)CC1

>  <Name>  (365) 
nan

>  <Pocket>  (365) 
nan

>  <ATP_Site>  (365) 
nan

>  <Peripheral>  (365) 
nan

>  <Num_H_Atoms_ProtBoundConf>  (365) 
nan

>  <Num_Resolved_Atoms>  (365) 
nan

>  <Num_Not_Resolved_Atoms>  (365) 
nan

$$$$
CHEMBL3668366
     RDKit          3D

  0  0  0  0  0  0  0  0  0  0999 V3000
M  V30 BEGIN CTAB
M  V30 COUNTS 54 58 0 0 0
M  V30 BEGIN ATOM
M  V30 1 C 0.746973 -5.018607 3.037044 0
M  V30 2 N 0.023950 -5.285487 1.837743 0
M  V30 3 C -1.179872 -4.579749 1.627065 0
M  V30 4 C -1.158178 -3.621861 0.473476 0
M  V30 5 C 0.273453 -3.269984 0.092003 0
M  V30 6 C 0.188739 -2.279821 -1.000578 0
M  V30 7 C 0.308207 -0.920767 -0.735828 0
M  V30 8 C 0.196734 -0.229911 -1.925180 0
M  V30 9 C 0.218314 1.081406 -2.371942 0
M  V30 10 C 0.381471 2.117838 -1.345662 0
M  V30 11 C 0.292509 3.462883 -1.659871 0
M  V30 12 C 0.414879 4.457093 -0.700126 0
M  V30 13 C 0.634907 4.097206 0.620876 0
M  V30 14 C 0.720476 2.754783 0.909169 0
M  V30 15 N 0.917350 2.123512 2.164205 0
M  V30 16 C 0.290278 1.396548 3.224543 0
M  V30 17 C -0.906858 2.092104 3.813341 0
M  V30 18 C -2.079227 2.417302 2.999892 0
M  V30 19 C -2.171564 1.256955 3.923729 0
M  V30 20 N 0.594658 1.835085 -0.054925 0
M  V30 21 C 0.060324 1.342089 -3.719523 0
M  V30 22 C -0.118785 0.304301 -4.615982 0
M  V30 23 N -0.140547 -0.980290 -4.167373 0
M  V30 24 C 0.012922 -1.228468 -2.862848 0
M  V30 25 N 0.006381 -2.458421 -2.323068 0
M  V30 26 C 0.925503 -4.533951 -0.338828 0
M  V30 27 C 0.829730 -5.599674 0.705440 0
M  V30 28 H 1.501603 -5.844262 3.139916 0
M  V30 29 H 0.067504 -5.063922 3.913579 0
M  V30 30 H 1.228225 -4.033403 3.000707 0
M  V30 31 H -2.076619 -5.226810 1.561959 0
M  V30 32 H -1.341823 -3.932284 2.541978 0
M  V30 33 H -1.625427 -4.082208 -0.412073 0
M  V30 34 H -1.730835 -2.673379 0.697202 0
M  V30 35 H 0.797025 -2.811804 0.956492 0
M  V30 36 H 0.461034 -0.461200 0.218200 0
M  V30 37 H 0.127708 3.817674 -2.659517 0
M  V30 38 H 0.351792 5.519243 -0.889466 0
M  V30 39 H 0.746975 4.733780 1.471964 0
M  V30 40 H 1.943543 2.341939 2.205195 0
M  V30 41 H 0.010446 0.360012 2.883877 0
M  V30 42 H 1.061139 1.228171 4.018306 0
M  V30 43 H -0.660701 2.680705 4.727201 0
M  V30 44 H -2.676485 3.343422 3.260889 0
M  V30 45 H -2.042461 2.221623 1.909299 0
M  V30 46 H -2.206888 0.249190 3.478697 0
M  V30 47 H -2.834026 1.429708 4.812980 0
M  V30 48 H 0.077567 2.366578 -4.065957 0
M  V30 49 H -0.246555 0.505512 -5.693393 0
M  V30 50 H -0.108745 -3.390940 -2.758793 0
M  V30 51 H 0.427928 -4.885596 -1.288607 0
M  V30 52 H 2.002388 -4.305967 -0.569091 0
M  V30 53 H 1.866382 -5.805371 1.107360 0
M  V30 54 H 0.487537 -6.535975 0.233003 0
M  V30 END ATOM
M  V30 BEGIN BOND
M  V30 1 1 1 2
M  V30 2 1 2 3
M  V30 3 1 3 4
M  V30 4 1 4 5
M  V30 5 1 5 6
M  V30 6 2 6 7
M  V30 7 1 7 8
M  V30 8 2 8 9
M  V30 9 1 9 10
M  V30 10 2 10 11
M  V30 11 1 11 12
M  V30 12 2 12 13
M  V30 13 1 13 14
M  V30 14 1 14 15
M  V30 15 1 15 16
M  V30 16 1 16 17
M  V30 17 1 17 18
M  V30 18 1 18 19
M  V30 19 2 14 20
M  V30 20 1 9 21
M  V30 21 2 21 22
M  V30 22 1 22 23
M  V30 23 2 23 24
M  V30 24 1 24 25
M  V30 25 1 5 26
M  V30 26 1 26 27
M  V30 27 1 27 2
M  V30 28 1 25 6
M  V30 29 1 24 8
M  V30 30 1 20 10
M  V30 31 1 19 17
M  V30 32 1 1 28
M  V30 33 1 1 29
M  V30 34 1 1 30
M  V30 35 1 3 31
M  V30 36 1 3 32
M  V30 37 1 4 33
M  V30 38 1 4 34
M  V30 39 1 5 35
M  V30 40 1 7 36
M  V30 41 1 11 37
M  V30 42 1 12 38
M  V30 43 1 13 39
M  V30 44 1 15 40
M  V30 45 1 16 41
M  V30 46 1 16 42
M  V30 47 1 17 43
M  V30 48 1 18 44
M  V30 49 1 18 45
M  V30 50 1 19 46
M  V30 51 1 19 47
M  V30 52 1 21 48
M  V30 53 1 22 49
M  V30 54 1 25 50
M  V30 55 1 26 51
M  V30 56 1 26 52
M  V30 57 1 27 53
M  V30 58 1 27 54
M  V30 END BOND
M  V30 END CTAB
M  END
>  <Dataset>  (366) 
ChEMBL_Kinases

>  <Ligand_Instance>  (366) 
nan

>  <PDB_ID>  (366) 
nan

>  <Standardized_SMILES>  (366) 
CN1CCC(c2cc3c(-c4cccc(NCC5CC5)n4)ccnc3[nH]2)CC1

>  <Name>  (366) 
nan

>  <Pocket>  (366) 
nan

>  <ATP_Site>  (366) 
nan

>  <Peripheral>  (366) 
nan

>  <Num_H_Atoms_ProtBoundConf>  (366) 
nan

>  <Num_Resolved_Atoms>  (366) 
nan

>  <Num_Not_Resolved_Atoms>  (366) 
nan

$$$$
CHEMBL3668367
     RDKit          3D

  0  0  0  0  0  0  0  0  0  0999 V3000
M  V30 BEGIN CTAB
M  V30 COUNTS 41 44 0 0 0
M  V30 BEGIN ATOM
M  V30 1 C 1.327711 -4.260152 -1.607324 0
M  V30 2 O 1.549810 -2.917983 -1.217102 0
M  V30 3 C 2.378968 -2.653140 -0.119562 0
M  V30 4 C 3.034391 -3.582169 0.661824 0
M  V30 5 C 3.817753 -3.145142 1.712882 0
M  V30 6 C 3.980636 -1.814855 2.025253 0
M  V30 7 F 4.777127 -1.468614 3.086482 0
M  V30 8 C 3.326231 -0.884358 1.245303 0
M  V30 9 C 2.533003 -1.315363 0.181881 0
M  V30 10 C 1.915056 -0.198887 -0.536638 0
M  V30 11 C 2.661740 0.316813 -1.600447 0
M  V30 12 C 2.091077 1.366309 -2.283100 0
M  V30 13 N 0.887371 1.873644 -1.955119 0
M  V30 14 C 0.153286 1.392309 -0.935849 0
M  V30 15 N -1.040936 1.643447 -0.349162 0
M  V30 16 C -1.272823 0.815096 0.673499 0
M  V30 17 C -2.459775 0.769570 1.562391 0
M  V30 18 C -2.093280 0.070939 2.855201 0
M  V30 19 C -3.263009 0.446669 3.741800 0
M  V30 20 C -3.564470 1.850535 3.283611 0
M  V30 21 N -2.902473 2.043259 2.028819 0
M  V30 22 C -0.177265 -0.047629 0.790418 0
M  V30 23 C 0.674153 0.340935 -0.215938 0
M  V30 24 H 0.421069 -4.292941 -2.245428 0
M  V30 25 H 1.147982 -4.883738 -0.705145 0
M  V30 26 H 2.199237 -4.614482 -2.180016 0
M  V30 27 H 2.878653 -4.615111 0.381249 0
M  V30 28 H 4.310016 -3.907542 2.294859 0
M  V30 29 H 3.479238 0.148954 1.522364 0
M  V30 30 H 3.642565 -0.110565 -1.853200 0
M  V30 31 H 2.644770 1.784192 -3.108724 0
M  V30 32 H -1.669326 2.409774 -0.697500 0
M  V30 33 H -3.313836 0.225407 1.114391 0
M  V30 34 H -1.178912 0.501019 3.308519 0
M  V30 35 H -2.014621 -1.036443 2.689336 0
M  V30 36 H -4.102669 -0.248628 3.519791 0
M  V30 37 H -2.976558 0.401918 4.817849 0
M  V30 38 H -4.669531 1.911120 3.099095 0
M  V30 39 H -3.275274 2.609275 4.054560 0
M  V30 40 H -2.233344 2.816405 1.982276 0
M  V30 41 H -0.070904 -0.835898 1.531682 0
M  V30 END ATOM
M  V30 BEGIN BOND
M  V30 1 1 1 2
M  V30 2 1 2 3
M  V30 3 2 3 4
M  V30 4 1 4 5
M  V30 5 2 5 6
M  V30 6 1 6 7
M  V30 7 1 6 8
M  V30 8 2 8 9
M  V30 9 1 9 10
M  V30 10 2 10 11
M  V30 11 1 11 12
M  V30 12 2 12 13
M  V30 13 1 13 14
M  V30 14 1 14 15
M  V30 15 1 15 16
M  V30 16 1 16 17
M  V30 17 1 17 18
M  V30 18 1 18 19
M  V30 19 1 19 20
M  V30 20 1 20 21
M  V30 21 2 16 22
M  V30 22 1 22 23
M  V30 23 1 9 3
M  V30 24 1 23 10
M  V30 25 2 23 14
M  V30 26 1 21 17
M  V30 27 1 1 24
M  V30 28 1 1 25
M  V30 29 1 1 26
M  V30 30 1 4 27
M  V30 31 1 5 28
M  V30 32 1 8 29
M  V30 33 1 11 30
M  V30 34 1 12 31
M  V30 35 1 15 32
M  V30 36 1 17 33
M  V30 37 1 18 34
M  V30 38 1 18 35
M  V30 39 1 19 36
M  V30 40 1 19 37
M  V30 41 1 20 38
M  V30 42 1 20 39
M  V30 43 1 21 40
M  V30 44 1 22 41
M  V30 END BOND
M  V30 END CTAB
M  END
>  <Dataset>  (367) 
ChEMBL_Kinases

>  <Ligand_Instance>  (367) 
nan

>  <PDB_ID>  (367) 
nan

>  <Standardized_SMILES>  (367) 
COc1ccc(F)cc1-c1ccnc2[nH]c(C3CCCN3)cc12

>  <Name>  (367) 
nan

>  <Pocket>  (367) 
nan

>  <ATP_Site>  (367) 
nan

>  <Peripheral>  (367) 
nan

>  <Num_H_Atoms_ProtBoundConf>  (367) 
nan

>  <Num_Resolved_Atoms>  (367) 
nan

>  <Num_Not_Resolved_Atoms>  (367) 
nan

$$$$
CHEMBL3668368
     RDKit          3D

  0  0  0  0  0  0  0  0  0  0999 V3000
M  V30 BEGIN CTAB
M  V30 COUNTS 67 71 0 0 0
M  V30 BEGIN ATOM
M  V30 1 C 3.580477 2.921889 5.567055 0
M  V30 2 N 4.225858 1.899751 4.815611 0
M  V30 3 C 3.778382 0.568667 5.122036 0
M  V30 4 C 4.512671 -0.498452 4.400999 0
M  V30 5 C 4.897771 -0.230660 2.996724 0
M  V30 6 C 3.910529 -0.729865 2.001790 0
M  V30 7 C 2.592581 -0.380004 1.824608 0
M  V30 8 C 2.019831 -1.071421 0.789667 0
M  V30 9 C 0.730129 -1.011883 0.327467 0
M  V30 10 C -0.386460 -0.215386 0.771391 0
M  V30 11 C -0.413318 0.979006 1.423913 0
M  V30 12 C -1.520210 1.704721 1.769863 0
M  V30 13 C -2.722989 1.180398 1.425466 0
M  V30 14 C -2.749921 -0.044182 0.751998 0
M  V30 15 N -4.058365 -0.571093 0.429658 0
M  V30 16 C -4.712899 -1.658617 -0.203942 0
M  V30 17 C -4.591551 -1.728321 -1.713753 0
M  V30 18 C -5.381695 -2.956995 -2.121020 0
M  V30 19 C -5.049539 -3.492424 -3.470192 0
M  V30 20 O -3.676481 -3.568473 -3.699809 0
M  V30 21 C -3.061707 -2.336363 -3.522071 0
M  V30 22 C -3.594845 -1.283709 -4.452284 0
M  V30 23 C -1.590556 -2.545082 -3.832221 0
M  V30 24 C -3.159891 -1.851802 -2.097702 0
M  V30 25 N -1.610215 -0.675188 0.459587 0
M  V30 26 C 0.530060 -1.901036 -0.727548 0
M  V30 27 C 1.494132 -2.727053 -1.241644 0
M  V30 28 N 2.728300 -2.701960 -0.711808 0
M  V30 29 C 3.017519 -1.885385 0.302293 0
M  V30 30 N 4.123862 -1.670349 1.027918 0
M  V30 31 C 5.278718 1.179905 2.769958 0
M  V30 32 C 4.367778 2.152119 3.416701 0
M  V30 33 H 2.470347 2.739771 5.505762 0
M  V30 34 H 3.922508 2.993632 6.617645 0
M  V30 35 H 3.736539 3.897822 5.028587 0
M  V30 36 H 2.707810 0.489761 4.942759 0
M  V30 37 H 3.959149 0.421383 6.224510 0
M  V30 38 H 5.388396 -0.868613 4.989290 0
M  V30 39 H 3.824890 -1.398550 4.378832 0
M  V30 40 H 5.827256 -0.864128 2.799803 0
M  V30 41 H 2.167486 0.326480 2.476445 0
M  V30 42 H 0.512660 1.439841 1.684944 0
M  V30 43 H -1.468921 2.639948 2.285601 0
M  V30 44 H -3.617123 1.755141 1.698368 0
M  V30 45 H -4.870648 0.038462 0.752943 0
M  V30 46 H -4.264761 -2.649591 0.145805 0
M  V30 47 H -5.784133 -1.769665 0.063856 0
M  V30 48 H -5.046784 -0.800246 -2.102447 0
M  V30 49 H -6.460209 -2.630099 -2.157241 0
M  V30 50 H -5.312910 -3.695043 -1.314290 0
M  V30 51 H -5.409796 -4.560291 -3.489318 0
M  V30 52 H -5.596081 -2.984089 -4.291938 0
M  V30 53 H -4.643220 -1.008762 -4.240704 0
M  V30 54 H -3.580802 -1.672948 -5.498913 0
M  V30 55 H -2.897022 -0.421718 -4.448055 0
M  V30 56 H -1.007167 -1.597049 -3.811251 0
M  V30 57 H -1.118190 -3.256548 -3.138898 0
M  V30 58 H -1.440534 -2.992862 -4.854309 0
M  V30 59 H -2.649885 -0.858425 -2.076641 0
M  V30 60 H -2.681125 -2.607076 -1.440115 0
M  V30 61 H -0.416944 -1.995367 -1.222319 0
M  V30 62 H 1.324086 -3.407158 -2.057448 0
M  V30 63 H 5.020720 -2.183594 0.834063 0
M  V30 64 H 5.366623 1.348286 1.674387 0
M  V30 65 H 6.289254 1.324931 3.257780 0
M  V30 66 H 4.871852 3.162626 3.336625 0
M  V30 67 H 3.379485 2.292766 2.949944 0
M  V30 END ATOM
M  V30 BEGIN BOND
M  V30 1 1 1 2
M  V30 2 1 2 3
M  V30 3 1 3 4
M  V30 4 1 4 5
M  V30 5 1 5 6
M  V30 6 2 6 7
M  V30 7 1 7 8
M  V30 8 2 8 9
M  V30 9 1 9 10
M  V30 10 2 10 11
M  V30 11 1 11 12
M  V30 12 2 12 13
M  V30 13 1 13 14
M  V30 14 1 14 15
M  V30 15 1 15 16
M  V30 16 1 16 17
M  V30 17 1 17 18
M  V30 18 1 18 19
M  V30 19 1 19 20
M  V30 20 1 20 21
M  V30 21 1 21 22
M  V30 22 1 21 23
M  V30 23 1 21 24
M  V30 24 2 14 25
M  V30 25 1 9 26
M  V30 26 2 26 27
M  V30 27 1 27 28
M  V30 28 2 28 29
M  V30 29 1 29 30
M  V30 30 1 5 31
M  V30 31 1 31 32
M  V30 32 1 32 2
M  V30 33 1 30 6
M  V30 34 1 29 8
M  V30 35 1 25 10
M  V30 36 1 24 17
M  V30 37 1 1 33
M  V30 38 1 1 34
M  V30 39 1 1 35
M  V30 40 1 3 36
M  V30 41 1 3 37
M  V30 42 1 4 38
M  V30 43 1 4 39
M  V30 44 1 5 40
M  V30 45 1 7 41
M  V30 46 1 11 42
M  V30 47 1 12 43
M  V30 48 1 13 44
M  V30 49 1 15 45
M  V30 50 1 16 46
M  V30 51 1 16 47
M  V30 52 1 17 48
M  V30 53 1 18 49
M  V30 54 1 18 50
M  V30 55 1 19 51
M  V30 56 1 19 52
M  V30 57 1 22 53
M  V30 58 1 22 54
M  V30 59 1 22 55
M  V30 60 1 23 56
M  V30 61 1 23 57
M  V30 62 1 23 58
M  V30 63 1 24 59
M  V30 64 1 24 60
M  V30 65 1 26 61
M  V30 66 1 27 62
M  V30 67 1 30 63
M  V30 68 1 31 64
M  V30 69 1 31 65
M  V30 70 1 32 66
M  V30 71 1 32 67
M  V30 END BOND
M  V30 END CTAB
M  END
>  <Dataset>  (368) 
ChEMBL_Kinases

>  <Ligand_Instance>  (368) 
nan

>  <PDB_ID>  (368) 
nan

>  <Standardized_SMILES>  (368) 
CN1CCC(c2cc3c(-c4cccc(NCC5CCOC(C)(C)C5)n4)ccnc3[nH]2)CC1

>  <Name>  (368) 
nan

>  <Pocket>  (368) 
nan

>  <ATP_Site>  (368) 
nan

>  <Peripheral>  (368) 
nan

>  <Num_H_Atoms_ProtBoundConf>  (368) 
nan

>  <Num_Resolved_Atoms>  (368) 
nan

>  <Num_Not_Resolved_Atoms>  (368) 
nan

$$$$
CHEMBL3668369
     RDKit          3D

  0  0  0  0  0  0  0  0  0  0999 V3000
M  V30 BEGIN CTAB
M  V30 COUNTS 60 64 0 0 0
M  V30 BEGIN ATOM
M  V30 1 C -1.532520 -3.046231 3.875776 0
M  V30 2 N -0.320270 -3.695101 4.259477 0
M  V30 3 C 0.789434 -2.811949 4.515457 0
M  V30 4 C 1.696060 -2.686212 3.307137 0
M  V30 5 C 0.885176 -2.968686 2.078521 0
M  V30 6 C 1.713558 -2.668003 0.863139 0
M  V30 7 C 1.498185 -1.689250 -0.084334 0
M  V30 8 C 2.471428 -1.714191 -1.060600 0
M  V30 9 C 2.720404 -0.978147 -2.199058 0
M  V30 10 C 1.834648 0.112465 -2.590043 0
M  V30 11 C 2.057507 0.857770 -3.729293 0
M  V30 12 C 1.253011 1.902314 -4.152172 0
M  V30 13 C 0.153179 2.216267 -3.377277 0
M  V30 14 C -0.079486 1.477951 -2.236017 0
M  V30 15 N -1.202161 1.770082 -1.405456 0
M  V30 16 C -2.137448 2.818669 -1.679149 0
M  V30 17 C -1.450737 0.990765 -0.213730 0
M  V30 18 C -2.631289 1.414561 0.552135 0
M  V30 19 C -3.823993 0.796032 0.182170 0
M  V30 20 C -4.993187 1.139589 0.860658 0
M  V30 21 C -4.972954 2.079203 1.885214 0
M  V30 22 C -3.788406 2.676503 2.233956 0
M  V30 23 C -2.609504 2.353481 1.575585 0
M  V30 24 N 0.747199 0.476738 -1.889352 0
M  V30 25 C 3.840589 -1.361154 -2.900031 0
M  V30 26 C 4.664815 -2.396711 -2.513747 0
M  V30 27 N 4.382427 -3.084981 -1.397809 0
M  V30 28 C 3.296834 -2.750927 -0.674101 0
M  V30 29 N 2.831238 -3.300000 0.463541 0
M  V30 30 C 0.302112 -4.340938 2.029618 0
M  V30 31 C 0.004074 -4.806092 3.423246 0
M  V30 32 H -1.875092 -3.447022 2.898187 0
M  V30 33 H -2.327934 -3.391935 4.600149 0
M  V30 34 H -1.481051 -1.928716 3.888855 0
M  V30 35 H 1.395663 -3.308460 5.323195 0
M  V30 36 H 0.493137 -1.842419 4.920043 0
M  V30 37 H 2.582908 -3.318793 3.410920 0
M  V30 38 H 1.968595 -1.593325 3.238933 0
M  V30 39 H 0.049215 -2.241677 2.065917 0
M  V30 40 H 0.665380 -1.002483 -0.044192 0
M  V30 41 H 2.896853 0.669993 -4.384297 0
M  V30 42 H 1.447034 2.472940 -5.049882 0
M  V30 43 H -0.481467 3.030772 -3.699881 0
M  V30 44 H -2.956103 2.419629 -2.325511 0
M  V30 45 H -2.557621 3.230941 -0.721089 0
M  V30 46 H -1.662565 3.671925 -2.177498 0
M  V30 47 H -0.555964 1.113958 0.441197 0
M  V30 48 H -1.495743 -0.078767 -0.512197 0
M  V30 49 H -3.878263 0.051904 -0.619286 0
M  V30 50 H -5.912358 0.635352 0.544846 0
M  V30 51 H -5.885834 2.337078 2.402887 0
M  V30 52 H -3.715826 3.420064 3.030039 0
M  V30 53 H -1.632475 2.781537 1.792278 0
M  V30 54 H 4.108626 -0.837863 -3.802908 0
M  V30 55 H 5.533758 -2.644411 -3.116326 0
M  V30 56 H 3.252105 -4.100856 0.986644 0
M  V30 57 H -0.658160 -4.374154 1.452714 0
M  V30 58 H 1.027800 -5.021450 1.511139 0
M  V30 59 H -0.875986 -5.479291 3.403178 0
M  V30 60 H 0.888122 -5.353250 3.803355 0
M  V30 END ATOM
M  V30 BEGIN BOND
M  V30 1 1 1 2
M  V30 2 1 2 3
M  V30 3 1 3 4
M  V30 4 1 4 5
M  V30 5 1 5 6
M  V30 6 2 6 7
M  V30 7 1 7 8
M  V30 8 2 8 9
M  V30 9 1 9 10
M  V30 10 2 10 11
M  V30 11 1 11 12
M  V30 12 2 12 13
M  V30 13 1 13 14
M  V30 14 1 14 15
M  V30 15 1 15 16
M  V30 16 1 15 17
M  V30 17 1 17 18
M  V30 18 2 18 19
M  V30 19 1 19 20
M  V30 20 2 20 21
M  V30 21 1 21 22
M  V30 22 2 22 23
M  V30 23 2 14 24
M  V30 24 1 9 25
M  V30 25 2 25 26
M  V30 26 1 26 27
M  V30 27 2 27 28
M  V30 28 1 28 29
M  V30 29 1 5 30
M  V30 30 1 30 31
M  V30 31 1 31 2
M  V30 32 1 29 6
M  V30 33 1 28 8
M  V30 34 1 24 10
M  V30 35 1 23 18
M  V30 36 1 1 32
M  V30 37 1 1 33
M  V30 38 1 1 34
M  V30 39 1 3 35
M  V30 40 1 3 36
M  V30 41 1 4 37
M  V30 42 1 4 38
M  V30 43 1 5 39
M  V30 44 1 7 40
M  V30 45 1 11 41
M  V30 46 1 12 42
M  V30 47 1 13 43
M  V30 48 1 16 44
M  V30 49 1 16 45
M  V30 50 1 16 46
M  V30 51 1 17 47
M  V30 52 1 17 48
M  V30 53 1 19 49
M  V30 54 1 20 50
M  V30 55 1 21 51
M  V30 56 1 22 52
M  V30 57 1 23 53
M  V30 58 1 25 54
M  V30 59 1 26 55
M  V30 60 1 29 56
M  V30 61 1 30 57
M  V30 62 1 30 58
M  V30 63 1 31 59
M  V30 64 1 31 60
M  V30 END BOND
M  V30 END CTAB
M  END
>  <Dataset>  (369) 
ChEMBL_Kinases

>  <Ligand_Instance>  (369) 
nan

>  <PDB_ID>  (369) 
nan

>  <Standardized_SMILES>  (369) 
CN1CCC(c2cc3c(-c4cccc(N(C)Cc5ccccc5)n4)ccnc3[nH]2)CC1

>  <Name>  (369) 
nan

>  <Pocket>  (369) 
nan

>  <ATP_Site>  (369) 
nan

>  <Peripheral>  (369) 
nan

>  <Num_H_Atoms_ProtBoundConf>  (369) 
nan

>  <Num_Resolved_Atoms>  (369) 
nan

>  <Num_Not_Resolved_Atoms>  (369) 
nan

$$$$
CHEMBL3668379
     RDKit          3D

  0  0  0  0  0  0  0  0  0  0999 V3000
M  V30 BEGIN CTAB
M  V30 COUNTS 41 44 0 0 0
M  V30 BEGIN ATOM
M  V30 1 N -0.253153 -3.849957 0.977198 0
M  V30 2 C 1.116408 -3.505021 1.156584 0
M  V30 3 C 2.031580 -4.513936 1.344438 0
M  V30 4 C 3.332848 -4.107649 1.510581 0
M  V30 5 C 3.591576 -2.759058 1.474079 0
M  V30 6 Cl 5.272785 -2.358483 1.695607 0
M  V30 7 C 2.691621 -1.742446 1.288006 0
M  V30 8 C 2.895721 -0.336296 1.240467 0
M  V30 9 C 4.039883 0.403660 1.365298 0
M  V30 10 C 4.203618 1.762939 1.314404 0
M  V30 11 N 3.060634 2.482001 1.109704 0
M  V30 12 C 1.878024 1.848164 0.973498 0
M  V30 13 N 0.673381 2.398404 0.769103 0
M  V30 14 C -0.252825 1.398950 0.689973 0
M  V30 15 C -1.709295 1.666635 0.471631 0
M  V30 16 C -2.162476 1.298203 -0.904678 0
M  V30 17 C -2.186011 -0.169951 -1.053697 0
M  V30 18 N -2.749368 -0.956244 -0.046451 0
M  V30 19 C -2.924473 -0.418116 1.244456 0
M  V30 20 C -2.570571 0.987187 1.473395 0
M  V30 21 C 0.450584 0.229760 0.855990 0
M  V30 22 C 1.797143 0.472128 1.037292 0
M  V30 23 N 1.469599 -2.238636 1.138270 0
M  V30 24 H -0.860776 -4.174806 1.752801 0
M  V30 25 H -0.960835 -3.893363 0.213349 0
M  V30 26 H 1.724410 -5.531753 1.355790 0
M  V30 27 H 4.077427 -4.862438 1.659802 0
M  V30 28 H 4.967626 -0.100836 1.527087 0
M  V30 29 H 5.153072 2.262408 1.424275 0
M  V30 30 H 0.485322 3.443466 0.684385 0
M  V30 31 H -1.864686 2.775731 0.558515 0
M  V30 32 H -3.164950 1.726652 -1.065102 0
M  V30 33 H -1.423960 1.698455 -1.658145 0
M  V30 34 H -1.158167 -0.562498 -1.310992 0
M  V30 35 H -2.763504 -0.381073 -2.009366 0
M  V30 36 H -2.330327 -1.927522 -0.079200 0
M  V30 37 H -4.008752 -0.580170 1.515066 0
M  V30 38 H -2.359555 -1.065634 1.959688 0
M  V30 39 H -2.045784 1.121747 2.465446 0
M  V30 40 H -3.494353 1.622484 1.610647 0
M  V30 41 H -0.116606 -0.659137 0.825885 0
M  V30 END ATOM
M  V30 BEGIN BOND
M  V30 1 1 1 2
M  V30 2 2 2 3
M  V30 3 1 3 4
M  V30 4 2 4 5
M  V30 5 1 5 6
M  V30 6 1 5 7
M  V30 7 1 7 8
M  V30 8 2 8 9
M  V30 9 1 9 10
M  V30 10 2 10 11
M  V30 11 1 11 12
M  V30 12 1 12 13
M  V30 13 1 13 14
M  V30 14 1 14 15
M  V30 15 1 15 16
M  V30 16 1 16 17
M  V30 17 1 17 18
M  V30 18 1 18 19
M  V30 19 1 19 20
M  V30 20 2 14 21
M  V30 21 1 21 22
M  V30 22 2 7 23
M  V30 23 1 23 2
M  V30 24 1 22 8
M  V30 25 2 22 12
M  V30 26 1 20 15
M  V30 27 1 1 24
M  V30 28 1 1 25
M  V30 29 1 3 26
M  V30 30 1 4 27
M  V30 31 1 9 28
M  V30 32 1 10 29
M  V30 33 1 13 30
M  V30 34 1 15 31
M  V30 35 1 16 32
M  V30 36 1 16 33
M  V30 37 1 17 34
M  V30 38 1 17 35
M  V30 39 1 18 36
M  V30 40 1 19 37
M  V30 41 1 19 38
M  V30 42 1 20 39
M  V30 43 1 20 40
M  V30 44 1 21 41
M  V30 END BOND
M  V30 END CTAB
M  END
>  <Dataset>  (370) 
ChEMBL_Kinases

>  <Ligand_Instance>  (370) 
nan

>  <PDB_ID>  (370) 
nan

>  <Standardized_SMILES>  (370) 
Nc1ccc(Cl)c(-c2ccnc3[nH]c(C4CCNCC4)cc23)n1

>  <Name>  (370) 
nan

>  <Pocket>  (370) 
nan

>  <ATP_Site>  (370) 
nan

>  <Peripheral>  (370) 
nan

>  <Num_H_Atoms_ProtBoundConf>  (370) 
nan

>  <Num_Resolved_Atoms>  (370) 
nan

>  <Num_Not_Resolved_Atoms>  (370) 
nan

$$$$
CHEMBL3668371
     RDKit          3D

  0  0  0  0  0  0  0  0  0  0999 V3000
M  V30 BEGIN CTAB
M  V30 COUNTS 45 48 0 0 0
M  V30 BEGIN ATOM
M  V30 1 C -2.466432 -3.300573 -1.694264 0
M  V30 2 O -1.347433 -2.420906 -1.697945 0
M  V30 3 C -0.103273 -2.986896 -1.456840 0
M  V30 4 C 0.122672 -4.326301 -1.216678 0
M  V30 5 C 1.386535 -4.832271 -0.982712 0
M  V30 6 C 2.429762 -3.910783 -1.002244 0
M  V30 7 F 3.692920 -4.377781 -0.774546 0
M  V30 8 C 2.235000 -2.561430 -1.240194 0
M  V30 9 C 0.953289 -2.095620 -1.469951 0
M  V30 10 C 0.897630 -0.655152 -1.705441 0
M  V30 11 C 1.014943 -0.150944 -3.004819 0
M  V30 12 C 0.964397 1.208080 -3.244544 0
M  V30 13 N 0.798319 2.083491 -2.211176 0
M  V30 14 C 0.686148 1.573380 -0.954539 0
M  V30 15 N 0.517851 2.252867 0.198074 0
M  V30 16 C 0.456730 1.360963 1.194297 0
M  V30 17 C 0.278897 1.656356 2.626730 0
M  V30 18 C 1.348652 1.136440 3.521469 0
M  V30 19 C 0.740170 0.499274 4.773250 0
M  V30 20 C -0.237857 1.495107 5.340637 0
M  V30 21 C -1.427081 1.642787 4.424700 0
M  V30 22 C -1.091289 1.098992 3.031530 0
M  V30 23 C 0.584124 0.074457 0.713505 0
M  V30 24 C 0.729889 0.237864 -0.666217 0
M  V30 25 H -2.694067 -3.687769 -0.675477 0
M  V30 26 H -3.381843 -2.795542 -2.046287 0
M  V30 27 H -2.243788 -4.156467 -2.377823 0
M  V30 28 H -0.738864 -4.981060 -1.217423 0
M  V30 29 H 1.544338 -5.886497 -0.796121 0
M  V30 30 H 3.127796 -1.932528 -1.231544 0
M  V30 31 H 1.147311 -0.804411 -3.850940 0
M  V30 32 H 1.053347 1.627113 -4.248464 0
M  V30 33 H 0.442540 3.302049 0.335833 0
M  V30 34 H 0.193868 2.751748 2.826688 0
M  V30 35 H 2.015117 1.959018 3.905801 0
M  V30 36 H 2.011796 0.388664 3.070980 0
M  V30 37 H 1.561195 0.327475 5.493801 0
M  V30 38 H 0.261404 -0.458529 4.522505 0
M  V30 39 H -0.538881 1.306989 6.370421 0
M  V30 40 H 0.291298 2.488344 5.352174 0
M  V30 41 H -1.741283 2.705208 4.355294 0
M  V30 42 H -2.279460 1.051433 4.791717 0
M  V30 43 H -1.831848 1.572776 2.354450 0
M  V30 44 H -1.117169 0.009882 3.070109 0
M  V30 45 H 0.581462 -0.862302 1.212369 0
M  V30 END ATOM
M  V30 BEGIN BOND
M  V30 1 1 1 2
M  V30 2 1 2 3
M  V30 3 2 3 4
M  V30 4 1 4 5
M  V30 5 2 5 6
M  V30 6 1 6 7
M  V30 7 1 6 8
M  V30 8 2 8 9
M  V30 9 1 9 10
M  V30 10 2 10 11
M  V30 11 1 11 12
M  V30 12 2 12 13
M  V30 13 1 13 14
M  V30 14 1 14 15
M  V30 15 1 15 16
M  V30 16 1 16 17
M  V30 17 1 17 18
M  V30 18 1 18 19
M  V30 19 1 19 20
M  V30 20 1 20 21
M  V30 21 1 21 22
M  V30 22 2 16 23
M  V30 23 1 23 24
M  V30 24 1 9 3
M  V30 25 1 24 10
M  V30 26 2 24 14
M  V30 27 1 22 17
M  V30 28 1 1 25
M  V30 29 1 1 26
M  V30 30 1 1 27
M  V30 31 1 4 28
M  V30 32 1 5 29
M  V30 33 1 8 30
M  V30 34 1 11 31
M  V30 35 1 12 32
M  V30 36 1 15 33
M  V30 37 1 17 34
M  V30 38 1 18 35
M  V30 39 1 18 36
M  V30 40 1 19 37
M  V30 41 1 19 38
M  V30 42 1 20 39
M  V30 43 1 20 40
M  V30 44 1 21 41
M  V30 45 1 21 42
M  V30 46 1 22 43
M  V30 47 1 22 44
M  V30 48 1 23 45
M  V30 END BOND
M  V30 END CTAB
M  END
>  <Dataset>  (371) 
ChEMBL_Kinases

>  <Ligand_Instance>  (371) 
nan

>  <PDB_ID>  (371) 
nan

>  <Standardized_SMILES>  (371) 
COc1ccc(F)cc1-c1ccnc2[nH]c(C3CCCCC3)cc12

>  <Name>  (371) 
nan

>  <Pocket>  (371) 
nan

>  <ATP_Site>  (371) 
nan

>  <Peripheral>  (371) 
nan

>  <Num_H_Atoms_ProtBoundConf>  (371) 
nan

>  <Num_Resolved_Atoms>  (371) 
nan

>  <Num_Not_Resolved_Atoms>  (371) 
nan

$$$$
CHEMBL3668372
     RDKit          3D

  0  0  0  0  0  0  0  0  0  0999 V3000
M  V30 BEGIN CTAB
M  V30 COUNTS 46 49 0 0 0
M  V30 BEGIN ATOM
M  V30 1 C 1.764286 -2.510584 -3.143994 0
M  V30 2 O 1.495891 -1.311231 -2.420627 0
M  V30 3 C 2.607180 -0.722881 -1.816614 0
M  V30 4 C 3.899691 -1.235038 -1.889319 0
M  V30 5 C 4.945290 -0.585752 -1.258969 0
M  V30 6 C 4.717558 0.580216 -0.549155 0
M  V30 7 F 5.804343 1.159834 0.044258 0
M  V30 8 C 3.440263 1.103395 -0.466289 0
M  V30 9 C 2.375555 0.456213 -1.099092 0
M  V30 10 C 1.059140 1.071796 -0.964367 0
M  V30 11 C 0.537336 2.024576 -1.845496 0
M  V30 12 C -0.722413 2.552967 -1.636395 0
M  V30 13 N -1.487791 2.179986 -0.594257 0
M  V30 14 C -1.044944 1.269218 0.288263 0
M  V30 15 N -1.575611 0.708258 1.409525 0
M  V30 16 C -0.714419 -0.156303 1.930306 0
M  V30 17 C -0.835527 -1.003105 3.133702 0
M  V30 18 C -0.827199 -0.181260 4.411461 0
M  V30 19 C -1.351766 -1.192035 5.410817 0
M  V30 20 C -2.327748 -2.057567 4.626249 0
M  V30 21 N -2.115599 -1.676950 3.241992 0
M  V30 22 C -3.142771 -2.021202 2.328759 0
M  V30 23 C -3.229445 -1.781466 0.885146 0
M  V30 24 O -3.942910 -2.584005 3.115794 0
M  V30 25 C 0.404433 -0.142145 1.107147 0
M  V30 26 C 0.201573 0.748785 0.078224 0
M  V30 27 H 2.399797 -2.270860 -4.043880 0
M  V30 28 H 2.300276 -3.263803 -2.532927 0
M  V30 29 H 0.809919 -2.984979 -3.477272 0
M  V30 30 H 4.045530 -2.143102 -2.448483 0
M  V30 31 H 5.936850 -1.048995 -1.360315 0
M  V30 32 H 3.291260 2.025135 0.101031 0
M  V30 33 H 1.190760 2.297343 -2.675016 0
M  V30 34 H -1.063463 3.289793 -2.362713 0
M  V30 35 H -2.515648 0.946400 1.771479 0
M  V30 36 H -0.033080 -1.738253 3.198696 0
M  V30 37 H -1.547789 0.652189 4.380119 0
M  V30 38 H 0.199980 0.169165 4.665570 0
M  V30 39 H -0.464905 -1.817229 5.722152 0
M  V30 40 H -1.831900 -0.690398 6.279135 0
M  V30 41 H -3.357112 -1.943286 4.976399 0
M  V30 42 H -1.977111 -3.130291 4.676437 0
M  V30 43 H -3.739642 -0.863755 0.583480 0
M  V30 44 H -3.784476 -2.636639 0.399159 0
M  V30 45 H -2.197770 -1.845749 0.446848 0
M  V30 46 H 1.292422 -0.742877 1.260933 0
M  V30 END ATOM
M  V30 BEGIN BOND
M  V30 1 1 1 2
M  V30 2 1 2 3
M  V30 3 2 3 4
M  V30 4 1 4 5
M  V30 5 2 5 6
M  V30 6 1 6 7
M  V30 7 1 6 8
M  V30 8 2 8 9
M  V30 9 1 9 10
M  V30 10 2 10 11
M  V30 11 1 11 12
M  V30 12 2 12 13
M  V30 13 1 13 14
M  V30 14 1 14 15
M  V30 15 1 15 16
M  V30 16 1 16 17
M  V30 17 1 17 18
M  V30 18 1 18 19
M  V30 19 1 19 20
M  V30 20 1 20 21
M  V30 21 1 21 22
M  V30 22 1 22 23
M  V30 23 2 22 24
M  V30 24 2 16 25
M  V30 25 1 25 26
M  V30 26 1 9 3
M  V30 27 1 26 10
M  V30 28 2 26 14
M  V30 29 1 21 17
M  V30 30 1 1 27
M  V30 31 1 1 28
M  V30 32 1 1 29
M  V30 33 1 4 30
M  V30 34 1 5 31
M  V30 35 1 8 32
M  V30 36 1 11 33
M  V30 37 1 12 34
M  V30 38 1 15 35
M  V30 39 1 17 36
M  V30 40 1 18 37
M  V30 41 1 18 38
M  V30 42 1 19 39
M  V30 43 1 19 40
M  V30 44 1 20 41
M  V30 45 1 20 42
M  V30 46 1 23 43
M  V30 47 1 23 44
M  V30 48 1 23 45
M  V30 49 1 25 46
M  V30 END BOND
M  V30 END CTAB
M  END
>  <Dataset>  (372) 
ChEMBL_Kinases

>  <Ligand_Instance>  (372) 
nan

>  <PDB_ID>  (372) 
nan

>  <Standardized_SMILES>  (372) 
COc1ccc(F)cc1-c1ccnc2[nH]c(C3CCCN3C(C)=O)cc12

>  <Name>  (372) 
nan

>  <Pocket>  (372) 
nan

>  <ATP_Site>  (372) 
nan

>  <Peripheral>  (372) 
nan

>  <Num_H_Atoms_ProtBoundConf>  (372) 
nan

>  <Num_Resolved_Atoms>  (372) 
nan

>  <Num_Not_Resolved_Atoms>  (372) 
nan

$$$$
CHEMBL3668373
     RDKit          3D

  0  0  0  0  0  0  0  0  0  0999 V3000
M  V30 BEGIN CTAB
M  V30 COUNTS 47 50 0 0 0
M  V30 BEGIN ATOM
M  V30 1 C 3.563857 -4.056457 -0.773144 0
M  V30 2 O 3.195079 -2.707426 -0.843662 0
M  V30 3 C 2.505108 -2.124809 -1.876803 0
M  V30 4 C 2.147477 -2.949712 -2.935416 0
M  V30 5 C 1.452927 -2.464688 -4.022510 0
M  V30 6 C 1.105883 -1.122493 -4.055143 0
M  V30 7 F 0.418513 -0.571219 -5.097921 0
M  V30 8 C 1.439844 -0.264081 -3.025696 0
M  V30 9 C 2.133595 -0.780720 -1.954785 0
M  V30 10 C 2.573927 -0.024266 -0.771680 0
M  V30 11 C 3.821229 0.604119 -0.728274 0
M  V30 12 C 4.248930 1.317255 0.373735 0
M  V30 13 N 3.407248 1.389384 1.428295 0
M  V30 14 C 2.195044 0.795717 1.423325 0
M  V30 15 N 1.222849 0.749161 2.357689 0
M  V30 16 C 0.193139 0.019597 1.861358 0
M  V30 17 C -1.025017 -0.228819 2.616824 0
M  V30 18 C -1.151854 0.267936 3.836932 0
M  V30 19 C -2.454953 -0.051786 4.527051 0
M  V30 20 N -3.459515 0.318774 3.514711 0
M  V30 21 C -4.472346 1.345980 3.566971 0
M  V30 22 C -4.676602 2.256594 4.732309 0
M  V30 23 O -5.328765 1.642896 2.672725 0
M  V30 24 C -3.495255 -0.409955 2.260775 0
M  V30 25 C -2.137438 -1.030440 2.052318 0
M  V30 26 C 0.478995 -0.424318 0.587018 0
M  V30 27 C 1.739763 0.074945 0.334032 0
M  V30 28 H 4.547496 -4.134582 -1.301173 0
M  V30 29 H 3.763668 -4.330864 0.291850 0
M  V30 30 H 2.812158 -4.769763 -1.129060 0
M  V30 31 H 2.379827 -4.003984 -2.985821 0
M  V30 32 H 1.159573 -3.079525 -4.862158 0
M  V30 33 H 1.209062 0.789624 -2.972586 0
M  V30 34 H 4.444050 0.495987 -1.628254 0
M  V30 35 H 5.218849 1.789262 0.371180 0
M  V30 36 H 1.318776 1.222729 3.289922 0
M  V30 37 H -0.407027 0.855461 4.326534 0
M  V30 38 H -2.544238 -1.110029 4.777735 0
M  V30 39 H -2.552310 0.609198 5.412145 0
M  V30 40 H -4.678293 3.312622 4.395278 0
M  V30 41 H -5.640615 1.943738 5.202328 0
M  V30 42 H -3.824872 2.202780 5.462667 0
M  V30 43 H -3.710883 0.234837 1.386544 0
M  V30 44 H -4.286571 -1.192087 2.391247 0
M  V30 45 H -2.143312 -1.986783 2.653309 0
M  V30 46 H -1.956690 -1.341237 1.018064 0
M  V30 47 H -0.160226 -1.022826 -0.039191 0
M  V30 END ATOM
M  V30 BEGIN BOND
M  V30 1 1 1 2
M  V30 2 1 2 3
M  V30 3 2 3 4
M  V30 4 1 4 5
M  V30 5 2 5 6
M  V30 6 1 6 7
M  V30 7 1 6 8
M  V30 8 2 8 9
M  V30 9 1 9 10
M  V30 10 2 10 11
M  V30 11 1 11 12
M  V30 12 2 12 13
M  V30 13 1 13 14
M  V30 14 1 14 15
M  V30 15 1 15 16
M  V30 16 1 16 17
M  V30 17 2 17 18
M  V30 18 1 18 19
M  V30 19 1 19 20
M  V30 20 1 20 21
M  V30 21 1 21 22
M  V30 22 2 21 23
M  V30 23 1 20 24
M  V30 24 1 24 25
M  V30 25 2 16 26
M  V30 26 1 26 27
M  V30 27 1 9 3
M  V30 28 1 27 10
M  V30 29 2 27 14
M  V30 30 1 25 17
M  V30 31 1 1 28
M  V30 32 1 1 29
M  V30 33 1 1 30
M  V30 34 1 4 31
M  V30 35 1 5 32
M  V30 36 1 8 33
M  V30 37 1 11 34
M  V30 38 1 12 35
M  V30 39 1 15 36
M  V30 40 1 18 37
M  V30 41 1 19 38
M  V30 42 1 19 39
M  V30 43 1 22 40
M  V30 44 1 22 41
M  V30 45 1 22 42
M  V30 46 1 24 43
M  V30 47 1 24 44
M  V30 48 1 25 45
M  V30 49 1 25 46
M  V30 50 1 26 47
M  V30 END BOND
M  V30 END CTAB
M  END
>  <Dataset>  (373) 
ChEMBL_Kinases

>  <Ligand_Instance>  (373) 
nan

>  <PDB_ID>  (373) 
nan

>  <Standardized_SMILES>  (373) 
COc1ccc(F)cc1-c1ccnc2[nH]c(C3=CCN(C(C)=O)CC3)cc12

>  <Name>  (373) 
nan

>  <Pocket>  (373) 
nan

>  <ATP_Site>  (373) 
nan

>  <Peripheral>  (373) 
nan

>  <Num_H_Atoms_ProtBoundConf>  (373) 
nan

>  <Num_Resolved_Atoms>  (373) 
nan

>  <Num_Not_Resolved_Atoms>  (373) 
nan

$$$$
CHEMBL3668374
     RDKit          3D

  0  0  0  0  0  0  0  0  0  0999 V3000
M  V30 BEGIN CTAB
M  V30 COUNTS 48 51 0 0 0
M  V30 BEGIN ATOM
M  V30 1 C 0.649382 -0.620069 -4.547034 0
M  V30 2 O 1.168540 -0.046721 -3.364280 0
M  V30 3 C 2.139818 -0.711284 -2.633798 0
M  V30 4 C 2.680500 -1.939366 -2.959377 0
M  V30 5 C 3.648088 -2.553544 -2.190826 0
M  V30 6 C 4.099588 -1.919941 -1.047030 0
M  V30 7 F 5.059402 -2.569025 -0.318654 0
M  V30 8 C 3.587794 -0.691234 -0.682329 0
M  V30 9 C 2.610783 -0.094073 -1.477991 0
M  V30 10 C 2.152542 1.202253 -0.984080 0
M  V30 11 C 2.691230 2.427381 -1.303635 0
M  V30 12 C 2.150059 3.569563 -0.757254 0
M  V30 13 N 1.089308 3.551632 0.099397 0
M  V30 14 C 0.522161 2.362409 0.445392 0
M  V30 15 N -0.505036 2.013260 1.243438 0
M  V30 16 C -0.675132 0.679011 1.254362 0
M  V30 17 C -1.681610 -0.073042 1.997392 0
M  V30 18 C -2.519912 0.630820 2.742599 0
M  V30 19 C -3.590821 -0.065404 3.543078 0
M  V30 20 N -3.038394 -1.388961 3.788700 0
M  V30 21 C -2.733939 -1.884802 5.088219 0
M  V30 22 O -2.970334 -1.104699 6.048303 0
M  V30 23 C -2.180322 -3.236305 5.209221 0
M  V30 24 O -1.953424 -3.528221 6.565838 0
M  V30 25 C -2.810080 -2.197735 2.585966 0
M  V30 26 C -1.663174 -1.550966 1.842103 0
M  V30 27 C 0.319747 0.209361 0.404711 0
M  V30 28 C 1.070861 1.246402 -0.104596 0
M  V30 29 H 0.318963 -1.660089 -4.328854 0
M  V30 30 H -0.169869 0.012478 -4.914789 0
M  V30 31 H 1.432272 -0.665265 -5.313465 0
M  V30 32 H 2.325235 -2.422396 -3.846111 0
M  V30 33 H 4.046054 -3.506036 -2.471904 0
M  V30 34 H 3.996653 -0.279596 0.215114 0
M  V30 35 H 3.527949 2.426521 -1.980773 0
M  V30 36 H 2.587879 4.523348 -1.020949 0
M  V30 37 H -1.044082 2.740590 1.748703 0
M  V30 38 H -2.458154 1.708027 2.794904 0
M  V30 39 H -3.799536 0.476940 4.478946 0
M  V30 40 H -4.495120 -0.118218 2.930169 0
M  V30 41 H -1.201882 -3.366809 4.713878 0
M  V30 42 H -2.875399 -3.985124 4.819359 0
M  V30 43 H -2.389638 -2.898035 7.172000 0
M  V30 44 H -3.705860 -2.089741 1.955949 0
M  V30 45 H -2.650200 -3.245688 2.812176 0
M  V30 46 H -0.728708 -1.933904 2.287680 0
M  V30 47 H -1.724034 -1.748081 0.743375 0
M  V30 48 H 0.433873 -0.852831 0.211481 0
M  V30 END ATOM
M  V30 BEGIN BOND
M  V30 1 1 1 2
M  V30 2 1 2 3
M  V30 3 2 3 4
M  V30 4 1 4 5
M  V30 5 2 5 6
M  V30 6 1 6 7
M  V30 7 1 6 8
M  V30 8 2 8 9
M  V30 9 1 9 10
M  V30 10 2 10 11
M  V30 11 1 11 12
M  V30 12 2 12 13
M  V30 13 1 13 14
M  V30 14 1 14 15
M  V30 15 1 15 16
M  V30 16 1 16 17
M  V30 17 2 17 18
M  V30 18 1 18 19
M  V30 19 1 19 20
M  V30 20 1 20 21
M  V30 21 2 21 22
M  V30 22 1 21 23
M  V30 23 1 23 24
M  V30 24 1 20 25
M  V30 25 1 25 26
M  V30 26 2 16 27
M  V30 27 1 27 28
M  V30 28 1 9 3
M  V30 29 1 28 10
M  V30 30 2 28 14
M  V30 31 1 26 17
M  V30 32 1 1 29
M  V30 33 1 1 30
M  V30 34 1 1 31
M  V30 35 1 4 32
M  V30 36 1 5 33
M  V30 37 1 8 34
M  V30 38 1 11 35
M  V30 39 1 12 36
M  V30 40 1 15 37
M  V30 41 1 18 38
M  V30 42 1 19 39
M  V30 43 1 19 40
M  V30 44 1 23 41
M  V30 45 1 23 42
M  V30 46 1 24 43
M  V30 47 1 25 44
M  V30 48 1 25 45
M  V30 49 1 26 46
M  V30 50 1 26 47
M  V30 51 1 27 48
M  V30 END BOND
M  V30 END CTAB
M  END
>  <Dataset>  (374) 
ChEMBL_Kinases

>  <Ligand_Instance>  (374) 
nan

>  <PDB_ID>  (374) 
nan

>  <Standardized_SMILES>  (374) 
COc1ccc(F)cc1-c1ccnc2[nH]c(C3=CCN(C(=O)CO)CC3)cc12

>  <Name>  (374) 
nan

>  <Pocket>  (374) 
nan

>  <ATP_Site>  (374) 
nan

>  <Peripheral>  (374) 
nan

>  <Num_H_Atoms_ProtBoundConf>  (374) 
nan

>  <Num_Resolved_Atoms>  (374) 
nan

>  <Num_Not_Resolved_Atoms>  (374) 
nan

$$$$
CHEMBL3668375
     RDKit          3D

  0  0  0  0  0  0  0  0  0  0999 V3000
M  V30 BEGIN CTAB
M  V30 COUNTS 57 61 0 0 0
M  V30 BEGIN ATOM
M  V30 1 C 4.056908 1.495089 2.346615 0
M  V30 2 N 4.250115 0.265307 1.663685 0
M  V30 3 C 4.342554 -0.854492 2.529414 0
M  V30 4 C 4.850631 -2.026202 1.751962 0
M  V30 5 C 4.200348 -2.081433 0.367823 0
M  V30 6 C 2.752580 -2.166387 0.534957 0
M  V30 7 C 1.718809 -1.280260 0.529088 0
M  V30 8 C 0.518173 -1.896055 0.771263 0
M  V30 9 C -0.725390 -1.348227 0.831705 0
M  V30 10 C -1.148195 0.014257 0.667479 0
M  V30 11 C -0.509638 1.215450 0.714265 0
M  V30 12 C -1.035948 2.457298 0.569710 0
M  V30 13 C -2.378943 2.544669 0.348963 0
M  V30 14 C -3.089074 1.366122 0.290966 0
M  V30 15 N -4.495398 1.457103 0.068071 0
M  V30 16 C -5.383630 0.347000 0.005164 0
M  V30 17 C -5.178953 -0.609619 -1.075688 0
M  V30 18 C -5.927062 -1.782643 -0.914551 0
M  V30 19 F -6.758161 -2.014129 0.151564 0
M  V30 20 C -5.885492 -2.812205 -1.828574 0
M  V30 21 C -5.105626 -2.759577 -2.963571 0
M  V30 22 C -4.367956 -1.599453 -3.119846 0
M  V30 23 C -4.411321 -0.571410 -2.203720 0
M  V30 24 F -3.706715 0.569472 -2.343846 0
M  V30 25 N -2.470029 0.209307 0.445548 0
M  V30 26 C -1.709813 -2.301338 1.078753 0
M  V30 27 C -1.410037 -3.630300 1.237949 0
M  V30 28 N -0.160132 -4.070067 1.163170 0
M  V30 29 C 0.850204 -3.212938 0.926137 0
M  V30 30 N 2.167535 -3.371789 0.787100 0
M  V30 31 C 4.637246 -0.897621 -0.421947 0
M  V30 32 C 5.032519 0.262598 0.487914 0
M  V30 33 H 3.057687 1.408037 2.872150 0
M  V30 34 H 4.836548 1.777586 3.081842 0
M  V30 35 H 3.878663 2.317931 1.592386 0
M  V30 36 H 3.332386 -1.045728 2.989847 0
M  V30 37 H 5.059642 -0.618129 3.345315 0
M  V30 38 H 5.955805 -2.001214 1.671900 0
M  V30 39 H 4.614500 -2.990791 2.261729 0
M  V30 40 H 4.602534 -3.044425 -0.059329 0
M  V30 41 H 1.932758 -0.266723 0.324246 0
M  V30 42 H 0.528646 1.185618 0.915398 0
M  V30 43 H -0.440923 3.341685 0.622133 0
M  V30 44 H -2.889991 3.487352 0.222081 0
M  V30 45 H -4.948582 2.412583 -0.066122 0
M  V30 46 H -6.445582 0.657197 -0.029398 0
M  V30 47 H -5.308694 -0.228927 0.976177 0
M  V30 48 H -6.465137 -3.728192 -1.707475 0
M  V30 49 H -5.080768 -3.557964 -3.660580 0
M  V30 50 H -3.733129 -1.489756 -3.993400 0
M  V30 51 H -2.749204 -2.049926 1.157961 0
M  V30 52 H -2.186894 -4.352172 1.428669 0
M  V30 53 H 2.616782 -4.328707 0.873275 0
M  V30 54 H 3.866575 -0.595033 -1.159707 0
M  V30 55 H 5.585222 -1.212899 -0.948196 0
M  V30 56 H 4.794287 1.192615 -0.083630 0
M  V30 57 H 6.128770 0.298703 0.666296 0
M  V30 END ATOM
M  V30 BEGIN BOND
M  V30 1 1 1 2
M  V30 2 1 2 3
M  V30 3 1 3 4
M  V30 4 1 4 5
M  V30 5 1 5 6
M  V30 6 2 6 7
M  V30 7 1 7 8
M  V30 8 2 8 9
M  V30 9 1 9 10
M  V30 10 2 10 11
M  V30 11 1 11 12
M  V30 12 2 12 13
M  V30 13 1 13 14
M  V30 14 1 14 15
M  V30 15 1 15 16
M  V30 16 1 16 17
M  V30 17 2 17 18
M  V30 18 1 18 19
M  V30 19 1 18 20
M  V30 20 2 20 21
M  V30 21 1 21 22
M  V30 22 2 22 23
M  V30 23 1 23 24
M  V30 24 2 14 25
M  V30 25 1 9 26
M  V30 26 2 26 27
M  V30 27 1 27 28
M  V30 28 2 28 29
M  V30 29 1 29 30
M  V30 30 1 5 31
M  V30 31 1 31 32
M  V30 32 1 32 2
M  V30 33 1 30 6
M  V30 34 1 29 8
M  V30 35 1 25 10
M  V30 36 1 23 17
M  V30 37 1 1 33
M  V30 38 1 1 34
M  V30 39 1 1 35
M  V30 40 1 3 36
M  V30 41 1 3 37
M  V30 42 1 4 38
M  V30 43 1 4 39
M  V30 44 1 5 40
M  V30 45 1 7 41
M  V30 46 1 11 42
M  V30 47 1 12 43
M  V30 48 1 13 44
M  V30 49 1 15 45
M  V30 50 1 16 46
M  V30 51 1 16 47
M  V30 52 1 20 48
M  V30 53 1 21 49
M  V30 54 1 22 50
M  V30 55 1 26 51
M  V30 56 1 27 52
M  V30 57 1 30 53
M  V30 58 1 31 54
M  V30 59 1 31 55
M  V30 60 1 32 56
M  V30 61 1 32 57
M  V30 END BOND
M  V30 END CTAB
M  END
>  <Dataset>  (375) 
ChEMBL_Kinases

>  <Ligand_Instance>  (375) 
nan

>  <PDB_ID>  (375) 
nan

>  <Standardized_SMILES>  (375) 
CN1CCC(c2cc3c(-c4cccc(NCc5c(F)cccc5F)n4)ccnc3[nH]2)CC1

>  <Name>  (375) 
nan

>  <Pocket>  (375) 
nan

>  <ATP_Site>  (375) 
nan

>  <Peripheral>  (375) 
nan

>  <Num_H_Atoms_ProtBoundConf>  (375) 
nan

>  <Num_Resolved_Atoms>  (375) 
nan

>  <Num_Not_Resolved_Atoms>  (375) 
nan

$$$$
CHEMBL3668376
     RDKit          3D

  0  0  0  0  0  0  0  0  0  0999 V3000
M  V30 BEGIN CTAB
M  V30 COUNTS 44 47 0 0 0
M  V30 BEGIN ATOM
M  V30 1 C -1.099040 -4.080320 -0.266938 0
M  V30 2 O -0.516245 -2.891389 -0.769681 0
M  V30 3 C 0.847821 -2.830047 -1.021505 0
M  V30 4 C 1.651446 -3.940894 -0.780064 0
M  V30 5 C 2.995122 -3.857440 -1.035952 0
M  V30 6 C 3.623998 -2.730796 -1.525330 0
M  V30 7 F 4.958224 -2.665274 -1.773519 0
M  V30 8 C 2.827609 -1.612298 -1.770595 0
M  V30 9 C 1.473753 -1.680477 -1.518175 0
M  V30 10 C 0.538788 -0.552581 -1.743162 0
M  V30 11 C -0.118779 -0.347807 -2.938700 0
M  V30 12 C -0.965640 0.745507 -3.016091 0
M  V30 13 N -1.153970 1.585892 -1.980543 0
M  V30 14 C -0.525481 1.406250 -0.809534 0
M  V30 15 N -0.519205 2.071738 0.378352 0
M  V30 16 C 0.315551 1.446818 1.252708 0
M  V30 17 C 0.529815 1.944971 2.637954 0
M  V30 18 C 0.961386 0.796778 3.534534 0
M  V30 19 C -0.318870 -0.014153 3.602598 0
M  V30 20 C -1.400670 0.983460 3.275780 0
M  V30 21 N -0.750722 2.297185 3.253915 0
M  V30 22 C -0.510376 2.656004 4.631054 0
M  V30 23 C 0.845179 0.356644 0.584735 0
M  V30 24 C 0.323295 0.330483 -0.696683 0
M  V30 25 H -0.829960 -4.172406 0.824783 0
M  V30 26 H -2.202596 -4.004935 -0.301974 0
M  V30 27 H -0.740290 -4.993993 -0.787236 0
M  V30 28 H 1.258351 -4.868345 -0.398301 0
M  V30 29 H 3.612995 -4.724713 -0.845830 0
M  V30 30 H 3.220870 -0.678950 -2.154380 0
M  V30 31 H 0.061493 -1.046971 -3.744407 0
M  V30 32 H -1.493830 0.925957 -3.948271 0
M  V30 33 H -1.099704 2.914916 0.490537 0
M  V30 34 H 1.232815 2.799719 2.664950 0
M  V30 35 H 1.744376 0.171113 3.060424 0
M  V30 36 H 1.239686 1.162653 4.526200 0
M  V30 37 H -0.454144 -0.481110 4.599130 0
M  V30 38 H -0.280311 -0.786365 2.800550 0
M  V30 39 H -2.166088 0.980886 4.068405 0
M  V30 40 H -1.892298 0.733592 2.329553 0
M  V30 41 H 0.463585 3.152458 4.783867 0
M  V30 42 H -0.541952 1.768100 5.320091 0
M  V30 43 H -1.285346 3.363542 5.026372 0
M  V30 44 H 1.537246 -0.304223 1.057967 0
M  V30 END ATOM
M  V30 BEGIN BOND
M  V30 1 1 1 2
M  V30 2 1 2 3
M  V30 3 2 3 4
M  V30 4 1 4 5
M  V30 5 2 5 6
M  V30 6 1 6 7
M  V30 7 1 6 8
M  V30 8 2 8 9
M  V30 9 1 9 10
M  V30 10 2 10 11
M  V30 11 1 11 12
M  V30 12 2 12 13
M  V30 13 1 13 14
M  V30 14 1 14 15
M  V30 15 1 15 16
M  V30 16 1 16 17
M  V30 17 1 17 18
M  V30 18 1 18 19
M  V30 19 1 19 20
M  V30 20 1 20 21
M  V30 21 1 21 22
M  V30 22 2 16 23
M  V30 23 1 23 24
M  V30 24 1 9 3
M  V30 25 1 24 10
M  V30 26 2 24 14
M  V30 27 1 21 17
M  V30 28 1 1 25
M  V30 29 1 1 26
M  V30 30 1 1 27
M  V30 31 1 4 28
M  V30 32 1 5 29
M  V30 33 1 8 30
M  V30 34 1 11 31
M  V30 35 1 12 32
M  V30 36 1 15 33
M  V30 37 1 17 34
M  V30 38 1 18 35
M  V30 39 1 18 36
M  V30 40 1 19 37
M  V30 41 1 19 38
M  V30 42 1 20 39
M  V30 43 1 20 40
M  V30 44 1 22 41
M  V30 45 1 22 42
M  V30 46 1 22 43
M  V30 47 1 23 44
M  V30 END BOND
M  V30 END CTAB
M  END
>  <Dataset>  (376) 
ChEMBL_Kinases

>  <Ligand_Instance>  (376) 
nan

>  <PDB_ID>  (376) 
nan

>  <Standardized_SMILES>  (376) 
COc1ccc(F)cc1-c1ccnc2[nH]c(C3CCCN3C)cc12

>  <Name>  (376) 
nan

>  <Pocket>  (376) 
nan

>  <ATP_Site>  (376) 
nan

>  <Peripheral>  (376) 
nan

>  <Num_H_Atoms_ProtBoundConf>  (376) 
nan

>  <Num_Resolved_Atoms>  (376) 
nan

>  <Num_Not_Resolved_Atoms>  (376) 
nan

$$$$
CHEMBL3668377
     RDKit          3D

  0  0  0  0  0  0  0  0  0  0999 V3000
M  V30 BEGIN CTAB
M  V30 COUNTS 60 64 0 0 0
M  V30 BEGIN ATOM
M  V30 1 C 0.112440 -2.901468 -0.278228 0
M  V30 2 C 0.078382 -3.668692 1.043670 0 CFG=2
M  V30 3 N 0.377333 -2.834802 2.179859 0
M  V30 4 C 1.609918 -2.135836 2.315139 0
M  V30 5 C 2.755591 -2.602098 2.924337 0
M  V30 6 C 3.832509 -1.743315 2.934369 0
M  V30 7 C 3.701134 -0.502450 2.349503 0
M  V30 8 C 2.553361 -0.039978 1.741229 0
M  V30 9 C 2.488875 1.290182 1.141443 0
M  V30 10 C 3.517329 2.193499 1.114715 0
M  V30 11 C 3.414421 3.440907 0.537220 0
M  V30 12 N 2.263785 3.805440 -0.029246 0
M  V30 13 C 1.210100 2.956106 -0.034883 0
M  V30 14 N -0.021207 3.129211 -0.546944 0
M  V30 15 C -0.766504 2.035046 -0.336938 0
M  V30 16 C -2.171867 1.768440 -0.720043 0
M  V30 17 C -3.123850 2.739144 -0.017702 0
M  V30 18 C -4.492207 2.152585 -0.167027 0
M  V30 19 N -4.741671 1.416339 -1.334023 0
M  V30 20 C -5.160420 0.063078 -1.056472 0
M  V30 21 C -3.858559 1.504983 -2.427988 0
M  V30 22 C -2.458335 1.936425 -2.172670 0
M  V30 23 C 0.062739 1.161896 0.336020 0
M  V30 24 C 1.314623 1.704748 0.544891 0
M  V30 25 N 1.535403 -0.917687 1.760333 0
M  V30 26 C 0.880659 -4.912263 0.989287 0
M  V30 27 C 1.493357 -5.391592 -0.135437 0
M  V30 28 C 2.235593 -6.574672 -0.115751 0
M  V30 29 C 2.348757 -7.269753 1.068208 0
M  V30 30 C 1.735291 -6.794172 2.204305 0
M  V30 31 C 1.009319 -5.621002 2.148321 0
M  V30 32 H -0.320271 -3.565697 -1.044136 0
M  V30 33 H 1.118253 -2.573915 -0.550067 0
M  V30 34 H -0.602236 -2.065580 -0.138939 0
M  V30 35 H -0.983405 -4.006968 1.126844 0
M  V30 36 H -0.136681 -2.566666 3.052848 0
M  V30 37 H 2.706766 -3.599310 3.339856 0
M  V30 38 H 4.734994 -2.101064 3.410104 0
M  V30 39 H 4.601777 0.091987 2.411587 0
M  V30 40 H 4.455695 1.926728 1.563443 0
M  V30 41 H 4.275384 4.101524 0.556306 0
M  V30 42 H -0.352709 3.997604 -1.041198 0
M  V30 43 H -2.521161 0.760356 -0.407078 0
M  V30 44 H -3.078928 3.678840 -0.609343 0
M  V30 45 H -2.858556 2.880582 1.049422 0
M  V30 46 H -4.644019 1.475810 0.723519 0
M  V30 47 H -5.245275 2.959979 -0.051722 0
M  V30 48 H -4.309482 -0.631718 -1.197328 0
M  V30 49 H -5.411280 0.017157 0.029044 0
M  V30 50 H -6.042112 -0.259965 -1.641750 0
M  V30 51 H -4.321809 2.206968 -3.179056 0
M  V30 52 H -3.822250 0.521050 -2.941911 0
M  V30 53 H -2.384951 3.043871 -2.379084 0
M  V30 54 H -1.746103 1.400762 -2.833674 0
M  V30 55 H -0.249667 0.176661 0.652422 0
M  V30 56 H 1.399629 -4.842053 -1.055995 0
M  V30 57 H 2.726010 -6.971543 -0.985695 0
M  V30 58 H 2.898394 -8.200516 1.208174 0
M  V30 59 H 1.798402 -7.314027 3.167917 0
M  V30 60 H 0.535968 -5.274072 3.070863 0
M  V30 END ATOM
M  V30 BEGIN BOND
M  V30 1 1 1 2
M  V30 2 1 2 3
M  V30 3 1 3 4
M  V30 4 2 4 5
M  V30 5 1 5 6
M  V30 6 2 6 7
M  V30 7 1 7 8
M  V30 8 1 8 9
M  V30 9 2 9 10
M  V30 10 1 10 11
M  V30 11 2 11 12
M  V30 12 1 12 13
M  V30 13 1 13 14
M  V30 14 1 14 15
M  V30 15 1 15 16
M  V30 16 1 16 17
M  V30 17 1 17 18
M  V30 18 1 18 19
M  V30 19 1 19 20
M  V30 20 1 19 21
M  V30 21 1 21 22
M  V30 22 2 15 23
M  V30 23 1 23 24
M  V30 24 2 8 25
M  V30 25 1 2 26
M  V30 26 2 26 27
M  V30 27 1 27 28
M  V30 28 2 28 29
M  V30 29 1 29 30
M  V30 30 2 30 31
M  V30 31 1 25 4
M  V30 32 1 31 26
M  V30 33 1 24 9
M  V30 34 2 24 13
M  V30 35 1 22 16
M  V30 36 1 1 32
M  V30 37 1 1 33
M  V30 38 1 1 34
M  V30 39 1 2 35 CFG=1
M  V30 40 1 3 36
M  V30 41 1 5 37
M  V30 42 1 6 38
M  V30 43 1 7 39
M  V30 44 1 10 40
M  V30 45 1 11 41
M  V30 46 1 14 42
M  V30 47 1 16 43
M  V30 48 1 17 44
M  V30 49 1 17 45
M  V30 50 1 18 46
M  V30 51 1 18 47
M  V30 52 1 20 48
M  V30 53 1 20 49
M  V30 54 1 20 50
M  V30 55 1 21 51
M  V30 56 1 21 52
M  V30 57 1 22 53
M  V30 58 1 22 54
M  V30 59 1 23 55
M  V30 60 1 27 56
M  V30 61 1 28 57
M  V30 62 1 29 58
M  V30 63 1 30 59
M  V30 64 1 31 60
M  V30 END BOND
M  V30 END CTAB
M  END
>  <Dataset>  (377) 
ChEMBL_Kinases

>  <Ligand_Instance>  (377) 
nan

>  <PDB_ID>  (377) 
nan

>  <Standardized_SMILES>  (377) 
C[C@H](Nc1cccc(-c2ccnc3[nH]c(C4CCN(C)CC4)cc23)n1)c1ccccc1

>  <Name>  (377) 
nan

>  <Pocket>  (377) 
nan

>  <ATP_Site>  (377) 
nan

>  <Peripheral>  (377) 
nan

>  <Num_H_Atoms_ProtBoundConf>  (377) 
nan

>  <Num_Resolved_Atoms>  (377) 
nan

>  <Num_Not_Resolved_Atoms>  (377) 
nan

$$$$
CHEMBL3668378
     RDKit          3D

  0  0  0  0  0  0  0  0  0  0999 V3000
M  V30 BEGIN CTAB
M  V30 COUNTS 60 65 0 0 0
M  V30 BEGIN ATOM
M  V30 1 C 5.010132 1.087339 5.144650 0
M  V30 2 N 5.271693 -0.064580 4.270219 0
M  V30 3 C 4.792073 0.240170 2.936719 0
M  V30 4 C 4.958550 -0.945549 2.043392 0
M  V30 5 C 4.107247 -2.080131 2.503117 0
M  V30 6 C 2.920644 -2.243204 1.605293 0
M  V30 7 C 1.919428 -1.331868 1.364586 0
M  V30 8 C 1.019557 -1.866860 0.480897 0
M  V30 9 C -0.129554 -1.308822 -0.012659 0
M  V30 10 C -0.722800 -0.022548 0.246768 0
M  V30 11 C -0.173255 1.155507 0.660046 0
M  V30 12 C -0.798471 2.346108 0.840030 0
M  V30 13 C -2.145782 2.385191 0.577597 0
M  V30 14 C -2.771781 1.208112 0.148288 0
M  V30 15 N -4.184122 1.280027 -0.109303 0
M  V30 16 C -5.197701 0.366415 -0.519370 0
M  V30 17 C -5.017446 -0.246517 -1.845250 0
M  V30 18 C -5.501441 0.475371 -2.916339 0
M  V30 19 C -5.422828 0.030089 -4.234623 0
M  V30 20 C -4.833991 -1.195060 -4.505350 0
M  V30 21 C -4.345930 -1.927091 -3.442530 0
M  V30 22 C -4.439166 -1.458123 -2.149631 0
M  V30 23 O -3.814174 -3.090656 -3.944852 0
M  V30 24 C -4.357081 -3.267493 -5.254874 0
M  V30 25 O -4.595993 -1.925655 -5.681478 0
M  V30 26 N -2.048255 0.090429 0.006941 0
M  V30 27 C -0.808212 -2.176235 -0.876031 0
M  V30 28 C -0.379191 -3.438419 -1.197922 0
M  V30 29 N 0.771265 -3.883321 -0.651574 0
M  V30 30 C 1.495856 -3.121827 0.193224 0
M  V30 31 N 2.634243 -3.339856 0.869333 0
M  V30 32 C 3.573478 -1.791700 3.889479 0
M  V30 33 C 4.650971 -1.259802 4.805588 0
M  V30 34 H 4.666288 0.654194 6.126984 0
M  V30 35 H 5.942882 1.665739 5.288288 0
M  V30 36 H 4.185471 1.684061 4.684612 0
M  V30 37 H 5.435357 1.095240 2.587964 0
M  V30 38 H 3.755459 0.605600 3.036321 0
M  V30 39 H 6.039801 -1.250838 2.133123 0
M  V30 40 H 4.804357 -0.680375 0.977422 0
M  V30 41 H 4.692153 -3.013296 2.467175 0
M  V30 42 H 1.932276 -0.401746 1.852203 0
M  V30 43 H 0.876352 1.173931 0.841298 0
M  V30 44 H -0.295015 3.230244 1.169292 0
M  V30 45 H -2.676186 3.334620 0.715098 0
M  V30 46 H -4.623237 2.244817 0.027237 0
M  V30 47 H -5.193367 -0.511520 0.207820 0
M  V30 48 H -6.200229 0.787142 -0.485550 0
M  V30 49 H -5.976245 1.439490 -2.802487 0
M  V30 50 H -5.821062 0.634979 -5.060355 0
M  V30 51 H -4.077003 -1.990665 -1.257513 0
M  V30 52 H -3.658758 -3.807119 -5.916322 0
M  V30 53 H -5.301257 -3.853286 -5.164321 0
M  V30 54 H -1.714659 -1.865464 -1.332179 0
M  V30 55 H -0.941791 -4.066624 -1.871160 0
M  V30 56 H 3.187040 -4.227739 0.813434 0
M  V30 57 H 3.224389 -2.753678 4.313229 0
M  V30 58 H 2.730207 -1.092100 3.879155 0
M  V30 59 H 4.158441 -0.987927 5.760914 0
M  V30 60 H 5.367047 -2.072086 5.028805 0
M  V30 END ATOM
M  V30 BEGIN BOND
M  V30 1 1 1 2
M  V30 2 1 2 3
M  V30 3 1 3 4
M  V30 4 1 4 5
M  V30 5 1 5 6
M  V30 6 2 6 7
M  V30 7 1 7 8
M  V30 8 2 8 9
M  V30 9 1 9 10
M  V30 10 2 10 11
M  V30 11 1 11 12
M  V30 12 2 12 13
M  V30 13 1 13 14
M  V30 14 1 14 15
M  V30 15 1 15 16
M  V30 16 1 16 17
M  V30 17 2 17 18
M  V30 18 1 18 19
M  V30 19 2 19 20
M  V30 20 1 20 21
M  V30 21 2 21 22
M  V30 22 1 21 23
M  V30 23 1 23 24
M  V30 24 1 24 25
M  V30 25 2 14 26
M  V30 26 1 9 27
M  V30 27 2 27 28
M  V30 28 1 28 29
M  V30 29 2 29 30
M  V30 30 1 30 31
M  V30 31 1 5 32
M  V30 32 1 32 33
M  V30 33 1 33 2
M  V30 34 1 31 6
M  V30 35 1 30 8
M  V30 36 1 26 10
M  V30 37 1 22 17
M  V30 38 1 25 20
M  V30 39 1 1 34
M  V30 40 1 1 35
M  V30 41 1 1 36
M  V30 42 1 3 37
M  V30 43 1 3 38
M  V30 44 1 4 39
M  V30 45 1 4 40
M  V30 46 1 5 41
M  V30 47 1 7 42
M  V30 48 1 11 43
M  V30 49 1 12 44
M  V30 50 1 13 45
M  V30 51 1 15 46
M  V30 52 1 16 47
M  V30 53 1 16 48
M  V30 54 1 18 49
M  V30 55 1 19 50
M  V30 56 1 22 51
M  V30 57 1 24 52
M  V30 58 1 24 53
M  V30 59 1 27 54
M  V30 60 1 28 55
M  V30 61 1 31 56
M  V30 62 1 32 57
M  V30 63 1 32 58
M  V30 64 1 33 59
M  V30 65 1 33 60
M  V30 END BOND
M  V30 END CTAB
M  END
>  <Dataset>  (378) 
ChEMBL_Kinases

>  <Ligand_Instance>  (378) 
nan

>  <PDB_ID>  (378) 
nan

>  <Standardized_SMILES>  (378) 
CN1CCC(c2cc3c(-c4cccc(NCc5ccc6c(c5)OCO6)n4)ccnc3[nH]2)CC1

>  <Name>  (378) 
nan

>  <Pocket>  (378) 
nan

>  <ATP_Site>  (378) 
nan

>  <Peripheral>  (378) 
nan

>  <Num_H_Atoms_ProtBoundConf>  (378) 
nan

>  <Num_Resolved_Atoms>  (378) 
nan

>  <Num_Not_Resolved_Atoms>  (378) 
nan

$$$$
CHEMBL3668370
     RDKit          3D

  0  0  0  0  0  0  0  0  0  0999 V3000
M  V30 BEGIN CTAB
M  V30 COUNTS 57 61 0 0 0
M  V30 BEGIN ATOM
M  V30 1 C -1.629429 -0.783391 4.794585 0
M  V30 2 N -0.452860 -1.409893 4.283468 0
M  V30 3 C -0.847252 -2.486357 3.399398 0
M  V30 4 C 0.261056 -3.085354 2.635747 0
M  V30 5 C 1.585781 -2.445440 2.645134 0
M  V30 6 C 2.126609 -2.244013 1.250850 0
M  V30 7 C 1.709204 -1.345613 0.285404 0
M  V30 8 C 2.446680 -1.460515 -0.874440 0
M  V30 9 C 2.382224 -0.773736 -2.070331 0
M  V30 10 C 1.446415 0.303736 -2.347550 0
M  V30 11 C 1.630950 1.040229 -3.496364 0
M  V30 12 C 0.810107 2.119317 -3.843645 0
M  V30 13 C -0.207815 2.408924 -2.960721 0
M  V30 14 C -0.404849 1.676472 -1.802841 0
M  V30 15 N -1.466336 2.063905 -0.955035 0
M  V30 16 C -2.046127 1.451566 0.213159 0
M  V30 17 C -2.790542 0.189909 -0.143456 0
M  V30 18 C -2.374070 -1.105890 -0.177380 0
M  V30 19 C -3.249208 -2.112056 -0.548442 0
M  V30 20 C -4.565817 -1.851380 -0.896192 0
M  V30 21 C -5.009533 -0.564025 -0.870622 0
M  V30 22 Cl -6.674050 -0.238294 -1.308509 0
M  V30 23 C -4.125181 0.420879 -0.499744 0
M  V30 24 N 0.427565 0.658779 -1.546468 0
M  V30 25 C 3.327591 -1.197802 -2.994071 0
M  V30 26 C 4.236890 -2.199558 -2.748731 0
M  V30 27 N 4.231169 -2.824121 -1.543573 0
M  V30 28 C 3.348337 -2.467267 -0.604253 0
M  V30 29 N 3.142738 -2.908820 0.640134 0
M  V30 30 C 1.747688 -1.211526 3.480382 0
M  V30 31 C 0.429591 -0.495548 3.571494 0
M  V30 32 H -2.489336 -0.775895 4.109284 0
M  V30 33 H -1.895129 -1.255699 5.758497 0
M  V30 34 H -1.401941 0.299088 5.046163 0
M  V30 35 H -1.669466 -2.153437 2.703498 0
M  V30 36 H -1.334284 -3.262227 4.025595 0
M  V30 37 H -0.060766 -3.195264 1.548239 0
M  V30 38 H 0.374080 -4.175752 2.942255 0
M  V30 39 H 2.323447 -3.204135 3.084568 0
M  V30 40 H 0.913414 -0.625140 0.393681 0
M  V30 41 H 2.398160 0.901229 -4.255967 0
M  V30 42 H 0.923916 2.720764 -4.733715 0
M  V30 43 H -0.864342 3.249944 -3.209483 0
M  V30 44 H -1.971753 2.975850 -1.172026 0
M  V30 45 H -2.750763 2.090351 0.770867 0
M  V30 46 H -1.201549 1.197138 0.918570 0
M  V30 47 H -1.349860 -1.226334 0.105567 0
M  V30 48 H -2.756597 -3.082540 -0.521396 0
M  V30 49 H -5.157701 -2.725991 -1.171189 0
M  V30 50 H -4.569038 1.425591 -0.507663 0
M  V30 51 H 3.410747 -0.765772 -3.977138 0
M  V30 52 H 4.964097 -2.517988 -3.476333 0
M  V30 53 H 3.683332 -3.668485 1.097251 0
M  V30 54 H 2.545823 -0.570138 3.034106 0
M  V30 55 H 2.012342 -1.511812 4.516141 0
M  V30 56 H 0.033339 -0.241075 2.569340 0
M  V30 57 H 0.504315 0.460863 4.124993 0
M  V30 END ATOM
M  V30 BEGIN BOND
M  V30 1 1 1 2
M  V30 2 1 2 3
M  V30 3 1 3 4
M  V30 4 1 4 5
M  V30 5 1 5 6
M  V30 6 2 6 7
M  V30 7 1 7 8
M  V30 8 2 8 9
M  V30 9 1 9 10
M  V30 10 2 10 11
M  V30 11 1 11 12
M  V30 12 2 12 13
M  V30 13 1 13 14
M  V30 14 1 14 15
M  V30 15 1 15 16
M  V30 16 1 16 17
M  V30 17 2 17 18
M  V30 18 1 18 19
M  V30 19 2 19 20
M  V30 20 1 20 21
M  V30 21 1 21 22
M  V30 22 2 21 23
M  V30 23 2 14 24
M  V30 24 1 9 25
M  V30 25 2 25 26
M  V30 26 1 26 27
M  V30 27 2 27 28
M  V30 28 1 28 29
M  V30 29 1 5 30
M  V30 30 1 30 31
M  V30 31 1 31 2
M  V30 32 1 29 6
M  V30 33 1 28 8
M  V30 34 1 24 10
M  V30 35 1 23 17
M  V30 36 1 1 32
M  V30 37 1 1 33
M  V30 38 1 1 34
M  V30 39 1 3 35
M  V30 40 1 3 36
M  V30 41 1 4 37
M  V30 42 1 4 38
M  V30 43 1 5 39
M  V30 44 1 7 40
M  V30 45 1 11 41
M  V30 46 1 12 42
M  V30 47 1 13 43
M  V30 48 1 15 44
M  V30 49 1 16 45
M  V30 50 1 16 46
M  V30 51 1 18 47
M  V30 52 1 19 48
M  V30 53 1 20 49
M  V30 54 1 23 50
M  V30 55 1 25 51
M  V30 56 1 26 52
M  V30 57 1 29 53
M  V30 58 1 30 54
M  V30 59 1 30 55
M  V30 60 1 31 56
M  V30 61 1 31 57
M  V30 END BOND
M  V30 END CTAB
M  END
>  <Dataset>  (379) 
ChEMBL_Kinases

>  <Ligand_Instance>  (379) 
nan

>  <PDB_ID>  (379) 
nan

>  <Standardized_SMILES>  (379) 
CN1CCC(c2cc3c(-c4cccc(NCc5cccc(Cl)c5)n4)ccnc3[nH]2)CC1

>  <Name>  (379) 
nan

>  <Pocket>  (379) 
nan

>  <ATP_Site>  (379) 
nan

>  <Peripheral>  (379) 
nan

>  <Num_H_Atoms_ProtBoundConf>  (379) 
nan

>  <Num_Resolved_Atoms>  (379) 
nan

>  <Num_Not_Resolved_Atoms>  (379) 
nan

$$$$
CHEMBL3654524
     RDKit          3D

  0  0  0  0  0  0  0  0  0  0999 V3000
M  V30 BEGIN CTAB
M  V30 COUNTS 70 75 0 0 0
M  V30 BEGIN ATOM
M  V30 1 C 2.604411 2.309452 1.533505 0
M  V30 2 O 1.259996 1.980152 1.691461 0
M  V30 3 C 0.590921 2.360324 2.832160 0
M  V30 4 C 1.200157 3.059306 3.839799 0
M  V30 5 C 0.559357 3.449982 4.994142 0
M  V30 6 C -0.774218 3.114372 5.138242 0
M  V30 7 C -1.369852 2.406399 4.103663 0
M  V30 8 F -2.679822 2.101511 4.296313 0
M  V30 9 C -0.743465 1.996325 2.918256 0
M  V30 10 C -1.574195 1.290540 1.940552 0
M  V30 11 N -2.164635 2.021551 0.906920 0
M  V30 12 C -1.442215 2.760359 -0.027015 0
M  V30 13 C -1.005132 2.007261 -1.254651 0 CFG=2
M  V30 14 C -0.427583 2.998300 -2.232153 0
M  V30 15 C -2.094990 1.186480 -1.864526 0
M  V30 16 C -3.060537 0.604106 -0.903663 0 CFG=1
M  V30 17 N -2.705385 -0.754111 -0.503881 0
M  V30 18 C -3.522656 -1.906050 -0.342114 0
M  V30 19 O -4.733432 -1.781919 -0.558525 0
M  V30 20 C -2.937088 -3.174188 0.066201 0
M  V30 21 C -3.852517 -4.160090 0.428767 0
M  V30 22 C -3.332498 -5.388531 0.815039 0
M  V30 23 C -1.979683 -5.682712 0.858772 0
M  V30 24 N -1.245965 -6.758789 1.186362 0
M  V30 25 N 0.052932 -6.460890 1.034427 0
M  V30 26 C 0.159766 -5.182425 0.605154 0
M  V30 27 C 1.443896 -4.538996 0.329892 0
M  V30 28 C 2.607903 -4.491310 1.065092 0
M  V30 29 C 3.690195 -3.820451 0.544389 0
M  V30 30 C 3.662815 -3.192225 -0.682404 0
M  V30 31 N 4.585039 -2.494873 -1.370336 0
M  V30 32 N 4.050568 -2.100163 -2.510889 0
M  V30 33 C 4.606701 -1.324533 -3.613239 0
M  V30 34 C 2.777488 -2.523497 -2.599477 0
M  V30 35 C 2.494975 -3.230284 -1.438520 0
M  V30 36 C 1.402476 -3.905535 -0.917209 0
M  V30 37 C -1.111004 -4.663035 0.485996 0
M  V30 38 C -1.585426 -3.436098 0.099178 0
M  V30 39 C -3.313846 1.426314 0.341035 0
M  V30 40 H 2.675843 3.398186 1.357161 0
M  V30 41 H 3.120168 2.007082 2.480077 0
M  V30 42 H 3.030249 1.777837 0.675549 0
M  V30 43 H 2.251770 3.337728 3.753346 0
M  V30 44 H 1.010900 3.998425 5.801117 0
M  V30 45 H -1.334629 3.389542 6.018374 0
M  V30 46 H -2.395406 0.765624 2.501934 0
M  V30 47 H -0.894488 0.529484 1.472489 0
M  V30 48 H -2.147224 3.590853 -0.389836 0
M  V30 49 H -0.630215 3.329315 0.441133 0
M  V30 50 H -0.181117 1.333683 -0.953340 0
M  V30 51 H -0.691510 4.043016 -1.973807 0
M  V30 52 H 0.675726 2.933033 -2.296824 0
M  V30 53 H -0.816025 2.804182 -3.244687 0
M  V30 54 H -2.633503 1.840983 -2.586197 0
M  V30 55 H -1.665837 0.365841 -2.484203 0
M  V30 56 H -4.089588 0.482346 -1.339548 0
M  V30 57 H -1.676569 -0.787929 -0.337549 0
M  V30 58 H -4.913603 -4.011598 0.421378 0
M  V30 59 H -4.055566 -6.161443 1.100645 0
M  V30 60 H -1.652699 -7.662897 1.503066 0
M  V30 61 H 2.510133 -5.009822 1.992486 0
M  V30 62 H 4.579621 -3.817941 1.171268 0
M  V30 63 H 4.654635 -1.937578 -4.539558 0
M  V30 64 H 5.621122 -0.952758 -3.380818 0
M  V30 65 H 3.943055 -0.443689 -3.747333 0
M  V30 66 H 2.048044 -2.376527 -3.403168 0
M  V30 67 H 0.553748 -3.865336 -1.611351 0
M  V30 68 H -0.898006 -2.652888 -0.182463 0
M  V30 69 H -3.787150 0.777971 1.105972 0
M  V30 70 H -4.023557 2.238924 0.056478 0
M  V30 END ATOM
M  V30 BEGIN BOND
M  V30 1 1 1 2
M  V30 2 1 2 3
M  V30 3 2 3 4
M  V30 4 1 4 5
M  V30 5 2 5 6
M  V30 6 1 6 7
M  V30 7 1 7 8
M  V30 8 2 7 9
M  V30 9 1 9 10
M  V30 10 1 10 11
M  V30 11 1 11 12
M  V30 12 1 12 13
M  V30 13 1 13 14
M  V30 14 1 13 15
M  V30 15 1 15 16
M  V30 16 1 16 17
M  V30 17 1 17 18
M  V30 18 2 18 19
M  V30 19 1 18 20
M  V30 20 2 20 21
M  V30 21 1 21 22
M  V30 22 2 22 23
M  V30 23 1 23 24
M  V30 24 1 24 25
M  V30 25 2 25 26
M  V30 26 1 26 27
M  V30 27 1 27 28
M  V30 28 2 28 29
M  V30 29 1 29 30
M  V30 30 2 30 31
M  V30 31 1 31 32
M  V30 32 1 32 33
M  V30 33 1 32 34
M  V30 34 2 34 35
M  V30 35 1 35 36
M  V30 36 1 26 37
M  V30 37 2 37 38
M  V30 38 1 16 39
M  V30 39 1 9 3
M  V30 40 1 39 11
M  V30 41 1 38 20
M  V30 42 1 37 23
M  V30 43 2 36 27
M  V30 44 1 35 30
M  V30 45 1 1 40
M  V30 46 1 1 41
M  V30 47 1 1 42
M  V30 48 1 4 43
M  V30 49 1 5 44
M  V30 50 1 6 45
M  V30 51 1 10 46
M  V30 52 1 10 47
M  V30 53 1 12 48
M  V30 54 1 12 49
M  V30 55 1 13 50 CFG=1
M  V30 56 1 14 51
M  V30 57 1 14 52
M  V30 58 1 14 53
M  V30 59 1 15 54
M  V30 60 1 15 55
M  V30 61 1 16 56 CFG=3
M  V30 62 1 17 57
M  V30 63 1 21 58
M  V30 64 1 22 59
M  V30 65 1 24 60
M  V30 66 1 28 61
M  V30 67 1 29 62
M  V30 68 1 33 63
M  V30 69 1 33 64
M  V30 70 1 33 65
M  V30 71 1 34 66
M  V30 72 1 36 67
M  V30 73 1 38 68
M  V30 74 1 39 69
M  V30 75 1 39 70
M  V30 END BOND
M  V30 END CTAB
M  END
>  <Dataset>  (380) 
ChEMBL_Kinases

>  <Ligand_Instance>  (380) 
nan

>  <PDB_ID>  (380) 
nan

>  <Standardized_SMILES>  (380) 
COc1cccc(F)c1CN1C[C@H](C)C[C@@H](NC(=O)c2ccc3[nH]nc(-c4ccc5nn(C)cc5c4)c3c2)C1

>  <Name>  (380) 
nan

>  <Pocket>  (380) 
nan

>  <ATP_Site>  (380) 
nan

>  <Peripheral>  (380) 
nan

>  <Num_H_Atoms_ProtBoundConf>  (380) 
nan

>  <Num_Resolved_Atoms>  (380) 
nan

>  <Num_Not_Resolved_Atoms>  (380) 
nan

$$$$
CHEMBL3654523
     RDKit          3D

  0  0  0  0  0  0  0  0  0  0999 V3000
M  V30 BEGIN CTAB
M  V30 COUNTS 70 75 0 0 0
M  V30 BEGIN ATOM
M  V30 1 C 2.065569 -1.633836 0.234802 0
M  V30 2 O 2.174938 -1.371604 -1.127273 0
M  V30 3 C 3.026372 -0.427146 -1.644414 0
M  V30 4 C 3.837504 0.329803 -0.828822 0
M  V30 5 C 4.688749 1.269330 -1.316134 0
M  V30 6 C 4.730628 1.459521 -2.673086 0
M  V30 7 C 3.909762 0.690060 -3.466498 0
M  V30 8 F 4.005790 0.934624 -4.812238 0
M  V30 9 C 3.014971 -0.291088 -3.010699 0
M  V30 10 C 2.218133 -0.997674 -4.037667 0
M  V30 11 N 0.881116 -0.582998 -4.189802 0
M  V30 12 C 0.661466 0.778580 -4.412378 0
M  V30 13 C -0.780079 1.175899 -4.578365 0 CFG=1
M  V30 14 C -1.203399 1.093501 -6.049291 0
M  V30 15 C -1.741851 0.409834 -3.706443 0
M  V30 16 C -0.992808 -0.453993 -2.770247 0 CFG=1
M  V30 17 N -1.809940 -1.241730 -1.886984 0
M  V30 18 C -1.726309 -1.139739 -0.474236 0
M  V30 19 O -0.880583 -0.304572 -0.061797 0
M  V30 20 C -2.558193 -1.942648 0.419322 0
M  V30 21 C -3.492307 -2.882222 0.029153 0
M  V30 22 C -4.232163 -3.590376 0.956452 0
M  V30 23 C -4.068392 -3.388357 2.309347 0
M  V30 24 N -4.578655 -3.861346 3.457337 0
M  V30 25 N -4.028610 -3.283474 4.510698 0
M  V30 26 C -3.100206 -2.373452 4.093495 0
M  V30 27 C -2.303911 -1.554218 5.001442 0
M  V30 28 C -3.034689 -0.984715 6.030823 0
M  V30 29 C -2.460286 -0.181945 6.985272 0
M  V30 30 C -1.121130 0.065417 6.919705 0
M  V30 31 N -0.269034 0.787573 7.675211 0
M  V30 32 N 0.957224 0.676764 7.139786 0
M  V30 33 C 2.023878 1.371126 7.790806 0
M  V30 34 C 0.918225 -0.104212 6.050052 0
M  V30 35 C -0.398247 -0.506030 5.889905 0
M  V30 36 C -0.947791 -1.316064 4.917405 0
M  V30 37 C -3.133456 -2.447571 2.715513 0
M  V30 38 C -2.405552 -1.751315 1.781960 0
M  V30 39 C -0.100414 -1.385130 -3.584264 0
M  V30 40 H 1.152708 -2.233938 0.451313 0
M  V30 41 H 2.951064 -2.214415 0.566570 0
M  V30 42 H 1.984231 -0.693234 0.817435 0
M  V30 43 H 3.762643 0.135233 0.250806 0
M  V30 44 H 5.279781 1.806757 -0.593463 0
M  V30 45 H 5.391380 2.191809 -3.083914 0
M  V30 46 H 2.312908 -2.098468 -3.817973 0
M  V30 47 H 2.722191 -0.888341 -5.026516 0
M  V30 48 H 1.126801 1.464444 -3.668141 0
M  V30 49 H 1.156379 1.056960 -5.382664 0
M  V30 50 H -0.828742 2.285252 -4.364264 0
M  V30 51 H -0.832747 2.003250 -6.602269 0
M  V30 52 H -0.787201 0.232114 -6.567169 0
M  V30 53 H -2.310566 1.173723 -6.057875 0
M  V30 54 H -2.356899 -0.244233 -4.378816 0
M  V30 55 H -2.390028 1.161532 -3.190382 0
M  V30 56 H -0.317781 0.167182 -2.148881 0
M  V30 57 H -2.482769 -1.907297 -2.328682 0
M  V30 58 H -3.604375 -3.024659 -1.035971 0
M  V30 59 H -4.948498 -4.311835 0.636014 0
M  V30 60 H -5.323951 -4.602393 3.446744 0
M  V30 61 H -4.119178 -1.133755 6.155943 0
M  V30 62 H -3.027226 0.271597 7.800382 0
M  V30 63 H 2.993026 1.313331 7.295889 0
M  V30 64 H 1.745273 2.460109 7.809032 0
M  V30 65 H 2.132709 1.090287 8.875279 0
M  V30 66 H 1.759807 -0.345540 5.449748 0
M  V30 67 H -0.432796 -1.776714 4.108121 0
M  V30 68 H -1.670143 -1.010341 2.130194 0
M  V30 69 H 0.294791 -2.139752 -2.882883 0
M  V30 70 H -0.797339 -1.867564 -4.322950 0
M  V30 END ATOM
M  V30 BEGIN BOND
M  V30 1 1 1 2
M  V30 2 1 2 3
M  V30 3 2 3 4
M  V30 4 1 4 5
M  V30 5 2 5 6
M  V30 6 1 6 7
M  V30 7 1 7 8
M  V30 8 2 7 9
M  V30 9 1 9 10
M  V30 10 1 10 11
M  V30 11 1 11 12
M  V30 12 1 12 13
M  V30 13 1 13 14
M  V30 14 1 13 15
M  V30 15 1 15 16
M  V30 16 1 16 17
M  V30 17 1 17 18
M  V30 18 2 18 19
M  V30 19 1 18 20
M  V30 20 2 20 21
M  V30 21 1 21 22
M  V30 22 2 22 23
M  V30 23 1 23 24
M  V30 24 1 24 25
M  V30 25 2 25 26
M  V30 26 1 26 27
M  V30 27 1 27 28
M  V30 28 2 28 29
M  V30 29 1 29 30
M  V30 30 2 30 31
M  V30 31 1 31 32
M  V30 32 1 32 33
M  V30 33 1 32 34
M  V30 34 2 34 35
M  V30 35 1 35 36
M  V30 36 1 26 37
M  V30 37 2 37 38
M  V30 38 1 16 39
M  V30 39 1 9 3
M  V30 40 1 39 11
M  V30 41 1 38 20
M  V30 42 1 37 23
M  V30 43 2 36 27
M  V30 44 1 35 30
M  V30 45 1 1 40
M  V30 46 1 1 41
M  V30 47 1 1 42
M  V30 48 1 4 43
M  V30 49 1 5 44
M  V30 50 1 6 45
M  V30 51 1 10 46
M  V30 52 1 10 47
M  V30 53 1 12 48
M  V30 54 1 12 49
M  V30 55 1 13 50 CFG=1
M  V30 56 1 14 51
M  V30 57 1 14 52
M  V30 58 1 14 53
M  V30 59 1 15 54
M  V30 60 1 15 55
M  V30 61 1 16 56 CFG=1
M  V30 62 1 17 57
M  V30 63 1 21 58
M  V30 64 1 22 59
M  V30 65 1 24 60
M  V30 66 1 28 61
M  V30 67 1 29 62
M  V30 68 1 33 63
M  V30 69 1 33 64
M  V30 70 1 33 65
M  V30 71 1 34 66
M  V30 72 1 36 67
M  V30 73 1 38 68
M  V30 74 1 39 69
M  V30 75 1 39 70
M  V30 END BOND
M  V30 END CTAB
M  END
>  <Dataset>  (381) 
ChEMBL_Kinases

>  <Ligand_Instance>  (381) 
nan

>  <PDB_ID>  (381) 
nan

>  <Standardized_SMILES>  (381) 
COc1cccc(F)c1CN1C[C@@H](C)C[C@@H](NC(=O)c2ccc3[nH]nc(-c4ccc5nn(C)cc5c4)c3c2)C1

>  <Name>  (381) 
nan

>  <Pocket>  (381) 
nan

>  <ATP_Site>  (381) 
nan

>  <Peripheral>  (381) 
nan

>  <Num_H_Atoms_ProtBoundConf>  (381) 
nan

>  <Num_Resolved_Atoms>  (381) 
nan

>  <Num_Not_Resolved_Atoms>  (381) 
nan

$$$$
CHEMBL3654522
     RDKit          3D

  0  0  0  0  0  0  0  0  0  0999 V3000
M  V30 BEGIN CTAB
M  V30 COUNTS 67 72 0 0 0
M  V30 BEGIN ATOM
M  V30 1 C 2.481018 -1.396640 3.068990 0
M  V30 2 O 2.297566 -0.166808 2.431815 0
M  V30 3 C 2.721302 0.168909 1.161592 0
M  V30 4 C 3.395438 -0.824613 0.458987 0
M  V30 5 C 3.825107 -0.486558 -0.826509 0
M  V30 6 C 3.585824 0.760920 -1.349004 0
M  V30 7 C 2.913076 1.728182 -0.626602 0
M  V30 8 F 2.669526 2.963013 -1.126769 0
M  V30 9 C 2.475634 1.424800 0.647021 0
M  V30 10 C 1.759315 2.430705 1.435696 0
M  V30 11 N 0.356376 2.280043 1.542677 0
M  V30 12 C -0.409785 2.319538 0.384032 0
M  V30 13 C -1.887684 2.360649 0.484695 0 CFG=2
M  V30 14 C -2.421688 3.552033 -0.292508 0
M  V30 15 C -2.425853 2.481468 1.899656 0
M  V30 16 C -1.601994 1.662775 2.853347 0 CFG=1
M  V30 17 N -1.497603 0.309654 2.362568 0
M  V30 18 C -1.806491 -0.818682 3.138092 0
M  V30 19 O -2.192734 -0.598223 4.335132 0
M  V30 20 C -1.728002 -2.217185 2.706121 0
M  V30 21 C -1.998838 -3.178528 3.658139 0
M  V30 22 C -1.926996 -4.508225 3.232309 0
M  V30 23 C -1.605937 -4.877101 1.937738 0
M  V30 24 N -1.496829 -6.113420 1.367644 0
M  V30 25 N -1.164051 -5.877778 0.086753 0
M  V30 26 C -1.071602 -4.555747 -0.126788 0
M  V30 27 C -0.734696 -3.962399 -1.414645 0
M  V30 28 C -1.426826 -4.544274 -2.464913 0
M  V30 29 C -1.248603 -4.119011 -3.776056 0
M  V30 30 C -0.345721 -3.085556 -3.980618 0
M  V30 31 N 0.030336 -2.471567 -5.114263 0
M  V30 32 C 0.932238 -1.532107 -4.781644 0
M  V30 33 C 1.111897 -1.575088 -3.398029 0
M  V30 34 N 0.301054 -2.553845 -2.929192 0
M  V30 35 C 0.154841 -2.938128 -1.651697 0
M  V30 36 C -1.346292 -3.863041 1.033569 0
M  V30 37 C -1.403737 -2.536590 1.404545 0
M  V30 38 C -0.204580 2.250566 2.816168 0
M  V30 39 H 1.653682 -1.521909 3.812236 0
M  V30 40 H 3.408888 -1.413370 3.702334 0
M  V30 41 H 2.413014 -2.278524 2.414412 0
M  V30 42 H 3.605272 -1.813798 0.826843 0
M  V30 43 H 4.351810 -1.214713 -1.418469 0
M  V30 44 H 3.893577 1.068476 -2.327166 0
M  V30 45 H 2.159466 2.474393 2.492388 0
M  V30 46 H 1.987234 3.435593 1.022088 0
M  V30 47 H -0.067179 3.218488 -0.216823 0
M  V30 48 H -0.154586 1.464377 -0.287847 0
M  V30 49 H -2.380010 1.472364 -0.017215 0
M  V30 50 H -2.078338 3.533370 -1.360244 0
M  V30 51 H -3.528161 3.629215 -0.243954 0
M  V30 52 H -1.979694 4.507295 0.115564 0
M  V30 53 H -3.501007 2.157090 1.847916 0
M  V30 54 H -2.400072 3.551161 2.145837 0
M  V30 55 H -2.022582 1.688984 3.855822 0
M  V30 56 H -1.184176 0.106347 1.395340 0
M  V30 57 H -2.259000 -2.960405 4.694787 0
M  V30 58 H -2.142569 -5.256422 3.996304 0
M  V30 59 H -1.652189 -7.010581 1.876285 0
M  V30 60 H -2.141268 -5.350100 -2.368788 0
M  V30 61 H -1.795432 -4.577318 -4.614647 0
M  V30 62 H 1.360586 -0.922742 -5.560054 0
M  V30 63 H 1.794292 -0.911288 -2.882949 0
M  V30 64 H 0.657023 -2.533942 -0.794304 0
M  V30 65 H -1.191772 -1.793843 0.658138 0
M  V30 66 H 0.409239 1.601429 3.491929 0
M  V30 67 H -0.269294 3.258020 3.260960 0
M  V30 END ATOM
M  V30 BEGIN BOND
M  V30 1 1 1 2
M  V30 2 1 2 3
M  V30 3 2 3 4
M  V30 4 1 4 5
M  V30 5 2 5 6
M  V30 6 1 6 7
M  V30 7 1 7 8
M  V30 8 2 7 9
M  V30 9 1 9 10
M  V30 10 1 10 11
M  V30 11 1 11 12
M  V30 12 1 12 13
M  V30 13 1 13 14
M  V30 14 1 13 15
M  V30 15 1 15 16
M  V30 16 1 16 17
M  V30 17 1 17 18
M  V30 18 2 18 19
M  V30 19 1 18 20
M  V30 20 2 20 21
M  V30 21 1 21 22
M  V30 22 2 22 23
M  V30 23 1 23 24
M  V30 24 1 24 25
M  V30 25 2 25 26
M  V30 26 1 26 27
M  V30 27 1 27 28
M  V30 28 2 28 29
M  V30 29 1 29 30
M  V30 30 2 30 31
M  V30 31 1 31 32
M  V30 32 2 32 33
M  V30 33 1 33 34
M  V30 34 1 34 35
M  V30 35 1 26 36
M  V30 36 2 36 37
M  V30 37 1 16 38
M  V30 38 1 9 3
M  V30 39 1 38 11
M  V30 40 1 37 20
M  V30 41 1 36 23
M  V30 42 2 35 27
M  V30 43 1 34 30
M  V30 44 1 1 39
M  V30 45 1 1 40
M  V30 46 1 1 41
M  V30 47 1 4 42
M  V30 48 1 5 43
M  V30 49 1 6 44
M  V30 50 1 10 45
M  V30 51 1 10 46
M  V30 52 1 12 47
M  V30 53 1 12 48
M  V30 54 1 13 49 CFG=3
M  V30 55 1 14 50
M  V30 56 1 14 51
M  V30 57 1 14 52
M  V30 58 1 15 53
M  V30 59 1 15 54
M  V30 60 1 16 55 CFG=1
M  V30 61 1 17 56
M  V30 62 1 21 57
M  V30 63 1 22 58
M  V30 64 1 24 59
M  V30 65 1 28 60
M  V30 66 1 29 61
M  V30 67 1 32 62
M  V30 68 1 33 63
M  V30 69 1 35 64
M  V30 70 1 37 65
M  V30 71 1 38 66
M  V30 72 1 38 67
M  V30 END BOND
M  V30 END CTAB
M  END
>  <Dataset>  (382) 
ChEMBL_Kinases

>  <Ligand_Instance>  (382) 
nan

>  <PDB_ID>  (382) 
nan

>  <Standardized_SMILES>  (382) 
COc1cccc(F)c1CN1C[C@H](C)C[C@@H](NC(=O)c2ccc3[nH]nc(-c4ccc5nccn5c4)c3c2)C1

>  <Name>  (382) 
nan

>  <Pocket>  (382) 
nan

>  <ATP_Site>  (382) 
nan

>  <Peripheral>  (382) 
nan

>  <Num_H_Atoms_ProtBoundConf>  (382) 
nan

>  <Num_Resolved_Atoms>  (382) 
nan

>  <Num_Not_Resolved_Atoms>  (382) 
nan

$$$$
CHEMBL3654521
     RDKit          3D

  0  0  0  0  0  0  0  0  0  0999 V3000
M  V30 BEGIN CTAB
M  V30 COUNTS 67 72 0 0 0
M  V30 BEGIN ATOM
M  V30 1 C 2.193417 -2.056125 2.089028 0
M  V30 2 O 2.075757 -0.653841 1.988570 0
M  V30 3 C 2.898366 0.050119 1.118208 0
M  V30 4 C 3.826213 -0.627553 0.349282 0
M  V30 5 C 4.680802 -0.011000 -0.540081 0
M  V30 6 C 4.608348 1.377152 -0.674802 0
M  V30 7 C 3.677684 2.050783 0.098151 0
M  V30 8 F 3.537590 3.397454 0.030749 0
M  V30 9 C 2.818679 1.441129 0.990797 0
M  V30 10 C 1.827648 2.096741 1.835169 0
M  V30 11 N 0.476233 2.020334 1.453137 0
M  V30 12 C 0.063983 2.612180 0.250909 0
M  V30 13 C -1.368183 2.713016 -0.069889 0 CFG=1
M  V30 14 C -1.725372 1.720086 -1.182578 0
M  V30 15 C -2.356747 2.592229 1.040382 0
M  V30 16 C -1.809001 1.949802 2.285023 0 CFG=1
M  V30 17 N -1.873204 0.504148 2.217343 0
M  V30 18 C -2.395315 -0.415156 3.162568 0
M  V30 19 O -2.903198 -0.058939 4.255371 0
M  V30 20 C -2.347036 -1.843737 2.869286 0
M  V30 21 C -2.719365 -2.760818 3.796205 0
M  V30 22 C -2.708432 -4.143075 3.610515 0
M  V30 23 C -2.274723 -4.587876 2.358994 0
M  V30 24 N -2.119218 -5.817799 1.789502 0
M  V30 25 N -1.673275 -5.709944 0.563594 0
M  V30 26 C -1.510374 -4.412130 0.256208 0
M  V30 27 C -1.036782 -3.895468 -1.020664 0
M  V30 28 C -1.605507 -4.502673 -2.146645 0
M  V30 29 C -1.260149 -4.114889 -3.433433 0
M  V30 30 C -0.336114 -3.108591 -3.653102 0
M  V30 31 N 0.212081 -2.500947 -4.732326 0
M  V30 32 C 1.085279 -1.555286 -4.288942 0
M  V30 33 C 1.070294 -1.585734 -2.901118 0
M  V30 34 N 0.184260 -2.553795 -2.544920 0
M  V30 35 C -0.130522 -2.908136 -1.289129 0
M  V30 36 C -1.889563 -3.716854 1.388962 0
M  V30 37 C -1.930123 -2.349996 1.655757 0
M  V30 38 C -0.369942 2.365606 2.541599 0
M  V30 39 H 2.122744 -2.597458 1.142314 0
M  V30 40 H 1.474701 -2.479735 2.830425 0
M  V30 41 H 3.205823 -2.272326 2.512534 0
M  V30 42 H 3.951814 -1.709757 0.389963 0
M  V30 43 H 5.409595 -0.537874 -1.145202 0
M  V30 44 H 5.257976 1.892132 -1.357482 0
M  V30 45 H 2.099021 3.197137 1.823286 0
M  V30 46 H 1.948573 1.770863 2.893318 0
M  V30 47 H 0.554946 3.634595 0.225567 0
M  V30 48 H 0.585924 2.099936 -0.613305 0
M  V30 49 H -1.545721 3.711621 -0.566941 0
M  V30 50 H -1.434066 2.109950 -2.180330 0
M  V30 51 H -1.123304 0.786974 -1.019440 0
M  V30 52 H -2.793998 1.441579 -1.153862 0
M  V30 53 H -2.798003 3.579404 1.298483 0
M  V30 54 H -3.207086 1.972252 0.697568 0
M  V30 55 H -2.373157 2.257672 3.177493 0
M  V30 56 H -1.450991 0.262405 1.322753 0
M  V30 57 H -3.057722 -2.401754 4.772680 0
M  V30 58 H -3.004101 -4.842179 4.353635 0
M  V30 59 H -2.330520 -6.711893 2.274844 0
M  V30 60 H -2.337837 -5.298903 -2.090577 0
M  V30 61 H -1.707767 -4.590012 -4.306502 0
M  V30 62 H 1.609602 -0.976622 -5.031631 0
M  V30 63 H 1.709459 -0.895849 -2.360385 0
M  V30 64 H 0.295903 -2.453247 -0.400642 0
M  V30 65 H -1.616895 -1.695832 0.857806 0
M  V30 66 H -0.297325 3.441169 2.793965 0
M  V30 67 H -0.031314 1.805117 3.446760 0
M  V30 END ATOM
M  V30 BEGIN BOND
M  V30 1 1 1 2
M  V30 2 1 2 3
M  V30 3 2 3 4
M  V30 4 1 4 5
M  V30 5 2 5 6
M  V30 6 1 6 7
M  V30 7 1 7 8
M  V30 8 2 7 9
M  V30 9 1 9 10
M  V30 10 1 10 11
M  V30 11 1 11 12
M  V30 12 1 12 13
M  V30 13 1 13 14
M  V30 14 1 13 15
M  V30 15 1 15 16
M  V30 16 1 16 17
M  V30 17 1 17 18
M  V30 18 2 18 19
M  V30 19 1 18 20
M  V30 20 2 20 21
M  V30 21 1 21 22
M  V30 22 2 22 23
M  V30 23 1 23 24
M  V30 24 1 24 25
M  V30 25 2 25 26
M  V30 26 1 26 27
M  V30 27 1 27 28
M  V30 28 2 28 29
M  V30 29 1 29 30
M  V30 30 2 30 31
M  V30 31 1 31 32
M  V30 32 2 32 33
M  V30 33 1 33 34
M  V30 34 1 34 35
M  V30 35 1 26 36
M  V30 36 2 36 37
M  V30 37 1 16 38
M  V30 38 1 9 3
M  V30 39 1 38 11
M  V30 40 1 37 20
M  V30 41 1 36 23
M  V30 42 2 35 27
M  V30 43 1 34 30
M  V30 44 1 1 39
M  V30 45 1 1 40
M  V30 46 1 1 41
M  V30 47 1 4 42
M  V30 48 1 5 43
M  V30 49 1 6 44
M  V30 50 1 10 45
M  V30 51 1 10 46
M  V30 52 1 12 47
M  V30 53 1 12 48
M  V30 54 1 13 49 CFG=3
M  V30 55 1 14 50
M  V30 56 1 14 51
M  V30 57 1 14 52
M  V30 58 1 15 53
M  V30 59 1 15 54
M  V30 60 1 16 55 CFG=1
M  V30 61 1 17 56
M  V30 62 1 21 57
M  V30 63 1 22 58
M  V30 64 1 24 59
M  V30 65 1 28 60
M  V30 66 1 29 61
M  V30 67 1 32 62
M  V30 68 1 33 63
M  V30 69 1 35 64
M  V30 70 1 37 65
M  V30 71 1 38 66
M  V30 72 1 38 67
M  V30 END BOND
M  V30 END CTAB
M  END
>  <Dataset>  (383) 
ChEMBL_Kinases

>  <Ligand_Instance>  (383) 
nan

>  <PDB_ID>  (383) 
nan

>  <Standardized_SMILES>  (383) 
COc1cccc(F)c1CN1C[C@@H](C)C[C@@H](NC(=O)c2ccc3[nH]nc(-c4ccc5nccn5c4)c3c2)C1

>  <Name>  (383) 
nan

>  <Pocket>  (383) 
nan

>  <ATP_Site>  (383) 
nan

>  <Peripheral>  (383) 
nan

>  <Num_H_Atoms_ProtBoundConf>  (383) 
nan

>  <Num_Resolved_Atoms>  (383) 
nan

>  <Num_Not_Resolved_Atoms>  (383) 
nan

$$$$
CHEMBL3654520
     RDKit          3D

  0  0  0  0  0  0  0  0  0  0999 V3000
M  V30 BEGIN CTAB
M  V30 COUNTS 66 70 0 0 0
M  V30 BEGIN ATOM
M  V30 1 C 1.738280 1.557448 5.025260 0
M  V30 2 O 2.121507 2.033852 3.755755 0
M  V30 3 C 2.954595 1.261006 2.961176 0
M  V30 4 C 3.409453 0.039251 3.401329 0
M  V30 5 C 4.238832 -0.724918 2.610113 0
M  V30 6 C 4.616127 -0.263341 1.369404 0
M  V30 7 C 4.123385 0.966517 0.993717 0
M  V30 8 F 4.522652 1.389565 -0.247117 0
M  V30 9 C 3.285220 1.797942 1.728226 0
M  V30 10 C 2.859854 3.068057 1.139608 0
M  V30 11 N 1.586811 3.096589 0.559666 0
M  V30 12 C 1.117915 4.304537 -0.005619 0
M  V30 13 C -0.240745 4.223072 -0.617925 0 CFG=2
M  V30 14 C -1.318987 4.829020 0.256133 0
M  V30 15 C -0.587893 2.826769 -1.059290 0
M  V30 16 C -0.364857 1.765007 -0.035191 0 CFG=1
M  V30 17 N 0.100373 0.520264 -0.604848 0
M  V30 18 C -0.683716 -0.648780 -0.444344 0
M  V30 19 O -1.771081 -0.494717 0.212103 0
M  V30 20 C -0.280221 -1.948389 -0.991883 0
M  V30 21 C 0.886818 -2.204872 -1.705917 0
M  V30 22 C 1.131741 -3.483943 -2.162769 0
M  V30 23 C 0.239651 -4.507943 -1.922808 0
M  V30 24 N 0.251802 -5.824742 -2.260189 0
M  V30 25 N -0.852956 -6.411140 -1.792607 0
M  V30 26 C -1.614510 -5.488569 -1.137139 0
M  V30 27 C -2.899754 -5.709907 -0.477609 0
M  V30 28 C -2.963663 -6.841508 0.309497 0
M  V30 29 C -4.112577 -7.208247 1.011794 0
M  V30 30 N -5.153747 -6.374189 0.862897 0
M  V30 31 C -5.129996 -5.263010 0.105442 0
M  V30 32 C -6.327492 -4.364823 -0.024527 0
M  V30 33 C -4.002039 -4.887090 -0.594601 0
M  V30 34 C -0.918934 -4.295904 -1.224780 0
M  V30 35 C -1.155759 -3.012687 -0.771260 0
M  V30 36 C 0.660991 2.160254 1.038639 0
M  V30 37 H 0.932424 2.186793 5.456583 0
M  V30 38 H 1.325212 0.518516 4.861925 0
M  V30 39 H 2.572062 1.517607 5.761713 0
M  V30 40 H 3.122093 -0.335677 4.372275 0
M  V30 41 H 4.594121 -1.679806 2.953161 0
M  V30 42 H 5.254870 -0.837363 0.744333 0
M  V30 43 H 2.903684 3.909075 1.891940 0
M  V30 44 H 3.627090 3.358400 0.373249 0
M  V30 45 H 1.822942 4.706246 -0.761423 0
M  V30 46 H 1.047515 5.060476 0.818520 0
M  V30 47 H -0.234856 4.836469 -1.541450 0
M  V30 48 H -0.939533 4.855592 1.299530 0
M  V30 49 H -2.297312 4.335639 0.137734 0
M  V30 50 H -1.501055 5.893460 -0.009135 0
M  V30 51 H -1.668843 2.873974 -1.388269 0
M  V30 52 H -0.051665 2.569851 -2.011961 0
M  V30 53 H -1.327239 1.645266 0.508629 0
M  V30 54 H 1.002668 0.496103 -1.124406 0
M  V30 55 H 1.535593 -1.361543 -1.855736 0
M  V30 56 H 2.053323 -3.622435 -2.710081 0
M  V30 57 H 1.028619 -6.284934 -2.807522 0
M  V30 58 H -2.114099 -7.512117 0.424478 0
M  V30 59 H -4.116257 -8.101194 1.614134 0
M  V30 60 H -6.890281 -4.612677 -0.952444 0
M  V30 61 H -6.956160 -4.388544 0.885852 0
M  V30 62 H -5.958161 -3.318813 -0.135811 0
M  V30 63 H -3.909460 -4.011366 -1.221255 0
M  V30 64 H -2.073836 -2.840307 -0.216981 0
M  V30 65 H 1.177657 1.222614 1.316868 0
M  V30 66 H 0.128581 2.465962 1.972452 0
M  V30 END ATOM
M  V30 BEGIN BOND
M  V30 1 1 1 2
M  V30 2 1 2 3
M  V30 3 2 3 4
M  V30 4 1 4 5
M  V30 5 2 5 6
M  V30 6 1 6 7
M  V30 7 1 7 8
M  V30 8 2 7 9
M  V30 9 1 9 10
M  V30 10 1 10 11
M  V30 11 1 11 12
M  V30 12 1 12 13
M  V30 13 1 13 14
M  V30 14 1 13 15
M  V30 15 1 15 16
M  V30 16 1 16 17
M  V30 17 1 17 18
M  V30 18 2 18 19
M  V30 19 1 18 20
M  V30 20 2 20 21
M  V30 21 1 21 22
M  V30 22 2 22 23
M  V30 23 1 23 24
M  V30 24 1 24 25
M  V30 25 2 25 26
M  V30 26 1 26 27
M  V30 27 2 27 28
M  V30 28 1 28 29
M  V30 29 2 29 30
M  V30 30 1 30 31
M  V30 31 1 31 32
M  V30 32 2 31 33
M  V30 33 1 26 34
M  V30 34 2 34 35
M  V30 35 1 16 36
M  V30 36 1 9 3
M  V30 37 1 36 11
M  V30 38 1 35 20
M  V30 39 1 34 23
M  V30 40 1 33 27
M  V30 41 1 1 37
M  V30 42 1 1 38
M  V30 43 1 1 39
M  V30 44 1 4 40
M  V30 45 1 5 41
M  V30 46 1 6 42
M  V30 47 1 10 43
M  V30 48 1 10 44
M  V30 49 1 12 45
M  V30 50 1 12 46
M  V30 51 1 13 47 CFG=3
M  V30 52 1 14 48
M  V30 53 1 14 49
M  V30 54 1 14 50
M  V30 55 1 15 51
M  V30 56 1 15 52
M  V30 57 1 16 53 CFG=1
M  V30 58 1 17 54
M  V30 59 1 21 55
M  V30 60 1 22 56
M  V30 61 1 24 57
M  V30 62 1 28 58
M  V30 63 1 29 59
M  V30 64 1 32 60
M  V30 65 1 32 61
M  V30 66 1 32 62
M  V30 67 1 33 63
M  V30 68 1 35 64
M  V30 69 1 36 65
M  V30 70 1 36 66
M  V30 END BOND
M  V30 END CTAB
M  END
>  <Dataset>  (384) 
ChEMBL_Kinases

>  <Ligand_Instance>  (384) 
nan

>  <PDB_ID>  (384) 
nan

>  <Standardized_SMILES>  (384) 
COc1cccc(F)c1CN1C[C@H](C)C[C@@H](NC(=O)c2ccc3[nH]nc(-c4ccnc(C)c4)c3c2)C1

>  <Name>  (384) 
nan

>  <Pocket>  (384) 
nan

>  <ATP_Site>  (384) 
nan

>  <Peripheral>  (384) 
nan

>  <Num_H_Atoms_ProtBoundConf>  (384) 
nan

>  <Num_Resolved_Atoms>  (384) 
nan

>  <Num_Not_Resolved_Atoms>  (384) 
nan

$$$$
CHEMBL3654519
     RDKit          3D

  0  0  0  0  0  0  0  0  0  0999 V3000
M  V30 BEGIN CTAB
M  V30 COUNTS 63 68 0 0 0
M  V30 BEGIN ATOM
M  V30 1 C -0.237030 0.419456 5.968981 0
M  V30 2 C 0.493165 1.684654 5.609966 0
M  V30 3 C 1.452621 1.668684 4.593804 0
M  V30 4 C 2.152934 2.824828 4.230939 0
M  V30 5 C 3.154124 2.798871 3.167221 0
M  V30 6 N 4.359892 3.379900 3.254451 0
M  V30 7 N 5.058407 3.197161 2.143862 0
M  V30 8 C 4.338336 2.477165 1.257648 0
M  V30 9 C 4.477497 1.969988 -0.016549 0
M  V30 10 C 3.466851 1.247670 -0.616110 0
M  V30 11 C 2.265902 0.994485 0.024848 0
M  V30 12 C 1.252357 0.222675 -0.683934 0
M  V30 13 O 1.515378 -0.166835 -1.827308 0
M  V30 14 N 0.005962 -0.062880 -0.062311 0
M  V30 15 C -1.093520 -0.828504 -0.670713 0 CFG=2
M  V30 16 C -2.345104 -0.029723 -0.796720 0
M  V30 17 C -3.587677 -0.639644 -0.273405 0
M  V30 18 C -3.528670 -2.057004 0.163381 0
M  V30 19 N -2.379556 -2.802915 -0.352383 0
M  V30 20 C -2.453106 -2.913958 -1.789696 0
M  V30 21 C -3.829941 -3.514480 -2.153332 0
M  V30 22 C -3.563936 -3.772936 -3.644111 0
M  V30 23 C -2.228252 -4.461954 -3.517931 0
M  V30 24 C -1.749903 -5.438248 -4.363707 0
M  V30 25 C -0.505397 -5.962658 -4.094339 0
M  V30 26 C 0.200107 -5.502313 -3.013331 0
M  V30 27 C -0.349811 -4.522740 -2.216124 0
M  V30 28 C -1.580464 -3.929758 -2.391372 0
M  V30 29 C -1.229774 -2.074526 0.131541 0
M  V30 30 C 2.136820 1.505414 1.297348 0
M  V30 31 C 3.145452 2.230319 1.904708 0
M  V30 32 C 1.871104 4.001711 4.909708 0
M  V30 33 C 0.908023 3.963388 5.912094 0
M  V30 34 N 0.246674 2.850700 6.247983 0
M  V30 35 H 0.356185 -0.182909 6.674425 0
M  V30 36 H -0.257599 -0.176776 5.013008 0
M  V30 37 H -1.250295 0.598837 6.335561 0
M  V30 38 H 1.629459 0.738928 4.105904 0
M  V30 39 H 6.021350 3.526773 1.912910 0
M  V30 40 H 5.438215 2.192755 -0.483734 0
M  V30 41 H 3.713100 0.908035 -1.623360 0
M  V30 42 H -0.247089 0.241642 0.880066 0
M  V30 43 H -0.685557 -1.091975 -1.683805 0
M  V30 44 H -2.154067 0.928437 -0.225550 0
M  V30 45 H -2.466188 0.357914 -1.853608 0
M  V30 46 H -4.051471 0.019464 0.520344 0
M  V30 47 H -4.360567 -0.586638 -1.098606 0
M  V30 48 H -4.480352 -2.606311 0.011253 0
M  V30 49 H -3.367482 -2.042706 1.276547 0
M  V30 50 H -2.388947 -1.984325 -2.344486 0
M  V30 51 H -3.964803 -4.509344 -1.688130 0
M  V30 52 H -4.646125 -2.806153 -2.010182 0
M  V30 53 H -4.329951 -4.437021 -4.065736 0
M  V30 54 H -3.440160 -2.810336 -4.150564 0
M  V30 55 H -2.314362 -5.793165 -5.212131 0
M  V30 56 H -0.124401 -6.716339 -4.738621 0
M  V30 57 H 1.168524 -5.929204 -2.826765 0
M  V30 58 H 0.262168 -4.225553 -1.403759 0
M  V30 59 H -0.296063 -2.611369 0.188325 0
M  V30 60 H -1.485922 -1.797047 1.201623 0
M  V30 61 H 1.206923 1.319531 1.816253 0
M  V30 62 H 2.383497 4.935882 4.672654 0
M  V30 63 H 0.637054 4.850414 6.485354 0
M  V30 END ATOM
M  V30 BEGIN BOND
M  V30 1 1 1 2
M  V30 2 2 2 3
M  V30 3 1 3 4
M  V30 4 1 4 5
M  V30 5 2 5 6
M  V30 6 1 6 7
M  V30 7 1 7 8
M  V30 8 2 8 9
M  V30 9 1 9 10
M  V30 10 2 10 11
M  V30 11 1 11 12
M  V30 12 2 12 13
M  V30 13 1 12 14
M  V30 14 1 14 15
M  V30 15 1 15 16
M  V30 16 1 16 17
M  V30 17 1 17 18
M  V30 18 1 18 19
M  V30 19 1 19 20
M  V30 20 1 20 21
M  V30 21 1 21 22
M  V30 22 1 22 23
M  V30 23 2 23 24
M  V30 24 1 24 25
M  V30 25 2 25 26
M  V30 26 1 26 27
M  V30 27 2 27 28
M  V30 28 1 19 29
M  V30 29 1 11 30
M  V30 30 2 30 31
M  V30 31 2 4 32
M  V30 32 1 32 33
M  V30 33 2 33 34
M  V30 34 1 34 2
M  V30 35 1 31 5
M  V30 36 1 31 8
M  V30 37 1 29 15
M  V30 38 1 28 20
M  V30 39 1 28 23
M  V30 40 1 1 35
M  V30 41 1 1 36
M  V30 42 1 1 37
M  V30 43 1 3 38
M  V30 44 1 7 39
M  V30 45 1 9 40
M  V30 46 1 10 41
M  V30 47 1 14 42
M  V30 48 1 15 43 CFG=3
M  V30 49 1 16 44
M  V30 50 1 16 45
M  V30 51 1 17 46
M  V30 52 1 17 47
M  V30 53 1 18 48
M  V30 54 1 18 49
M  V30 55 1 20 50
M  V30 56 1 21 51
M  V30 57 1 21 52
M  V30 58 1 22 53
M  V30 59 1 22 54
M  V30 60 1 24 55
M  V30 61 1 25 56
M  V30 62 1 26 57
M  V30 63 1 27 58
M  V30 64 1 29 59
M  V30 65 1 29 60
M  V30 66 1 30 61
M  V30 67 1 32 62
M  V30 68 1 33 63
M  V30 END BOND
M  V30 END CTAB
M  END
>  <Dataset>  (385) 
ChEMBL_Kinases

>  <Ligand_Instance>  (385) 
nan

>  <PDB_ID>  (385) 
nan

>  <Standardized_SMILES>  (385) 
Cc1cc(-c2n[nH]c3ccc(C(=O)N[C@@H]4CCCN(C5CCc6ccccc65)C4)cc23)ccn1

>  <Name>  (385) 
nan

>  <Pocket>  (385) 
nan

>  <ATP_Site>  (385) 
nan

>  <Peripheral>  (385) 
nan

>  <Num_H_Atoms_ProtBoundConf>  (385) 
nan

>  <Num_Resolved_Atoms>  (385) 
nan

>  <Num_Not_Resolved_Atoms>  (385) 
nan

$$$$
CHEMBL3654518
     RDKit          3D

  0  0  0  0  0  0  0  0  0  0999 V3000
M  V30 BEGIN CTAB
M  V30 COUNTS 62 66 0 0 0
M  V30 BEGIN ATOM
M  V30 1 C 1.829140 -2.896064 2.827276 0
M  V30 2 O 1.800368 -1.827496 3.750121 0
M  V30 3 C 2.116281 -0.521279 3.423338 0
M  V30 4 C 2.031717 0.384352 4.454568 0
M  V30 5 C 2.337376 1.702592 4.179826 0
M  V30 6 C 2.702607 1.984868 2.879290 0
M  V30 7 C 2.792570 1.072879 1.820953 0
M  V30 8 C 3.202645 1.552073 0.487796 0
M  V30 9 N 2.090160 1.955593 -0.286665 0
M  V30 10 C 2.327881 2.452295 -1.587637 0
M  V30 11 C 1.123538 2.248128 -2.439193 0
M  V30 12 C -0.149836 2.754100 -1.834509 0
M  V30 13 C -0.316644 2.466932 -0.379769 0 CFG=1
M  V30 14 N -1.127619 1.290705 -0.120315 0
M  V30 15 C -2.363642 1.227872 0.538735 0
M  V30 16 O -2.880284 2.271139 0.978181 0
M  V30 17 C -3.075676 -0.029889 0.731169 0
M  V30 18 C -4.287616 0.008235 1.413402 0
M  V30 19 C -5.030289 -1.133296 1.640008 0
M  V30 20 C -4.596816 -2.370430 1.194822 0
M  V30 21 N -5.057079 -3.628880 1.244315 0
M  V30 22 N -4.188883 -4.409322 0.631424 0
M  V30 23 C -3.152280 -3.691712 0.171285 0
M  V30 24 C -2.039854 -4.302216 -0.550482 0
M  V30 25 C -2.407089 -5.223264 -1.529823 0
M  V30 26 C -1.471840 -5.894443 -2.308441 0
M  V30 27 N -0.173932 -5.605436 -2.064968 0
M  V30 28 C 0.190287 -4.716367 -1.120136 0
M  V30 29 C 1.640814 -4.460129 -0.920584 0
M  V30 30 C -0.704622 -4.041338 -0.339552 0
M  V30 31 C -3.395206 -2.377588 0.523374 0
M  V30 32 C -2.615196 -1.246074 0.274386 0
M  V30 33 C 0.955369 2.413241 0.408633 0
M  V30 34 N 2.479250 -0.187824 2.170634 0
M  V30 35 H 2.527849 -2.652258 2.005525 0
M  V30 36 H 0.788998 -2.974980 2.421036 0
M  V30 37 H 2.081576 -3.861486 3.303282 0
M  V30 38 H 1.745800 0.150404 5.462555 0
M  V30 39 H 2.309961 2.509525 4.899308 0
M  V30 40 H 2.948558 3.027056 2.644606 0
M  V30 41 H 3.839185 2.453329 0.649524 0
M  V30 42 H 3.878690 0.830994 -0.024716 0
M  V30 43 H 3.165324 1.887451 -2.042806 0
M  V30 44 H 2.653727 3.525602 -1.552920 0
M  V30 45 H 1.096846 1.184672 -2.755852 0
M  V30 46 H 1.323875 2.804688 -3.390337 0
M  V30 47 H -0.215282 3.835547 -2.089699 0
M  V30 48 H -0.995505 2.287706 -2.382406 0
M  V30 49 H -0.898614 3.314251 0.047041 0
M  V30 50 H -0.655617 0.441145 -0.505078 0
M  V30 51 H -4.748617 0.918803 1.820185 0
M  V30 52 H -5.976932 -1.113288 2.171396 0
M  V30 53 H -5.948766 -3.921163 1.693427 0
M  V30 54 H -3.439317 -5.465633 -1.737086 0
M  V30 55 H -1.771662 -6.609859 -3.068510 0
M  V30 56 H 2.265809 -5.329716 -1.197008 0
M  V30 57 H 1.993165 -3.540018 -1.435209 0
M  V30 58 H 1.784656 -4.239961 0.172559 0
M  V30 59 H -0.477579 -3.332042 0.417270 0
M  V30 60 H -1.689581 -1.298614 -0.250880 0
M  V30 61 H 1.227065 3.393000 0.859782 0
M  V30 62 H 0.799609 1.730646 1.287257 0
M  V30 END ATOM
M  V30 BEGIN BOND
M  V30 1 1 1 2
M  V30 2 1 2 3
M  V30 3 2 3 4
M  V30 4 1 4 5
M  V30 5 2 5 6
M  V30 6 1 6 7
M  V30 7 1 7 8
M  V30 8 1 8 9
M  V30 9 1 9 10
M  V30 10 1 10 11
M  V30 11 1 11 12
M  V30 12 1 12 13
M  V30 13 1 13 14
M  V30 14 1 14 15
M  V30 15 2 15 16
M  V30 16 1 15 17
M  V30 17 2 17 18
M  V30 18 1 18 19
M  V30 19 2 19 20
M  V30 20 1 20 21
M  V30 21 1 21 22
M  V30 22 2 22 23
M  V30 23 1 23 24
M  V30 24 2 24 25
M  V30 25 1 25 26
M  V30 26 2 26 27
M  V30 27 1 27 28
M  V30 28 1 28 29
M  V30 29 2 28 30
M  V30 30 1 23 31
M  V30 31 2 31 32
M  V30 32 1 13 33
M  V30 33 2 7 34
M  V30 34 1 34 3
M  V30 35 1 33 9
M  V30 36 1 32 17
M  V30 37 1 31 20
M  V30 38 1 30 24
M  V30 39 1 1 35
M  V30 40 1 1 36
M  V30 41 1 1 37
M  V30 42 1 4 38
M  V30 43 1 5 39
M  V30 44 1 6 40
M  V30 45 1 8 41
M  V30 46 1 8 42
M  V30 47 1 10 43
M  V30 48 1 10 44
M  V30 49 1 11 45
M  V30 50 1 11 46
M  V30 51 1 12 47
M  V30 52 1 12 48
M  V30 53 1 13 49 CFG=1
M  V30 54 1 14 50
M  V30 55 1 18 51
M  V30 56 1 19 52
M  V30 57 1 21 53
M  V30 58 1 25 54
M  V30 59 1 26 55
M  V30 60 1 29 56
M  V30 61 1 29 57
M  V30 62 1 29 58
M  V30 63 1 30 59
M  V30 64 1 32 60
M  V30 65 1 33 61
M  V30 66 1 33 62
M  V30 END BOND
M  V30 END CTAB
M  END
>  <Dataset>  (386) 
ChEMBL_Kinases

>  <Ligand_Instance>  (386) 
nan

>  <PDB_ID>  (386) 
nan

>  <Standardized_SMILES>  (386) 
COc1cccc(CN2CCC[C@@H](NC(=O)c3ccc4[nH]nc(-c5ccnc(C)c5)c4c3)C2)n1

>  <Name>  (386) 
nan

>  <Pocket>  (386) 
nan

>  <ATP_Site>  (386) 
nan

>  <Peripheral>  (386) 
nan

>  <Num_H_Atoms_ProtBoundConf>  (386) 
nan

>  <Num_Resolved_Atoms>  (386) 
nan

>  <Num_Not_Resolved_Atoms>  (386) 
nan

$$$$
CHEMBL3654517
     RDKit          3D

  0  0  0  0  0  0  0  0  0  0999 V3000
M  V30 BEGIN CTAB
M  V30 COUNTS 57 61 0 0 0
M  V30 BEGIN ATOM
M  V30 1 C 3.786476 -5.128273 3.836044 0
M  V30 2 C 3.461659 -4.308600 2.654268 0
M  V30 3 C 4.004312 -3.055147 2.389505 0
M  V30 4 C 3.668524 -2.321120 1.264543 0
M  V30 5 C 4.336123 -1.023883 1.147833 0
M  V30 6 N 5.638459 -0.763467 1.352957 0
M  V30 7 N 5.912039 0.513652 1.163078 0
M  V30 8 C 4.780659 1.174219 0.815883 0
M  V30 9 C 4.408019 2.465446 0.496952 0
M  V30 10 C 3.108295 2.803757 0.178276 0
M  V30 11 C 2.114659 1.852895 0.165121 0
M  V30 12 C 0.751032 2.248031 -0.176867 0
M  V30 13 O 0.567107 3.457891 -0.443073 0
M  V30 14 N -0.308903 1.315276 -0.206766 0
M  V30 15 C -1.695008 1.535361 -0.519835 0 CFG=2
M  V30 16 C -2.451508 1.132222 0.733406 0
M  V30 17 C -3.847022 1.720453 0.494275 0
M  V30 18 C -4.444559 0.913620 -0.613704 0
M  V30 19 N -3.544355 0.267485 -1.461944 0
M  V30 20 C -3.965432 -0.876438 -2.155659 0
M  V30 21 C -4.411010 -2.017911 -1.313528 0
M  V30 22 C -5.702630 -2.285646 -0.846626 0
M  V30 23 C -5.906908 -3.407749 -0.071448 0
M  V30 24 N -4.890161 -4.233155 0.234022 0
M  V30 25 C -3.629301 -3.979641 -0.216689 0
M  V30 26 N -3.423259 -2.888704 -0.972021 0
M  V30 27 C -2.225444 0.702223 -1.624585 0
M  V30 28 C 2.490842 0.564698 0.484171 0
M  V30 29 C 3.785718 0.212822 0.804481 0
M  V30 30 C 2.767349 -2.858186 0.385656 0
M  V30 31 C 2.235691 -4.102395 0.658842 0
M  V30 32 N 2.582598 -4.782628 1.754388 0
M  V30 33 H 2.919236 -5.762764 4.119482 0
M  V30 34 H 4.693749 -5.751764 3.719016 0
M  V30 35 H 3.918558 -4.438109 4.716819 0
M  V30 36 H 4.711001 -2.718466 3.150830 0
M  V30 37 H 6.792419 1.068782 1.229497 0
M  V30 38 H 5.201024 3.202779 0.511539 0
M  V30 39 H 2.938615 3.852430 -0.054738 0
M  V30 40 H -0.162679 0.305409 0.013967 0
M  V30 41 H -1.897242 2.601154 -0.761623 0
M  V30 42 H -1.990613 1.528553 1.651362 0
M  V30 43 H -2.519577 0.010237 0.731011 0
M  V30 44 H -3.669813 2.769810 0.167371 0
M  V30 45 H -4.395650 1.638358 1.433757 0
M  V30 46 H -5.093981 1.593692 -1.206379 0
M  V30 47 H -5.150845 0.189669 -0.120058 0
M  V30 48 H -4.862846 -0.628841 -2.795534 0
M  V30 49 H -3.196656 -1.218285 -2.860432 0
M  V30 50 H -6.433569 -1.551786 -1.157706 0
M  V30 51 H -6.930402 -3.569715 0.265959 0
M  V30 52 H -2.821877 -4.648202 0.034392 0
M  V30 53 H -1.580229 -0.203756 -1.821201 0
M  V30 54 H -2.166648 1.284173 -2.572807 0
M  V30 55 H 1.755312 -0.201750 0.486383 0
M  V30 56 H 2.528399 -2.257044 -0.482228 0
M  V30 57 H 1.522270 -4.455424 -0.098543 0
M  V30 END ATOM
M  V30 BEGIN BOND
M  V30 1 1 1 2
M  V30 2 2 2 3
M  V30 3 1 3 4
M  V30 4 1 4 5
M  V30 5 2 5 6
M  V30 6 1 6 7
M  V30 7 1 7 8
M  V30 8 2 8 9
M  V30 9 1 9 10
M  V30 10 2 10 11
M  V30 11 1 11 12
M  V30 12 2 12 13
M  V30 13 1 12 14
M  V30 14 1 14 15
M  V30 15 1 15 16
M  V30 16 1 16 17
M  V30 17 1 17 18
M  V30 18 1 18 19
M  V30 19 1 19 20
M  V30 20 1 20 21
M  V30 21 2 21 22
M  V30 22 1 22 23
M  V30 23 2 23 24
M  V30 24 1 24 25
M  V30 25 2 25 26
M  V30 26 1 19 27
M  V30 27 1 11 28
M  V30 28 2 28 29
M  V30 29 2 4 30
M  V30 30 1 30 31
M  V30 31 2 31 32
M  V30 32 1 32 2
M  V30 33 1 29 5
M  V30 34 1 29 8
M  V30 35 1 27 15
M  V30 36 1 26 21
M  V30 37 1 1 33
M  V30 38 1 1 34
M  V30 39 1 1 35
M  V30 40 1 3 36
M  V30 41 1 7 37
M  V30 42 1 9 38
M  V30 43 1 10 39
M  V30 44 1 14 40
M  V30 45 1 15 41 CFG=3
M  V30 46 1 16 42
M  V30 47 1 16 43
M  V30 48 1 17 44
M  V30 49 1 17 45
M  V30 50 1 18 46
M  V30 51 1 18 47
M  V30 52 1 20 48
M  V30 53 1 20 49
M  V30 54 1 22 50
M  V30 55 1 23 51
M  V30 56 1 25 52
M  V30 57 1 27 53
M  V30 58 1 27 54
M  V30 59 1 28 55
M  V30 60 1 30 56
M  V30 61 1 31 57
M  V30 END BOND
M  V30 END CTAB
M  END
>  <Dataset>  (387) 
ChEMBL_Kinases

>  <Ligand_Instance>  (387) 
nan

>  <PDB_ID>  (387) 
nan

>  <Standardized_SMILES>  (387) 
Cc1cc(-c2n[nH]c3ccc(C(=O)N[C@@H]4CCCN(Cc5ccncn5)C4)cc23)ccn1

>  <Name>  (387) 
nan

>  <Pocket>  (387) 
nan

>  <ATP_Site>  (387) 
nan

>  <Peripheral>  (387) 
nan

>  <Num_H_Atoms_ProtBoundConf>  (387) 
nan

>  <Num_Resolved_Atoms>  (387) 
nan

>  <Num_Not_Resolved_Atoms>  (387) 
nan

$$$$
CHEMBL3654516
     RDKit          3D

  0  0  0  0  0  0  0  0  0  0999 V3000
M  V30 BEGIN CTAB
M  V30 COUNTS 62 67 0 0 0
M  V30 BEGIN ATOM
M  V30 1 C 2.746868 -4.801752 4.358417 0
M  V30 2 C 2.651475 -3.373033 3.917797 0
M  V30 3 C 3.382936 -2.951282 2.818652 0
M  V30 4 C 3.309727 -1.623752 2.389444 0
M  V30 5 C 4.064609 -1.142680 1.237584 0
M  V30 6 N 5.367646 -1.409235 0.982626 0
M  V30 7 N 5.760414 -0.827811 -0.140804 0
M  V30 8 C 4.726826 -0.146707 -0.681337 0
M  V30 9 C 4.545573 0.626694 -1.810521 0
M  V30 10 C 3.293182 1.197906 -2.063857 0
M  V30 11 C 2.211453 1.015422 -1.213693 0
M  V30 12 C 0.941937 1.646584 -1.552639 0
M  V30 13 O 0.922419 2.319886 -2.604253 0
M  V30 14 N -0.195364 1.493210 -0.722901 0
M  V30 15 C -1.516747 2.082269 -0.968581 0 CFG=2
M  V30 16 C -1.783232 2.950012 0.248383 0
M  V30 17 C -3.167077 3.557300 0.205643 0
M  V30 18 C -4.109540 2.705184 -0.637722 0
M  V30 19 N -3.718685 1.350851 -0.445408 0
M  V30 20 C -4.772918 0.387177 -0.424076 0
M  V30 21 C -4.178901 -0.934764 -0.225053 0
M  V30 22 C -3.710521 -1.911883 -1.004490 0
M  V30 23 C -3.203277 -3.067208 -0.460914 0
M  V30 24 C -2.691093 -4.147025 -1.149595 0
M  V30 25 C -2.231291 -5.210798 -0.420632 0
M  V30 26 C -2.220807 -5.330028 0.953285 0
M  V30 27 C -2.738001 -4.237392 1.615978 0
M  V30 28 C -3.206529 -3.154839 0.893018 0
M  V30 29 S -3.927364 -1.608256 1.481955 0
M  V30 30 C -2.506443 0.939960 -1.068376 0
M  V30 31 C 2.447335 0.234956 -0.101680 0
M  V30 32 C 3.663090 -0.341333 0.178781 0
M  V30 33 C 2.474494 -0.771661 3.119583 0
M  V30 34 C 1.756038 -1.195004 4.202765 0
M  V30 35 N 1.865490 -2.486059 4.571279 0
M  V30 36 H 2.715280 -5.485011 3.484279 0
M  V30 37 H 3.647224 -4.979564 4.981662 0
M  V30 38 H 1.840261 -5.023547 4.969073 0
M  V30 39 H 4.001971 -3.652810 2.305294 0
M  V30 40 H 6.730606 -0.888849 -0.547783 0
M  V30 41 H 5.400149 0.749464 -2.448719 0
M  V30 42 H 3.239517 1.787602 -2.968750 0
M  V30 43 H -0.181153 0.930856 0.156161 0
M  V30 44 H -1.530508 2.681122 -1.900571 0
M  V30 45 H -1.045532 3.754027 0.264748 0
M  V30 46 H -1.654670 2.335825 1.155140 0
M  V30 47 H -3.151780 4.611099 -0.092765 0
M  V30 48 H -3.565276 3.535386 1.241906 0
M  V30 49 H -5.164572 2.793795 -0.316722 0
M  V30 50 H -4.035056 3.061514 -1.674070 0
M  V30 51 H -5.417773 0.624536 0.453658 0
M  V30 52 H -5.360558 0.362581 -1.368200 0
M  V30 53 H -3.783415 -1.676559 -2.073401 0
M  V30 54 H -2.633313 -4.197956 -2.232855 0
M  V30 55 H -1.821942 -6.073531 -0.976170 0
M  V30 56 H -1.848603 -6.186841 1.483481 0
M  V30 57 H -2.792316 -4.194282 2.702393 0
M  V30 58 H -2.626262 0.580531 -2.101654 0
M  V30 59 H -2.121711 0.065409 -0.467471 0
M  V30 60 H 1.622556 0.078124 0.574413 0
M  V30 61 H 2.368335 0.268426 2.845779 0
M  V30 62 H 1.113637 -0.518496 4.756193 0
M  V30 END ATOM
M  V30 BEGIN BOND
M  V30 1 1 1 2
M  V30 2 2 2 3
M  V30 3 1 3 4
M  V30 4 1 4 5
M  V30 5 2 5 6
M  V30 6 1 6 7
M  V30 7 1 7 8
M  V30 8 2 8 9
M  V30 9 1 9 10
M  V30 10 2 10 11
M  V30 11 1 11 12
M  V30 12 2 12 13
M  V30 13 1 12 14
M  V30 14 1 14 15
M  V30 15 1 15 16
M  V30 16 1 16 17
M  V30 17 1 17 18
M  V30 18 1 18 19
M  V30 19 1 19 20
M  V30 20 1 20 21
M  V30 21 2 21 22
M  V30 22 1 22 23
M  V30 23 2 23 24
M  V30 24 1 24 25
M  V30 25 2 25 26
M  V30 26 1 26 27
M  V30 27 2 27 28
M  V30 28 1 28 29
M  V30 29 1 19 30
M  V30 30 1 11 31
M  V30 31 2 31 32
M  V30 32 2 4 33
M  V30 33 1 33 34
M  V30 34 2 34 35
M  V30 35 1 35 2
M  V30 36 1 32 5
M  V30 37 1 32 8
M  V30 38 1 30 15
M  V30 39 1 29 21
M  V30 40 1 28 23
M  V30 41 1 1 36
M  V30 42 1 1 37
M  V30 43 1 1 38
M  V30 44 1 3 39
M  V30 45 1 7 40
M  V30 46 1 9 41
M  V30 47 1 10 42
M  V30 48 1 14 43
M  V30 49 1 15 44 CFG=3
M  V30 50 1 16 45
M  V30 51 1 16 46
M  V30 52 1 17 47
M  V30 53 1 17 48
M  V30 54 1 18 49
M  V30 55 1 18 50
M  V30 56 1 20 51
M  V30 57 1 20 52
M  V30 58 1 22 53
M  V30 59 1 24 54
M  V30 60 1 25 55
M  V30 61 1 26 56
M  V30 62 1 27 57
M  V30 63 1 30 58
M  V30 64 1 30 59
M  V30 65 1 31 60
M  V30 66 1 33 61
M  V30 67 1 34 62
M  V30 END BOND
M  V30 END CTAB
M  END
>  <Dataset>  (388) 
ChEMBL_Kinases

>  <Ligand_Instance>  (388) 
nan

>  <PDB_ID>  (388) 
nan

>  <Standardized_SMILES>  (388) 
Cc1cc(-c2n[nH]c3ccc(C(=O)N[C@@H]4CCCN(Cc5cc6ccccc6s5)C4)cc23)ccn1

>  <Name>  (388) 
nan

>  <Pocket>  (388) 
nan

>  <ATP_Site>  (388) 
nan

>  <Peripheral>  (388) 
nan

>  <Num_H_Atoms_ProtBoundConf>  (388) 
nan

>  <Num_Resolved_Atoms>  (388) 
nan

>  <Num_Not_Resolved_Atoms>  (388) 
nan

$$$$
CHEMBL3654515
     RDKit          3D

  0  0  0  0  0  0  0  0  0  0999 V3000
M  V30 BEGIN CTAB
M  V30 COUNTS 59 63 0 0 0
M  V30 BEGIN ATOM
M  V30 1 C 1.592730 -5.673021 4.334081 0
M  V30 2 C 1.777697 -4.247083 3.946106 0
M  V30 3 C 2.815336 -3.891998 3.110393 0
M  V30 4 C 3.030681 -2.577462 2.719373 0
M  V30 5 C 4.072141 -2.076801 1.858888 0
M  V30 6 N 5.372045 -2.437183 1.969778 0
M  V30 7 N 6.071488 -1.811106 1.041773 0
M  V30 8 C 5.267130 -1.028153 0.298647 0
M  V30 9 C 5.420943 -0.164781 -0.780230 0
M  V30 10 C 4.329680 0.517253 -1.331302 0
M  V30 11 C 3.075857 0.358603 -0.828748 0
M  V30 12 C 1.968258 1.089045 -1.434968 0
M  V30 13 O 2.293947 1.845402 -2.415044 0
M  V30 14 N 0.605043 1.029649 -1.038174 0
M  V30 15 C -0.425953 1.807040 -1.719237 0 CFG=2
M  V30 16 C -1.088388 2.806706 -0.866399 0
M  V30 17 C -2.508033 2.547279 -0.496649 0
M  V30 18 C -3.238223 1.642713 -1.454067 0
M  V30 19 N -2.501857 0.454305 -1.760175 0
M  V30 20 C -2.310004 -0.444891 -0.668873 0
M  V30 21 C -3.604527 -0.956670 -0.123576 0
M  V30 22 C -4.196773 -0.532436 1.060902 0
M  V30 23 C -5.395772 -1.088036 1.451410 0
M  V30 24 F -5.930764 -0.640696 2.612428 0
M  V30 25 C -5.988993 -2.050660 0.668537 0
M  V30 26 Cl -7.510144 -2.673090 1.280734 0
M  V30 27 C -5.423017 -2.485987 -0.506046 0
M  V30 28 C -4.221630 -1.931866 -0.900952 0
M  V30 29 Cl -3.503167 -2.497493 -2.410253 0
M  V30 30 C -1.305331 0.860036 -2.447565 0
M  V30 31 C 2.941559 -0.501325 0.241201 0
M  V30 32 C 3.997853 -1.185291 0.803464 0
M  V30 33 C 2.142216 -1.637927 3.216956 0
M  V30 34 C 1.104575 -2.025503 4.058500 0
M  V30 35 N 0.914637 -3.314414 4.425982 0
M  V30 36 H 1.756899 -6.362818 3.494580 0
M  V30 37 H 2.345355 -5.882328 5.134439 0
M  V30 38 H 0.572597 -5.799539 4.774113 0
M  V30 39 H 3.530600 -4.614402 2.704034 0
M  V30 40 H 7.100510 -1.839279 0.819633 0
M  V30 41 H 6.415944 -0.042307 -1.174845 0
M  V30 42 H 4.573230 1.154799 -2.160151 0
M  V30 43 H 0.488166 0.377773 -0.232074 0
M  V30 44 H 0.158469 2.377090 -2.506125 0
M  V30 45 H -0.490499 2.941459 0.058952 0
M  V30 46 H -1.078992 3.836607 -1.333618 0
M  V30 47 H -3.108607 3.478616 -0.425033 0
M  V30 48 H -2.589336 2.057937 0.502997 0
M  V30 49 H -3.364612 2.210774 -2.399366 0
M  V30 50 H -4.249523 1.445728 -1.054563 0
M  V30 51 H -1.843620 0.093940 0.209245 0
M  V30 52 H -1.659884 -1.287745 -0.884684 0
M  V30 53 H -3.663602 0.233474 1.625110 0
M  V30 54 H -5.935968 -3.245777 -1.080349 0
M  V30 55 H -0.719115 -0.003261 -2.821977 0
M  V30 56 H -1.667542 1.385989 -3.380145 0
M  V30 57 H 1.983041 -0.659645 0.668537 0
M  V30 58 H 2.114192 -0.588405 3.055677 0
M  V30 59 H 0.359924 -1.367778 4.498268 0
M  V30 END ATOM
M  V30 BEGIN BOND
M  V30 1 1 1 2
M  V30 2 2 2 3
M  V30 3 1 3 4
M  V30 4 1 4 5
M  V30 5 2 5 6
M  V30 6 1 6 7
M  V30 7 1 7 8
M  V30 8 2 8 9
M  V30 9 1 9 10
M  V30 10 2 10 11
M  V30 11 1 11 12
M  V30 12 2 12 13
M  V30 13 1 12 14
M  V30 14 1 14 15
M  V30 15 1 15 16
M  V30 16 1 16 17
M  V30 17 1 17 18
M  V30 18 1 18 19
M  V30 19 1 19 20
M  V30 20 1 20 21
M  V30 21 2 21 22
M  V30 22 1 22 23
M  V30 23 1 23 24
M  V30 24 2 23 25
M  V30 25 1 25 26
M  V30 26 1 25 27
M  V30 27 2 27 28
M  V30 28 1 28 29
M  V30 29 1 19 30
M  V30 30 1 11 31
M  V30 31 2 31 32
M  V30 32 2 4 33
M  V30 33 1 33 34
M  V30 34 2 34 35
M  V30 35 1 35 2
M  V30 36 1 32 5
M  V30 37 1 32 8
M  V30 38 1 30 15
M  V30 39 1 28 21
M  V30 40 1 1 36
M  V30 41 1 1 37
M  V30 42 1 1 38
M  V30 43 1 3 39
M  V30 44 1 7 40
M  V30 45 1 9 41
M  V30 46 1 10 42
M  V30 47 1 14 43
M  V30 48 1 15 44 CFG=3
M  V30 49 1 16 45
M  V30 50 1 16 46
M  V30 51 1 17 47
M  V30 52 1 17 48
M  V30 53 1 18 49
M  V30 54 1 18 50
M  V30 55 1 20 51
M  V30 56 1 20 52
M  V30 57 1 22 53
M  V30 58 1 27 54
M  V30 59 1 30 55
M  V30 60 1 30 56
M  V30 61 1 31 57
M  V30 62 1 33 58
M  V30 63 1 34 59
M  V30 END BOND
M  V30 END CTAB
M  END
>  <Dataset>  (389) 
ChEMBL_Kinases

>  <Ligand_Instance>  (389) 
nan

>  <PDB_ID>  (389) 
nan

>  <Standardized_SMILES>  (389) 
Cc1cc(-c2n[nH]c3ccc(C(=O)N[C@@H]4CCCN(Cc5cc(F)c(Cl)cc5Cl)C4)cc23)ccn1

>  <Name>  (389) 
nan

>  <Pocket>  (389) 
nan

>  <ATP_Site>  (389) 
nan

>  <Peripheral>  (389) 
nan

>  <Num_H_Atoms_ProtBoundConf>  (389) 
nan

>  <Num_Resolved_Atoms>  (389) 
nan

>  <Num_Not_Resolved_Atoms>  (389) 
nan

$$$$
CHEMBL3654514
     RDKit          3D

  0  0  0  0  0  0  0  0  0  0999 V3000
M  V30 BEGIN CTAB
M  V30 COUNTS 62 67 0 0 0
M  V30 BEGIN ATOM
M  V30 1 C 5.238774 -1.685806 6.644036 0
M  V30 2 C 4.892812 -1.743945 5.212978 0
M  V30 3 C 4.670944 -0.598395 4.468434 0
M  V30 4 C 4.343338 -0.644686 3.113686 0
M  V30 5 C 4.144031 0.655448 2.485810 0
M  V30 6 N 5.007749 1.684930 2.707902 0
M  V30 7 N 4.593107 2.746316 2.017725 0
M  V30 8 C 3.472671 2.406738 1.356199 0
M  V30 9 C 2.642198 3.113087 0.506113 0
M  V30 10 C 1.544101 2.467655 -0.025169 0
M  V30 11 C 1.240141 1.152403 0.254164 0
M  V30 12 C 0.089566 0.441691 -0.289437 0
M  V30 13 O -0.187580 -0.759920 -0.033393 0
M  V30 14 N -0.820825 1.082982 -1.171562 0
M  V30 15 C -2.005646 0.568729 -1.813287 0 CFG=2
M  V30 16 C -1.892720 0.741048 -3.289978 0
M  V30 17 C -3.227309 0.620298 -3.944702 0
M  V30 18 C -4.187009 -0.159729 -3.073959 0
M  V30 19 N -4.407894 0.523029 -1.843191 0
M  V30 20 C -5.099210 -0.257953 -0.866212 0
M  V30 21 C -4.396699 -1.519069 -0.488146 0
M  V30 22 C -4.646916 -2.698302 -1.199388 0
M  V30 23 C -3.878362 -3.720827 -0.658977 0
M  V30 24 C -3.668565 -5.078068 -0.893047 0
M  V30 25 C -2.784434 -5.765638 -0.098531 0
M  V30 26 C -2.097940 -5.152047 0.924606 0
M  V30 27 C -2.306991 -3.793724 1.159999 0
M  V30 28 C -3.190000 -3.080703 0.375751 0
M  V30 29 O -3.510552 -1.833632 0.440898 0
M  V30 30 C -3.264179 1.239553 -1.323971 0
M  V30 31 C 2.054681 0.412048 1.105781 0
M  V30 32 C 3.146100 1.081701 1.623374 0
M  V30 33 C 4.240751 -1.884333 2.508919 0
M  V30 34 C 4.470485 -2.984845 3.292375 0
M  V30 35 N 4.786094 -2.935227 4.598666 0
M  V30 36 H 5.669852 -0.689841 6.931175 0
M  V30 37 H 5.928361 -2.509039 6.876446 0
M  V30 38 H 4.351520 -1.805560 7.279568 0
M  V30 39 H 4.767784 0.343725 5.003893 0
M  V30 40 H 5.097586 3.659663 2.030303 0
M  V30 41 H 2.854511 4.134818 0.272423 0
M  V30 42 H 0.899699 3.025752 -0.688511 0
M  V30 43 H -0.716364 2.072503 -1.469708 0
M  V30 44 H -2.083933 -0.487743 -1.482167 0
M  V30 45 H -1.419295 1.712415 -3.509952 0
M  V30 46 H -1.171661 -0.044017 -3.656906 0
M  V30 47 H -3.701713 1.600784 -4.159389 0
M  V30 48 H -3.087916 0.088487 -4.912289 0
M  V30 49 H -3.837571 -1.202935 -2.994749 0
M  V30 50 H -5.155929 -0.198021 -3.628094 0
M  V30 51 H -5.202378 0.409272 0.041420 0
M  V30 52 H -6.141844 -0.492151 -1.142534 0
M  V30 53 H -5.314724 -2.842197 -2.034152 0
M  V30 54 H -4.262491 -5.439036 -1.718226 0
M  V30 55 H -2.681475 -6.823159 -0.351650 0
M  V30 56 H -1.408525 -5.741389 1.525176 0
M  V30 57 H -1.768370 -3.295192 1.968907 0
M  V30 58 H -3.321564 2.274931 -1.727584 0
M  V30 59 H -3.351711 1.223567 -0.214611 0
M  V30 60 H 1.871929 -0.613244 1.362045 0
M  V30 61 H 3.989296 -1.870012 1.476241 0
M  V30 62 H 4.391033 -3.955427 2.822167 0
M  V30 END ATOM
M  V30 BEGIN BOND
M  V30 1 1 1 2
M  V30 2 2 2 3
M  V30 3 1 3 4
M  V30 4 1 4 5
M  V30 5 2 5 6
M  V30 6 1 6 7
M  V30 7 1 7 8
M  V30 8 2 8 9
M  V30 9 1 9 10
M  V30 10 2 10 11
M  V30 11 1 11 12
M  V30 12 2 12 13
M  V30 13 1 12 14
M  V30 14 1 14 15
M  V30 15 1 15 16
M  V30 16 1 16 17
M  V30 17 1 17 18
M  V30 18 1 18 19
M  V30 19 1 19 20
M  V30 20 1 20 21
M  V30 21 2 21 22
M  V30 22 1 22 23
M  V30 23 2 23 24
M  V30 24 1 24 25
M  V30 25 2 25 26
M  V30 26 1 26 27
M  V30 27 2 27 28
M  V30 28 1 28 29
M  V30 29 1 19 30
M  V30 30 1 11 31
M  V30 31 2 31 32
M  V30 32 2 4 33
M  V30 33 1 33 34
M  V30 34 2 34 35
M  V30 35 1 35 2
M  V30 36 1 32 5
M  V30 37 1 32 8
M  V30 38 1 30 15
M  V30 39 1 29 21
M  V30 40 1 28 23
M  V30 41 1 1 36
M  V30 42 1 1 37
M  V30 43 1 1 38
M  V30 44 1 3 39
M  V30 45 1 7 40
M  V30 46 1 9 41
M  V30 47 1 10 42
M  V30 48 1 14 43
M  V30 49 1 15 44 CFG=3
M  V30 50 1 16 45
M  V30 51 1 16 46
M  V30 52 1 17 47
M  V30 53 1 17 48
M  V30 54 1 18 49
M  V30 55 1 18 50
M  V30 56 1 20 51
M  V30 57 1 20 52
M  V30 58 1 22 53
M  V30 59 1 24 54
M  V30 60 1 25 55
M  V30 61 1 26 56
M  V30 62 1 27 57
M  V30 63 1 30 58
M  V30 64 1 30 59
M  V30 65 1 31 60
M  V30 66 1 33 61
M  V30 67 1 34 62
M  V30 END BOND
M  V30 END CTAB
M  END
>  <Dataset>  (390) 
ChEMBL_Kinases

>  <Ligand_Instance>  (390) 
nan

>  <PDB_ID>  (390) 
nan

>  <Standardized_SMILES>  (390) 
Cc1cc(-c2n[nH]c3ccc(C(=O)N[C@@H]4CCCN(Cc5cc6ccccc6o5)C4)cc23)ccn1

>  <Name>  (390) 
nan

>  <Pocket>  (390) 
nan

>  <ATP_Site>  (390) 
nan

>  <Peripheral>  (390) 
nan

>  <Num_H_Atoms_ProtBoundConf>  (390) 
nan

>  <Num_Resolved_Atoms>  (390) 
nan

>  <Num_Not_Resolved_Atoms>  (390) 
nan

$$$$
CHEMBL3654513
     RDKit          3D

  0  0  0  0  0  0  0  0  0  0999 V3000
M  V30 BEGIN CTAB
M  V30 COUNTS 66 71 0 0 0
M  V30 BEGIN ATOM
M  V30 1 C 1.186943 1.232706 5.511545 0
M  V30 2 O 1.352346 2.132223 4.460143 0
M  V30 3 C 2.430960 2.124164 3.586956 0
M  V30 4 C 3.420358 1.195681 3.738778 0
M  V30 5 C 4.514999 1.143132 2.901804 0
M  V30 6 C 4.628899 2.058972 1.864816 0
M  V30 7 C 3.612414 2.982011 1.740341 0
M  V30 8 F 3.761489 3.868215 0.709288 0
M  V30 9 C 2.506490 3.062727 2.556919 0
M  V30 10 C 1.431058 4.079194 2.365764 0
M  V30 11 N 0.273732 3.480818 1.773550 0
M  V30 12 C -0.775425 4.424172 1.560393 0
M  V30 13 C -0.999527 4.765512 0.122279 0
M  V30 14 C -1.221135 3.605918 -0.788076 0
M  V30 15 C -0.626572 2.366258 -0.209400 0 CFG=1
M  V30 16 N -0.180182 1.393425 -1.173353 0
M  V30 17 C -0.638308 0.056528 -1.070262 0
M  V30 18 O -1.423270 -0.173794 -0.114868 0
M  V30 19 C -0.223494 -0.977856 -2.011021 0
M  V30 20 C 0.623596 -0.766943 -3.079207 0
M  V30 21 C 1.008410 -1.758178 -3.956420 0
M  V30 22 C 0.508512 -3.037288 -3.742502 0
M  V30 23 N 0.648876 -4.237579 -4.362925 0
M  V30 24 N -0.068200 -5.139003 -3.718143 0
M  V30 25 C -0.706470 -4.602644 -2.663897 0
M  V30 26 C -1.579639 -5.351697 -1.752452 0
M  V30 27 C -2.501273 -6.233217 -2.326438 0
M  V30 28 C -3.357047 -6.968266 -1.506574 0
M  V30 29 C -3.319939 -6.848070 -0.113847 0
M  V30 30 O -3.968115 -7.381078 0.886305 0
M  V30 31 C -3.497741 -6.878907 2.021759 0
M  V30 32 C -3.954118 -7.211461 3.411712 0
M  V30 33 N -2.524052 -6.005428 1.692940 0
M  V30 34 C -2.380226 -5.956312 0.357719 0
M  V30 35 C -1.499728 -5.193935 -0.384442 0
M  V30 36 C -0.347311 -3.249549 -2.663334 0
M  V30 37 C -0.726925 -2.268399 -1.796837 0
M  V30 38 C 0.624185 2.725022 0.611396 0
M  V30 39 H 0.126678 1.274057 5.845717 0
M  V30 40 H 1.873578 1.546588 6.344579 0
M  V30 41 H 1.479499 0.199276 5.252616 0
M  V30 42 H 3.368657 0.461262 4.538834 0
M  V30 43 H 5.312174 0.410535 3.009001 0
M  V30 44 H 5.480867 2.031634 1.199841 0
M  V30 45 H 1.867646 4.865035 1.713759 0
M  V30 46 H 1.223435 4.556305 3.344283 0
M  V30 47 H -0.508200 5.353692 2.096624 0
M  V30 48 H -1.729623 4.062895 1.996658 0
M  V30 49 H -1.924963 5.407208 0.055591 0
M  V30 50 H -0.193230 5.402169 -0.309112 0
M  V30 51 H -2.307360 3.391235 -0.981023 0
M  V30 52 H -0.790578 3.784238 -1.798240 0
M  V30 53 H -1.328369 1.945089 0.532530 0
M  V30 54 H 0.472078 1.696199 -1.927795 0
M  V30 55 H 1.008827 0.230809 -3.239899 0
M  V30 56 H 1.673320 -1.575672 -4.788458 0
M  V30 57 H 1.251483 -4.326198 -5.208585 0
M  V30 58 H -2.620086 -6.408634 -3.391462 0
M  V30 59 H -4.072673 -7.650997 -1.921562 0
M  V30 60 H -5.046850 -6.983681 3.497655 0
M  V30 61 H -3.824376 -8.267787 3.642381 0
M  V30 62 H -3.435227 -6.551530 4.113725 0
M  V30 63 H -0.804735 -4.528572 0.062381 0
M  V30 64 H -1.390427 -2.437505 -0.961108 0
M  V30 65 H 1.126030 1.773199 0.852997 0
M  V30 66 H 1.254635 3.307773 -0.095104 0
M  V30 END ATOM
M  V30 BEGIN BOND
M  V30 1 1 1 2
M  V30 2 1 2 3
M  V30 3 2 3 4
M  V30 4 1 4 5
M  V30 5 2 5 6
M  V30 6 1 6 7
M  V30 7 1 7 8
M  V30 8 2 7 9
M  V30 9 1 9 10
M  V30 10 1 10 11
M  V30 11 1 11 12
M  V30 12 1 12 13
M  V30 13 1 13 14
M  V30 14 1 14 15
M  V30 15 1 15 16
M  V30 16 1 16 17
M  V30 17 2 17 18
M  V30 18 1 17 19
M  V30 19 2 19 20
M  V30 20 1 20 21
M  V30 21 2 21 22
M  V30 22 1 22 23
M  V30 23 1 23 24
M  V30 24 2 24 25
M  V30 25 1 25 26
M  V30 26 2 26 27
M  V30 27 1 27 28
M  V30 28 2 28 29
M  V30 29 1 29 30
M  V30 30 1 30 31
M  V30 31 1 31 32
M  V30 32 2 31 33
M  V30 33 1 33 34
M  V30 34 2 34 35
M  V30 35 1 25 36
M  V30 36 2 36 37
M  V30 37 1 15 38
M  V30 38 1 9 3
M  V30 39 1 38 11
M  V30 40 1 37 19
M  V30 41 1 36 22
M  V30 42 1 35 26
M  V30 43 1 34 29
M  V30 44 1 1 39
M  V30 45 1 1 40
M  V30 46 1 1 41
M  V30 47 1 4 42
M  V30 48 1 5 43
M  V30 49 1 6 44
M  V30 50 1 10 45
M  V30 51 1 10 46
M  V30 52 1 12 47
M  V30 53 1 12 48
M  V30 54 1 13 49
M  V30 55 1 13 50
M  V30 56 1 14 51
M  V30 57 1 14 52
M  V30 58 1 15 53 CFG=1
M  V30 59 1 16 54
M  V30 60 1 20 55
M  V30 61 1 21 56
M  V30 62 1 23 57
M  V30 63 1 27 58
M  V30 64 1 28 59
M  V30 65 1 32 60
M  V30 66 1 32 61
M  V30 67 1 32 62
M  V30 68 1 35 63
M  V30 69 1 37 64
M  V30 70 1 38 65
M  V30 71 1 38 66
M  V30 END BOND
M  V30 END CTAB
M  END
>  <Dataset>  (391) 
ChEMBL_Kinases

>  <Ligand_Instance>  (391) 
nan

>  <PDB_ID>  (391) 
nan

>  <Standardized_SMILES>  (391) 
COc1cccc(F)c1CN1CCC[C@@H](NC(=O)c2ccc3[nH]nc(-c4ccc5oc(C)nc5c4)c3c2)C1

>  <Name>  (391) 
nan

>  <Pocket>  (391) 
nan

>  <ATP_Site>  (391) 
nan

>  <Peripheral>  (391) 
nan

>  <Num_H_Atoms_ProtBoundConf>  (391) 
nan

>  <Num_Resolved_Atoms>  (391) 
nan

>  <Num_Not_Resolved_Atoms>  (391) 
nan

$$$$
CHEMBL3654512
     RDKit          3D

  0  0  0  0  0  0  0  0  0  0999 V3000
M  V30 BEGIN CTAB
M  V30 COUNTS 66 71 0 0 0
M  V30 BEGIN ATOM
M  V30 1 C 2.076665 1.171949 5.324892 0
M  V30 2 O 1.924228 2.167946 4.312917 0
M  V30 3 C 2.925967 2.255632 3.356175 0
M  V30 4 C 4.042503 1.457725 3.316053 0
M  V30 5 C 5.018038 1.570095 2.353020 0
M  V30 6 C 4.890449 2.527511 1.364211 0
M  V30 7 C 3.770335 3.348193 1.381546 0
M  V30 8 F 3.706040 4.277779 0.373679 0
M  V30 9 C 2.812963 3.204720 2.364465 0
M  V30 10 C 1.646785 4.124415 2.305128 0
M  V30 11 N 0.460246 3.472781 1.820580 0
M  V30 12 C -0.619456 4.384538 1.754584 0
M  V30 13 C -1.236794 4.582861 0.407834 0
M  V30 14 C -1.518321 3.332158 -0.363704 0
M  V30 15 C -0.606959 2.206004 0.041797 0 CFG=1
M  V30 16 N -0.430540 1.327128 -1.058582 0
M  V30 17 C -0.790748 -0.020132 -0.943709 0
M  V30 18 O -1.274856 -0.419944 0.170839 0
M  V30 19 C -0.642589 -0.992860 -2.027470 0
M  V30 20 C -0.191016 -0.675154 -3.292685 0
M  V30 21 C -0.054808 -1.621005 -4.295620 0
M  V30 22 C -0.377948 -2.938958 -4.040847 0
M  V30 23 N -0.385000 -4.106207 -4.707822 0
M  V30 24 N -0.803370 -5.106991 -3.952796 0
M  V30 25 C -1.103378 -4.641689 -2.712980 0
M  V30 26 C -1.594133 -5.415187 -1.576990 0
M  V30 27 C -0.915341 -6.621136 -1.361320 0
M  V30 28 C -1.225611 -7.492414 -0.338897 0
M  V30 29 C -2.259698 -7.137889 0.500462 0
M  V30 30 N -2.826448 -7.727904 1.578729 0
M  V30 31 C -3.819904 -6.933201 2.027511 0
M  V30 32 C -4.744061 -7.128454 3.181312 0
M  V30 33 O -3.872543 -5.871472 1.247773 0
M  V30 34 C -2.950088 -5.957990 0.317743 0
M  V30 35 C -2.621628 -5.100868 -0.713096 0
M  V30 36 C -0.832039 -3.291566 -2.788486 0
M  V30 37 C -0.953423 -2.319823 -1.817899 0
M  V30 38 C 0.694722 2.713497 0.620480 0
M  V30 39 H 1.157319 1.089362 5.949604 0
M  V30 40 H 2.942328 1.424760 5.964954 0
M  V30 41 H 2.285589 0.189718 4.853127 0
M  V30 42 H 4.164286 0.699573 4.080916 0
M  V30 43 H 5.897747 0.955060 2.308283 0
M  V30 44 H 5.640213 2.637483 0.596729 0
M  V30 45 H 1.832931 5.026720 1.726965 0
M  V30 46 H 1.430962 4.471994 3.357706 0
M  V30 47 H -0.256287 5.391371 2.070020 0
M  V30 48 H -1.382259 4.126858 2.540660 0
M  V30 49 H -0.680383 5.337148 -0.193997 0
M  V30 50 H -2.234073 5.076214 0.594928 0
M  V30 51 H -2.563775 2.989499 -0.212938 0
M  V30 52 H -1.406477 3.489285 -1.474303 0
M  V30 53 H -1.113511 1.661445 0.888161 0
M  V30 54 H -0.028925 1.695893 -1.955969 0
M  V30 55 H 0.063002 0.358173 -3.496488 0
M  V30 56 H 0.299205 -1.367979 -5.285239 0
M  V30 57 H -0.076004 -4.146108 -5.726296 0
M  V30 58 H -0.086230 -6.969375 -1.986353 0
M  V30 59 H -0.713157 -8.412550 -0.166064 0
M  V30 60 H -5.774878 -7.190574 2.744017 0
M  V30 61 H -4.476356 -8.015464 3.781717 0
M  V30 62 H -4.753133 -6.184589 3.772375 0
M  V30 63 H -3.113448 -4.161647 -0.921748 0
M  V30 64 H -1.308411 -2.582677 -0.830638 0
M  V30 65 H 1.296512 1.824739 0.893079 0
M  V30 66 H 1.195758 3.407275 -0.084796 0
M  V30 END ATOM
M  V30 BEGIN BOND
M  V30 1 1 1 2
M  V30 2 1 2 3
M  V30 3 2 3 4
M  V30 4 1 4 5
M  V30 5 2 5 6
M  V30 6 1 6 7
M  V30 7 1 7 8
M  V30 8 2 7 9
M  V30 9 1 9 10
M  V30 10 1 10 11
M  V30 11 1 11 12
M  V30 12 1 12 13
M  V30 13 1 13 14
M  V30 14 1 14 15
M  V30 15 1 15 16
M  V30 16 1 16 17
M  V30 17 2 17 18
M  V30 18 1 17 19
M  V30 19 2 19 20
M  V30 20 1 20 21
M  V30 21 2 21 22
M  V30 22 1 22 23
M  V30 23 1 23 24
M  V30 24 2 24 25
M  V30 25 1 25 26
M  V30 26 2 26 27
M  V30 27 1 27 28
M  V30 28 2 28 29
M  V30 29 1 29 30
M  V30 30 2 30 31
M  V30 31 1 31 32
M  V30 32 1 31 33
M  V30 33 1 33 34
M  V30 34 2 34 35
M  V30 35 1 25 36
M  V30 36 2 36 37
M  V30 37 1 15 38
M  V30 38 1 9 3
M  V30 39 1 38 11
M  V30 40 1 37 19
M  V30 41 1 36 22
M  V30 42 1 35 26
M  V30 43 1 34 29
M  V30 44 1 1 39
M  V30 45 1 1 40
M  V30 46 1 1 41
M  V30 47 1 4 42
M  V30 48 1 5 43
M  V30 49 1 6 44
M  V30 50 1 10 45
M  V30 51 1 10 46
M  V30 52 1 12 47
M  V30 53 1 12 48
M  V30 54 1 13 49
M  V30 55 1 13 50
M  V30 56 1 14 51
M  V30 57 1 14 52
M  V30 58 1 15 53 CFG=1
M  V30 59 1 16 54
M  V30 60 1 20 55
M  V30 61 1 21 56
M  V30 62 1 23 57
M  V30 63 1 27 58
M  V30 64 1 28 59
M  V30 65 1 32 60
M  V30 66 1 32 61
M  V30 67 1 32 62
M  V30 68 1 35 63
M  V30 69 1 37 64
M  V30 70 1 38 65
M  V30 71 1 38 66
M  V30 END BOND
M  V30 END CTAB
M  END
>  <Dataset>  (392) 
ChEMBL_Kinases

>  <Ligand_Instance>  (392) 
nan

>  <PDB_ID>  (392) 
nan

>  <Standardized_SMILES>  (392) 
COc1cccc(F)c1CN1CCC[C@@H](NC(=O)c2ccc3[nH]nc(-c4ccc5nc(C)oc5c4)c3c2)C1

>  <Name>  (392) 
nan

>  <Pocket>  (392) 
nan

>  <ATP_Site>  (392) 
nan

>  <Peripheral>  (392) 
nan

>  <Num_H_Atoms_ProtBoundConf>  (392) 
nan

>  <Num_Resolved_Atoms>  (392) 
nan

>  <Num_Not_Resolved_Atoms>  (392) 
nan

$$$$
CHEMBL3654511
     RDKit          3D

  0  0  0  0  0  0  0  0  0  0999 V3000
M  V30 BEGIN CTAB
M  V30 COUNTS 64 69 0 0 0
M  V30 BEGIN ATOM
M  V30 1 C 3.218685 -1.386689 0.065448 0
M  V30 2 O 3.285429 0.033616 0.016115 0
M  V30 3 C 3.826915 0.803319 1.019335 0
M  V30 4 C 4.363670 0.297021 2.178752 0
M  V30 5 C 4.906673 1.091357 3.183365 0
M  V30 6 C 4.909209 2.465054 3.013368 0
M  V30 7 C 4.377296 2.997834 1.861416 0
M  V30 8 F 4.385718 4.360077 1.706383 0
M  V30 9 C 3.839785 2.170556 0.871046 0
M  V30 10 C 3.300579 2.895893 -0.334471 0
M  V30 11 N 1.895622 2.924807 -0.347027 0
M  V30 12 C 1.328237 3.665172 -1.394800 0
M  V30 13 C -0.171977 3.746623 -1.414249 0
M  V30 14 C -0.809365 3.702003 -0.049991 0
M  V30 15 C -0.258156 2.535164 0.745380 0 CFG=1
M  V30 16 N -0.434729 1.283126 0.093951 0
M  V30 17 C -1.096850 0.087268 0.445584 0
M  V30 18 O -1.667023 0.069278 1.553410 0
M  V30 19 C -1.118769 -1.076282 -0.437777 0
M  V30 20 C -0.435041 -1.103176 -1.655993 0
M  V30 21 C -0.482869 -2.231638 -2.478371 0
M  V30 22 C -1.205607 -3.336874 -2.101191 0
M  V30 23 N -1.400305 -4.523278 -2.714567 0
M  V30 24 N -2.194341 -5.269338 -1.925823 0
M  V30 25 C -2.485094 -4.525229 -0.817891 0
M  V30 26 C -3.334831 -5.037254 0.250741 0
M  V30 27 C -3.153333 -6.329964 0.738354 0
M  V30 28 C -3.959175 -6.821354 1.749446 0
M  V30 29 C -4.969720 -6.046003 2.308116 0
M  V30 30 C -5.938204 -6.193144 3.295505 0
M  V30 31 N -6.642088 -5.043344 3.372894 0
M  V30 32 C -6.161512 -4.166076 2.472838 0
M  V30 33 N -5.139459 -4.780738 1.823203 0
M  V30 34 C -4.353381 -4.299810 0.836175 0
M  V30 35 C -1.879003 -3.292447 -0.887186 0
M  V30 36 C -1.842200 -2.186017 -0.062188 0
M  V30 37 C 1.235104 2.826679 0.887931 0
M  V30 38 H 2.817830 -1.732693 -0.913609 0
M  V30 39 H 4.174186 -1.855726 0.302493 0
M  V30 40 H 2.422911 -1.593599 0.840800 0
M  V30 41 H 4.373087 -0.780027 2.336856 0
M  V30 42 H 5.331253 0.686032 4.097755 0
M  V30 43 H 5.317543 3.163652 3.754380 0
M  V30 44 H 3.769013 3.891112 -0.438435 0
M  V30 45 H 3.683890 2.319996 -1.227012 0
M  V30 46 H 1.701096 3.385399 -2.416238 0
M  V30 47 H 1.680813 4.734224 -1.283772 0
M  V30 48 H -0.552297 2.949226 -2.082078 0
M  V30 49 H -0.509931 4.708648 -1.902148 0
M  V30 50 H -0.599290 4.618535 0.514894 0
M  V30 51 H -1.906965 3.615912 -0.219066 0
M  V30 52 H -0.697544 2.607290 1.758549 0
M  V30 53 H 0.067570 1.390764 -0.814212 0
M  V30 54 H 0.144333 -0.253512 -1.985208 0
M  V30 55 H 0.058638 -2.238723 -3.431816 0
M  V30 56 H -1.046037 -4.887678 -3.624337 0
M  V30 57 H -2.377974 -6.963015 0.328519 0
M  V30 58 H -3.837871 -7.823311 2.145163 0
M  V30 59 H -6.064420 -7.096474 3.874056 0
M  V30 60 H -6.561776 -3.170409 2.342087 0
M  V30 61 H -4.513095 -3.298179 0.475608 0
M  V30 62 H -2.396882 -2.230040 0.873764 0
M  V30 63 H 1.268093 3.832318 1.388383 0
M  V30 64 H 1.724397 2.128706 1.571111 0
M  V30 END ATOM
M  V30 BEGIN BOND
M  V30 1 1 1 2
M  V30 2 1 2 3
M  V30 3 2 3 4
M  V30 4 1 4 5
M  V30 5 2 5 6
M  V30 6 1 6 7
M  V30 7 1 7 8
M  V30 8 2 7 9
M  V30 9 1 9 10
M  V30 10 1 10 11
M  V30 11 1 11 12
M  V30 12 1 12 13
M  V30 13 1 13 14
M  V30 14 1 14 15
M  V30 15 1 15 16
M  V30 16 1 16 17
M  V30 17 2 17 18
M  V30 18 1 17 19
M  V30 19 2 19 20
M  V30 20 1 20 21
M  V30 21 2 21 22
M  V30 22 1 22 23
M  V30 23 1 23 24
M  V30 24 2 24 25
M  V30 25 1 25 26
M  V30 26 1 26 27
M  V30 27 2 27 28
M  V30 28 1 28 29
M  V30 29 2 29 30
M  V30 30 1 30 31
M  V30 31 2 31 32
M  V30 32 1 32 33
M  V30 33 1 33 34
M  V30 34 1 25 35
M  V30 35 2 35 36
M  V30 36 1 15 37
M  V30 37 1 9 3
M  V30 38 1 37 11
M  V30 39 1 36 19
M  V30 40 1 35 22
M  V30 41 2 34 26
M  V30 42 1 33 29
M  V30 43 1 1 38
M  V30 44 1 1 39
M  V30 45 1 1 40
M  V30 46 1 4 41
M  V30 47 1 5 42
M  V30 48 1 6 43
M  V30 49 1 10 44
M  V30 50 1 10 45
M  V30 51 1 12 46
M  V30 52 1 12 47
M  V30 53 1 13 48
M  V30 54 1 13 49
M  V30 55 1 14 50
M  V30 56 1 14 51
M  V30 57 1 15 52 CFG=1
M  V30 58 1 16 53
M  V30 59 1 20 54
M  V30 60 1 21 55
M  V30 61 1 23 56
M  V30 62 1 27 57
M  V30 63 1 28 58
M  V30 64 1 30 59
M  V30 65 1 32 60
M  V30 66 1 34 61
M  V30 67 1 36 62
M  V30 68 1 37 63
M  V30 69 1 37 64
M  V30 END BOND
M  V30 END CTAB
M  END
>  <Dataset>  (393) 
ChEMBL_Kinases

>  <Ligand_Instance>  (393) 
nan

>  <PDB_ID>  (393) 
nan

>  <Standardized_SMILES>  (393) 
COc1cccc(F)c1CN1CCC[C@@H](NC(=O)c2ccc3[nH]nc(-c4ccc5cncn5c4)c3c2)C1

>  <Name>  (393) 
nan

>  <Pocket>  (393) 
nan

>  <ATP_Site>  (393) 
nan

>  <Peripheral>  (393) 
nan

>  <Num_H_Atoms_ProtBoundConf>  (393) 
nan

>  <Num_Resolved_Atoms>  (393) 
nan

>  <Num_Not_Resolved_Atoms>  (393) 
nan

$$$$
CHEMBL3654510
     RDKit          3D

  0  0  0  0  0  0  0  0  0  0999 V3000
M  V30 BEGIN CTAB
M  V30 COUNTS 64 68 0 0 0
M  V30 BEGIN ATOM
M  V30 1 C 1.835964 -0.942622 4.110764 0
M  V30 2 C 3.279144 -0.514702 4.026940 0
M  V30 3 N 3.411771 0.911664 3.721205 0
M  V30 4 C 3.476412 1.369053 2.436991 0
M  V30 5 C 3.603019 2.749381 2.505918 0
M  V30 6 C 3.694716 3.535235 1.282130 0
M  V30 7 N 4.580565 4.520507 1.056491 0
M  V30 8 N 4.372512 5.017599 -0.163643 0
M  V30 9 C 3.343568 4.339521 -0.716541 0
M  V30 10 C 2.707026 4.438659 -1.959658 0
M  V30 11 C 1.646456 3.581837 -2.246494 0
M  V30 12 C 1.227971 2.653885 -1.329906 0
M  V30 13 C 0.109826 1.817739 -1.745013 0
M  V30 14 O -0.403496 1.900141 -2.878342 0
M  V30 15 N -0.486808 0.832779 -0.875464 0
M  V30 16 C -1.586860 0.016836 -1.296057 0 CFG=2
M  V30 17 C -2.839072 0.427509 -0.513358 0
M  V30 18 C -3.978421 -0.134217 -1.375864 0
M  V30 19 C -3.856944 -1.633994 -1.362791 0
M  V30 20 N -2.585400 -2.172584 -1.447382 0
M  V30 21 C -2.382756 -3.551982 -1.650586 0
M  V30 22 C -2.932181 -4.472838 -0.653139 0
M  V30 23 C -4.243633 -4.866631 -0.544954 0
M  V30 24 F -5.150200 -4.402694 -1.435922 0
M  V30 25 C -4.765196 -5.722956 0.398657 0
M  V30 26 C -3.902480 -6.253388 1.342336 0
M  V30 27 C -2.573642 -5.883670 1.269953 0
M  V30 28 C -2.059836 -5.011022 0.303384 0
M  V30 29 O -0.706182 -4.720708 0.339869 0
M  V30 30 C 0.141503 -5.301864 1.343107 0
M  V30 31 C -1.419636 -1.441191 -1.166551 0
M  V30 32 C 1.826574 2.522981 -0.096855 0
M  V30 33 C 2.881044 3.388617 0.164813 0
M  V30 34 C 3.611637 3.090888 3.827827 0
M  V30 35 N 3.493721 1.950230 4.531391 0
M  V30 36 H 1.545125 -1.502266 3.197471 0
M  V30 37 H 1.748307 -1.688929 4.955013 0
M  V30 38 H 1.130693 -0.117456 4.286208 0
M  V30 39 H 3.806950 -0.671197 5.008606 0
M  V30 40 H 3.784723 -1.138612 3.271756 0
M  V30 41 H 3.433406 0.732194 1.541749 0
M  V30 42 H 4.873097 5.789093 -0.665704 0
M  V30 43 H 3.084949 5.201732 -2.653869 0
M  V30 44 H 1.253613 3.771970 -3.237629 0
M  V30 45 H -0.125820 0.697957 0.083073 0
M  V30 46 H -1.806912 0.278026 -2.347634 0
M  V30 47 H -2.905517 1.506998 -0.379889 0
M  V30 48 H -2.847264 -0.166513 0.417691 0
M  V30 49 H -3.922620 0.304301 -2.393906 0
M  V30 50 H -4.901404 0.182672 -0.892468 0
M  V30 51 H -4.464248 -1.991797 -0.487026 0
M  V30 52 H -4.449858 -1.971910 -2.267455 0
M  V30 53 H -1.263706 -3.706224 -1.729964 0
M  V30 54 H -2.736278 -3.790611 -2.690387 0
M  V30 55 H -5.807085 -5.996814 0.435167 0
M  V30 56 H -4.257383 -6.930400 2.103534 0
M  V30 57 H -1.938865 -6.330997 2.039442 0
M  V30 58 H -0.036444 -6.395556 1.301625 0
M  V30 59 H -0.140163 -4.930794 2.331033 0
M  V30 60 H 1.208710 -5.158787 1.077813 0
M  V30 61 H -0.663472 -1.744173 -1.959361 0
M  V30 62 H -0.958989 -1.759692 -0.204549 0
M  V30 63 H 1.496284 1.793939 0.617188 0
M  V30 64 H 3.699952 4.110469 4.172934 0
M  V30 END ATOM
M  V30 BEGIN BOND
M  V30 1 1 1 2
M  V30 2 1 2 3
M  V30 3 1 3 4
M  V30 4 2 4 5
M  V30 5 1 5 6
M  V30 6 2 6 7
M  V30 7 1 7 8
M  V30 8 1 8 9
M  V30 9 2 9 10
M  V30 10 1 10 11
M  V30 11 2 11 12
M  V30 12 1 12 13
M  V30 13 2 13 14
M  V30 14 1 13 15
M  V30 15 1 15 16
M  V30 16 1 16 17
M  V30 17 1 17 18
M  V30 18 1 18 19
M  V30 19 1 19 20
M  V30 20 1 20 21
M  V30 21 1 21 22
M  V30 22 2 22 23
M  V30 23 1 23 24
M  V30 24 1 23 25
M  V30 25 2 25 26
M  V30 26 1 26 27
M  V30 27 2 27 28
M  V30 28 1 28 29
M  V30 29 1 29 30
M  V30 30 1 20 31
M  V30 31 1 12 32
M  V30 32 2 32 33
M  V30 33 1 5 34
M  V30 34 2 34 35
M  V30 35 1 35 3
M  V30 36 1 33 6
M  V30 37 1 33 9
M  V30 38 1 31 16
M  V30 39 1 28 22
M  V30 40 1 1 36
M  V30 41 1 1 37
M  V30 42 1 1 38
M  V30 43 1 2 39
M  V30 44 1 2 40
M  V30 45 1 4 41
M  V30 46 1 8 42
M  V30 47 1 10 43
M  V30 48 1 11 44
M  V30 49 1 15 45
M  V30 50 1 16 46 CFG=3
M  V30 51 1 17 47
M  V30 52 1 17 48
M  V30 53 1 18 49
M  V30 54 1 18 50
M  V30 55 1 19 51
M  V30 56 1 19 52
M  V30 57 1 21 53
M  V30 58 1 21 54
M  V30 59 1 25 55
M  V30 60 1 26 56
M  V30 61 1 27 57
M  V30 62 1 30 58
M  V30 63 1 30 59
M  V30 64 1 30 60
M  V30 65 1 31 61
M  V30 66 1 31 62
M  V30 67 1 32 63
M  V30 68 1 34 64
M  V30 END BOND
M  V30 END CTAB
M  END
>  <Dataset>  (394) 
ChEMBL_Kinases

>  <Ligand_Instance>  (394) 
nan

>  <PDB_ID>  (394) 
nan

>  <Standardized_SMILES>  (394) 
CCn1cc(-c2n[nH]c3ccc(C(=O)N[C@@H]4CCCN(Cc5c(F)cccc5OC)C4)cc23)cn1

>  <Name>  (394) 
nan

>  <Pocket>  (394) 
nan

>  <ATP_Site>  (394) 
nan

>  <Peripheral>  (394) 
nan

>  <Num_H_Atoms_ProtBoundConf>  (394) 
nan

>  <Num_Resolved_Atoms>  (394) 
nan

>  <Num_Not_Resolved_Atoms>  (394) 
nan

$$$$
CHEMBL3659977
     RDKit          3D

  0  0  0  0  0  0  0  0  0  0999 V3000
M  V30 BEGIN CTAB
M  V30 COUNTS 55 60 0 0 0
M  V30 BEGIN ATOM
M  V30 1 O 1.989339 -4.736873 -3.760764 0
M  V30 2 C 1.796756 -5.529898 -2.785874 0
M  V30 3 N 2.384363 -5.088134 -1.592600 0
M  V30 4 C 3.152309 -3.954242 -1.205904 0
M  V30 5 C 4.509495 -4.119409 -1.344181 0
M  V30 6 C 5.354196 -3.063801 -0.991382 0
M  V30 7 C 4.843659 -1.866488 -0.509303 0
M  V30 8 N 5.402141 -0.695957 -0.096981 0
M  V30 9 N 4.414680 0.132300 0.271896 0
M  V30 10 C 3.233241 -0.488824 0.102472 0
M  V30 11 C 1.929301 0.100966 0.398705 0
M  V30 12 N 0.737304 -0.514998 0.231855 0
M  V30 13 C -0.254504 0.342423 0.612103 0
M  V30 14 C -1.610183 0.155555 0.616991 0
M  V30 15 C -2.395596 1.207931 1.059594 0
M  V30 16 C -1.809944 2.390170 1.474855 0
M  V30 17 C -2.625159 3.521651 1.949135 0
M  V30 18 N -2.847763 3.458047 3.356559 0
M  V30 19 C -3.535563 2.267298 3.786963 0
M  V30 20 C -5.012814 2.267664 3.476923 0
M  V30 21 O -5.539457 3.542844 3.336418 0
M  V30 22 C -4.928319 4.395456 4.234143 0
M  V30 23 C -3.457834 4.630453 3.892094 0
M  V30 24 C -0.434026 2.497371 1.438652 0
M  V30 25 C 0.414983 1.482682 1.006777 0
M  V30 26 N 1.739307 1.342542 0.879749 0
M  V30 27 C 3.471242 -1.756326 -0.391017 0
M  V30 28 C 2.604097 -2.776656 -0.729200 0
M  V30 29 C 1.050708 -6.813344 -2.778319 0
M  V30 30 C -0.279610 -6.779840 -3.548692 0
M  V30 31 C 0.949200 -7.555631 -4.043080 0
M  V30 32 F 0.808798 -8.920455 -4.107273 0
M  V30 33 F 1.646213 -7.033169 -5.122343 0
M  V30 34 H 2.326558 -5.622110 -0.676419 0
M  V30 35 H 4.996474 -5.019350 -1.712283 0
M  V30 36 H 6.429422 -3.134026 -1.077962 0
M  V30 37 H 6.448587 -0.570121 -0.107681 0
M  V30 38 H -2.035242 -0.783366 0.284955 0
M  V30 39 H -3.477154 1.119640 1.086518 0
M  V30 40 H -2.076848 4.462960 1.739138 0
M  V30 41 H -3.553406 3.566355 1.349338 0
M  V30 42 H -3.040936 1.358680 3.446827 0
M  V30 43 H -3.467714 2.277522 4.909602 0
M  V30 44 H -5.276266 1.659737 2.587534 0
M  V30 45 H -5.592421 1.788818 4.315510 0
M  V30 46 H -5.051758 4.047000 5.296784 0
M  V30 47 H -5.440161 5.375729 4.179875 0
M  V30 48 H -2.969021 4.810891 4.893146 0
M  V30 49 H -3.302185 5.543627 3.316481 0
M  V30 50 H 0.002423 3.434735 1.769469 0
M  V30 51 H 2.457850 2.043018 1.105055 0
M  V30 52 H 1.525637 -2.703621 -0.641366 0
M  V30 53 H 0.988210 -7.381806 -1.806376 0
M  V30 54 H -0.526432 -5.872658 -4.108159 0
M  V30 55 H -1.121096 -7.383899 -3.161707 0
M  V30 END ATOM
M  V30 BEGIN BOND
M  V30 1 2 1 2
M  V30 2 1 2 3
M  V30 3 1 3 4
M  V30 4 2 4 5
M  V30 5 1 5 6
M  V30 6 2 6 7
M  V30 7 1 7 8
M  V30 8 1 8 9
M  V30 9 2 9 10
M  V30 10 1 10 11
M  V30 11 2 11 12
M  V30 12 1 12 13
M  V30 13 2 13 14
M  V30 14 1 14 15
M  V30 15 2 15 16
M  V30 16 1 16 17
M  V30 17 1 17 18
M  V30 18 1 18 19
M  V30 19 1 19 20
M  V30 20 1 20 21
M  V30 21 1 21 22
M  V30 22 1 22 23
M  V30 23 1 16 24
M  V30 24 2 24 25
M  V30 25 1 25 26
M  V30 26 1 10 27
M  V30 27 2 27 28
M  V30 28 1 2 29
M  V30 29 1 29 30
M  V30 30 1 30 31
M  V30 31 1 31 32
M  V30 32 1 31 33
M  V30 33 1 28 4
M  V30 34 1 31 29
M  V30 35 1 27 7
M  V30 36 1 26 11
M  V30 37 1 25 13
M  V30 38 1 23 18
M  V30 39 1 3 34
M  V30 40 1 5 35
M  V30 41 1 6 36
M  V30 42 1 8 37
M  V30 43 1 14 38
M  V30 44 1 15 39
M  V30 45 1 17 40
M  V30 46 1 17 41
M  V30 47 1 19 42
M  V30 48 1 19 43
M  V30 49 1 20 44
M  V30 50 1 20 45
M  V30 51 1 22 46
M  V30 52 1 22 47
M  V30 53 1 23 48
M  V30 54 1 23 49
M  V30 55 1 24 50
M  V30 56 1 26 51
M  V30 57 1 28 52
M  V30 58 1 29 53
M  V30 59 1 30 54
M  V30 60 1 30 55
M  V30 END BOND
M  V30 END CTAB
M  END
>  <Dataset>  (395) 
ChEMBL_Kinases

>  <Ligand_Instance>  (395) 
nan

>  <PDB_ID>  (395) 
nan

>  <Standardized_SMILES>  (395) 
O=C(Nc1ccc2[nH]nc(-c3nc4ccc(CN5CCOCC5)cc4[nH]3)c2c1)C1CC1(F)F

>  <Name>  (395) 
nan

>  <Pocket>  (395) 
nan

>  <ATP_Site>  (395) 
nan

>  <Peripheral>  (395) 
nan

>  <Num_H_Atoms_ProtBoundConf>  (395) 
nan

>  <Num_Resolved_Atoms>  (395) 
nan

>  <Num_Not_Resolved_Atoms>  (395) 
nan

$$$$
CHEMBL3654508
     RDKit          3D

  0  0  0  0  0  0  0  0  0  0999 V3000
M  V30 BEGIN CTAB
M  V30 COUNTS 66 71 0 0 0
M  V30 BEGIN ATOM
M  V30 1 C 6.398984 -1.437703 2.324133 0
M  V30 2 C 6.086522 -0.055700 2.766676 0
M  V30 3 C 5.447065 0.794489 1.889207 0
M  V30 4 C 5.144814 2.084149 2.274127 0
M  V30 5 C 4.476182 3.120557 1.493378 0
M  V30 6 N 4.887322 4.408357 1.414374 0
M  V30 7 N 4.062596 5.082150 0.629896 0
M  V30 8 C 3.104065 4.244585 0.187489 0
M  V30 9 C 2.006680 4.379742 -0.634373 0
M  V30 10 C 1.152300 3.343773 -0.943666 0
M  V30 11 C 1.398363 2.096105 -0.406786 0
M  V30 12 C 0.621412 0.868474 -0.599797 0
M  V30 13 O 0.905318 -0.266039 -0.097795 0
M  V30 14 N -0.549304 0.909440 -1.405503 0
M  V30 15 C -1.386231 -0.206305 -1.669062 0 CFG=2
M  V30 16 C -1.455731 -0.447250 -3.157186 0
M  V30 17 C -2.377657 -1.574678 -3.441386 0
M  V30 18 C -3.042343 -2.191339 -2.264703 0
M  V30 19 N -3.411358 -1.324605 -1.224091 0
M  V30 20 C -4.622257 -1.530169 -0.539458 0
M  V30 21 C -4.564103 -2.895825 0.093343 0
M  V30 22 C -5.139278 -4.111023 -0.213795 0
M  V30 23 N -4.740749 -5.017135 0.705828 0
M  V30 24 C -5.138963 -6.419365 0.720653 0
M  V30 25 C -3.928354 -4.475767 1.614664 0
M  V30 26 C -3.252600 -4.939204 2.739115 0
M  V30 27 C -2.454504 -4.095239 3.505059 0
M  V30 28 C -2.328317 -2.772094 3.145353 0
M  V30 29 C -3.007116 -2.317184 2.020001 0
M  V30 30 C -3.805075 -3.133749 1.243375 0
M  V30 31 C -2.810647 -0.041338 -1.190337 0
M  V30 32 C 2.509121 1.940572 0.430426 0
M  V30 33 C 3.334552 3.010609 0.709349 0
M  V30 34 C 5.500311 2.493489 3.556844 0
M  V30 35 C 6.140459 1.641229 4.434606 0
M  V30 36 N 6.394630 0.418051 3.985752 0
M  V30 37 H 7.377183 -1.471596 1.790688 0
M  V30 38 H 5.565552 -1.902824 1.790981 0
M  V30 39 H 6.565519 -2.092186 3.227098 0
M  V30 40 H 5.144051 0.541383 0.882832 0
M  V30 41 H 4.045572 6.083593 0.327512 0
M  V30 42 H 1.781336 5.347849 -1.075456 0
M  V30 43 H 0.297222 3.399003 -1.569480 0
M  V30 44 H -0.906947 1.783399 -1.886615 0
M  V30 45 H -1.035212 -1.158007 -1.205561 0
M  V30 46 H -1.860410 0.513538 -3.592020 0
M  V30 47 H -0.435795 -0.578882 -3.594167 0
M  V30 48 H -1.745403 -2.389769 -3.905898 0
M  V30 49 H -3.116809 -1.347306 -4.254581 0
M  V30 50 H -2.468187 -3.086019 -1.886812 0
M  V30 51 H -3.992982 -2.664843 -2.654937 0
M  V30 52 H -5.542870 -1.464155 -1.147484 0
M  V30 53 H -4.712449 -0.813914 0.291632 0
M  V30 54 H -5.780938 -4.212667 -1.062692 0
M  V30 55 H -4.187023 -6.997213 0.812501 0
M  V30 56 H -5.612183 -6.679205 -0.246748 0
M  V30 57 H -5.808948 -6.667576 1.563879 0
M  V30 58 H -3.342967 -5.979507 3.034083 0
M  V30 59 H -1.927453 -4.440739 4.375774 0
M  V30 60 H -1.706899 -2.121880 3.745019 0
M  V30 61 H -2.873494 -1.255591 1.776029 0
M  V30 62 H -3.324461 0.682407 -1.824280 0
M  V30 63 H -2.872394 0.330336 -0.152611 0
M  V30 64 H 2.775637 0.996511 0.893710 0
M  V30 65 H 5.294829 3.505354 3.940485 0
M  V30 66 H 6.407597 1.982148 5.428645 0
M  V30 END ATOM
M  V30 BEGIN BOND
M  V30 1 1 1 2
M  V30 2 2 2 3
M  V30 3 1 3 4
M  V30 4 1 4 5
M  V30 5 2 5 6
M  V30 6 1 6 7
M  V30 7 1 7 8
M  V30 8 2 8 9
M  V30 9 1 9 10
M  V30 10 2 10 11
M  V30 11 1 11 12
M  V30 12 2 12 13
M  V30 13 1 12 14
M  V30 14 1 14 15
M  V30 15 1 15 16
M  V30 16 1 16 17
M  V30 17 1 17 18
M  V30 18 1 18 19
M  V30 19 1 19 20
M  V30 20 1 20 21
M  V30 21 2 21 22
M  V30 22 1 22 23
M  V30 23 1 23 24
M  V30 24 1 23 25
M  V30 25 2 25 26
M  V30 26 1 26 27
M  V30 27 2 27 28
M  V30 28 1 28 29
M  V30 29 2 29 30
M  V30 30 1 19 31
M  V30 31 1 11 32
M  V30 32 2 32 33
M  V30 33 2 4 34
M  V30 34 1 34 35
M  V30 35 2 35 36
M  V30 36 1 36 2
M  V30 37 1 33 5
M  V30 38 1 33 8
M  V30 39 1 31 15
M  V30 40 1 30 21
M  V30 41 1 30 25
M  V30 42 1 1 37
M  V30 43 1 1 38
M  V30 44 1 1 39
M  V30 45 1 3 40
M  V30 46 1 7 41
M  V30 47 1 9 42
M  V30 48 1 10 43
M  V30 49 1 14 44
M  V30 50 1 15 45 CFG=1
M  V30 51 1 16 46
M  V30 52 1 16 47
M  V30 53 1 17 48
M  V30 54 1 17 49
M  V30 55 1 18 50
M  V30 56 1 18 51
M  V30 57 1 20 52
M  V30 58 1 20 53
M  V30 59 1 22 54
M  V30 60 1 24 55
M  V30 61 1 24 56
M  V30 62 1 24 57
M  V30 63 1 26 58
M  V30 64 1 27 59
M  V30 65 1 28 60
M  V30 66 1 29 61
M  V30 67 1 31 62
M  V30 68 1 31 63
M  V30 69 1 32 64
M  V30 70 1 34 65
M  V30 71 1 35 66
M  V30 END BOND
M  V30 END CTAB
M  END
>  <Dataset>  (396) 
ChEMBL_Kinases

>  <Ligand_Instance>  (396) 
nan

>  <PDB_ID>  (396) 
nan

>  <Standardized_SMILES>  (396) 
Cc1cc(-c2n[nH]c3ccc(C(=O)N[C@@H]4CCCN(Cc5cn(C)c6ccccc56)C4)cc23)ccn1

>  <Name>  (396) 
nan

>  <Pocket>  (396) 
nan

>  <ATP_Site>  (396) 
nan

>  <Peripheral>  (396) 
nan

>  <Num_H_Atoms_ProtBoundConf>  (396) 
nan

>  <Num_Resolved_Atoms>  (396) 
nan

>  <Num_Not_Resolved_Atoms>  (396) 
nan

$$$$
CHEMBL3654507
     RDKit          3D

  0  0  0  0  0  0  0  0  0  0999 V3000
M  V30 BEGIN CTAB
M  V30 COUNTS 65 69 0 0 0
M  V30 BEGIN ATOM
M  V30 1 C 3.531124 -2.744930 4.894645 0
M  V30 2 C 2.900248 -1.531404 4.317373 0
M  V30 3 C 3.625032 -0.707496 3.459053 0
M  V30 4 C 3.028366 0.420410 2.927345 0
M  V30 5 C 3.681302 1.359698 2.020541 0
M  V30 6 N 4.927540 1.817410 2.235809 0
M  V30 7 N 5.281317 2.651943 1.270030 0
M  V30 8 C 4.251576 2.760844 0.382619 0
M  V30 9 C 4.006014 3.434528 -0.772809 0
M  V30 10 C 2.791539 3.313890 -1.457310 0
M  V30 11 C 1.784716 2.498687 -0.983006 0
M  V30 12 C 0.539024 2.410805 -1.738414 0
M  V30 13 O 0.480743 3.107332 -2.786020 0
M  V30 14 N -0.538189 1.586450 -1.310268 0
M  V30 15 C -1.820549 1.370447 -1.907603 0 CFG=2
M  V30 16 C -2.891663 1.874546 -0.980709 0
M  V30 17 C -3.620339 0.822682 -0.219767 0
M  V30 18 C -2.843175 -0.459358 -0.068796 0
M  V30 19 N -2.358579 -0.969791 -1.303656 0
M  V30 20 C -1.499074 -2.103451 -1.236343 0
M  V30 21 C -2.249698 -3.209935 -0.603888 0
M  V30 22 C -3.205460 -3.912751 -1.316235 0
M  V30 23 C -3.431115 -3.502802 -2.725789 0
M  V30 24 C -3.932791 -4.963678 -0.750113 0
M  V30 25 C -3.654965 -5.268646 0.550649 0
M  V30 26 C -2.699181 -4.559256 1.248902 0
M  V30 27 C -1.978135 -3.521195 0.695533 0
M  V30 28 C -1.016440 -2.921593 1.644030 0
M  V30 29 C -2.101608 -0.028257 -2.335227 0
M  V30 30 C 2.041158 1.818466 0.190089 0
M  V30 31 C 3.248953 1.958485 0.841763 0
M  V30 32 C 1.721584 0.698584 3.265757 0
M  V30 33 C 1.005855 -0.136249 4.127692 0
M  V30 34 N 1.619004 -1.240450 4.636500 0
M  V30 35 H 3.967472 -2.512933 5.899327 0
M  V30 36 H 4.360313 -3.087305 4.251803 0
M  V30 37 H 2.811445 -3.572076 5.035179 0
M  V30 38 H 4.637625 -0.913413 3.190275 0
M  V30 39 H 6.184738 3.184589 1.133671 0
M  V30 40 H 4.776202 4.087423 -1.178055 0
M  V30 41 H 2.698138 3.889854 -2.362235 0
M  V30 42 H -0.475698 1.014760 -0.439730 0
M  V30 43 H -1.840942 2.002735 -2.842586 0
M  V30 44 H -3.662682 2.430979 -1.574507 0
M  V30 45 H -2.493475 2.630630 -0.275897 0
M  V30 46 H -4.648857 0.625197 -0.645191 0
M  V30 47 H -3.829626 1.197700 0.803373 0
M  V30 48 H -3.583147 -1.207396 0.340034 0
M  V30 49 H -2.048766 -0.401684 0.672775 0
M  V30 50 H -1.259547 -2.386560 -2.292962 0
M  V30 51 H -0.587165 -1.849883 -0.704093 0
M  V30 52 H -4.254575 -4.132283 -3.136279 0
M  V30 53 H -3.703977 -2.429559 -2.816234 0
M  V30 54 H -2.505208 -3.666154 -3.287177 0
M  V30 55 H -4.665014 -5.463758 -1.378602 0
M  V30 56 H -4.234511 -6.087896 0.962365 0
M  V30 57 H -2.595875 -4.925631 2.276441 0
M  V30 58 H -0.449359 -2.080298 1.263296 0
M  V30 59 H -1.605769 -2.671992 2.555420 0
M  V30 60 H -0.275508 -3.707297 1.962294 0
M  V30 61 H -3.038929 0.018810 -2.965142 0
M  V30 62 H -1.340309 -0.442430 -3.019240 0
M  V30 63 H 1.270299 1.172027 0.584090 0
M  V30 64 H 1.114444 1.525541 2.946024 0
M  V30 65 H -0.026938 0.026532 4.433977 0
M  V30 END ATOM
M  V30 BEGIN BOND
M  V30 1 1 1 2
M  V30 2 2 2 3
M  V30 3 1 3 4
M  V30 4 1 4 5
M  V30 5 2 5 6
M  V30 6 1 6 7
M  V30 7 1 7 8
M  V30 8 2 8 9
M  V30 9 1 9 10
M  V30 10 2 10 11
M  V30 11 1 11 12
M  V30 12 2 12 13
M  V30 13 1 12 14
M  V30 14 1 14 15
M  V30 15 1 15 16
M  V30 16 1 16 17
M  V30 17 1 17 18
M  V30 18 1 18 19
M  V30 19 1 19 20
M  V30 20 1 20 21
M  V30 21 2 21 22
M  V30 22 1 22 23
M  V30 23 1 22 24
M  V30 24 2 24 25
M  V30 25 1 25 26
M  V30 26 2 26 27
M  V30 27 1 27 28
M  V30 28 1 19 29
M  V30 29 1 11 30
M  V30 30 2 30 31
M  V30 31 2 4 32
M  V30 32 1 32 33
M  V30 33 2 33 34
M  V30 34 1 34 2
M  V30 35 1 31 5
M  V30 36 1 31 8
M  V30 37 1 29 15
M  V30 38 1 27 21
M  V30 39 1 1 35
M  V30 40 1 1 36
M  V30 41 1 1 37
M  V30 42 1 3 38
M  V30 43 1 7 39
M  V30 44 1 9 40
M  V30 45 1 10 41
M  V30 46 1 14 42
M  V30 47 1 15 43 CFG=3
M  V30 48 1 16 44
M  V30 49 1 16 45
M  V30 50 1 17 46
M  V30 51 1 17 47
M  V30 52 1 18 48
M  V30 53 1 18 49
M  V30 54 1 20 50
M  V30 55 1 20 51
M  V30 56 1 23 52
M  V30 57 1 23 53
M  V30 58 1 23 54
M  V30 59 1 24 55
M  V30 60 1 25 56
M  V30 61 1 26 57
M  V30 62 1 28 58
M  V30 63 1 28 59
M  V30 64 1 28 60
M  V30 65 1 29 61
M  V30 66 1 29 62
M  V30 67 1 30 63
M  V30 68 1 32 64
M  V30 69 1 33 65
M  V30 END BOND
M  V30 END CTAB
M  END
>  <Dataset>  (397) 
ChEMBL_Kinases

>  <Ligand_Instance>  (397) 
nan

>  <PDB_ID>  (397) 
nan

>  <Standardized_SMILES>  (397) 
Cc1cc(-c2n[nH]c3ccc(C(=O)N[C@@H]4CCCN(Cc5c(C)cccc5C)C4)cc23)ccn1

>  <Name>  (397) 
nan

>  <Pocket>  (397) 
nan

>  <ATP_Site>  (397) 
nan

>  <Peripheral>  (397) 
nan

>  <Num_H_Atoms_ProtBoundConf>  (397) 
nan

>  <Num_Resolved_Atoms>  (397) 
nan

>  <Num_Not_Resolved_Atoms>  (397) 
nan

$$$$
CHEMBL3654506
     RDKit          3D

  0  0  0  0  0  0  0  0  0  0999 V3000
M  V30 BEGIN CTAB
M  V30 COUNTS 68 73 0 0 0
M  V30 BEGIN ATOM
M  V30 1 C 2.788798 -2.919822 3.936077 0
M  V30 2 C 3.921885 -2.924543 2.969649 0
M  V30 3 O 4.632204 -3.948517 2.946958 0
M  V30 4 N 4.134977 -1.788681 2.138320 0
M  V30 5 C 3.447533 -0.652239 2.077730 0
M  V30 6 C 3.968801 0.214977 1.133030 0
M  V30 7 C 3.407044 1.550057 0.822219 0
M  V30 8 N 2.580017 1.628884 -0.323521 0
M  V30 9 C 3.133159 1.276084 -1.579842 0
M  V30 10 C 2.192232 1.549064 -2.738738 0
M  V30 11 C 0.816467 0.935259 -2.505508 0
M  V30 12 C 0.330877 1.533938 -1.187266 0 CFG=1
M  V30 13 N -0.991690 1.074472 -0.826419 0
M  V30 14 C -1.994770 2.043149 -0.644953 0
M  V30 15 O -1.745534 3.265166 -0.793245 0
M  V30 16 C -3.364583 1.697219 -0.279499 0
M  V30 17 C -4.283213 2.723293 -0.129661 0
M  V30 18 C -5.607923 2.448485 0.220144 0
M  V30 19 C -6.017728 1.138848 0.421638 0
M  V30 20 N -7.214867 0.586751 0.761462 0
M  V30 21 N -7.064937 -0.724591 0.824506 0
M  V30 22 C -5.797579 -1.065593 0.535495 0
M  V30 23 C -5.235743 -2.410217 0.499117 0
M  V30 24 C -4.418355 -2.965112 -0.443684 0
M  V30 25 C -3.987273 -4.275496 -0.294027 0
M  V30 26 N -4.346769 -5.022949 0.750940 0
M  V30 27 C -5.149660 -4.482305 1.679644 0
M  V30 28 C -5.513805 -5.374036 2.823475 0
M  V30 29 C -5.621455 -3.176254 1.597275 0
M  V30 30 C -5.102730 0.097281 0.273835 0
M  V30 31 C -3.799806 0.403999 -0.072827 0
M  V30 32 C 1.295136 0.987965 -0.132870 0
M  V30 33 C 5.030944 -0.503522 0.633348 0
M  V30 34 C 5.944527 -0.158667 -0.339231 0
M  V30 35 C 6.974826 -0.976903 -0.747092 0
M  V30 36 C 7.082693 -2.212491 -0.133165 0
M  V30 37 C 6.179628 -2.560129 0.832716 0
M  V30 38 C 5.140957 -1.734144 1.243625 0
M  V30 39 H 1.813645 -2.949385 3.405123 0
M  V30 40 H 2.794767 -1.956973 4.493444 0
M  V30 41 H 2.884279 -3.706788 4.696795 0
M  V30 42 H 2.586825 -0.510575 2.735785 0
M  V30 43 H 4.226693 2.319221 0.820575 0
M  V30 44 H 2.768777 1.879376 1.697399 0
M  V30 45 H 3.376013 0.196242 -1.571634 0
M  V30 46 H 4.009553 1.928403 -1.756564 0
M  V30 47 H 2.107792 2.616989 -2.947789 0
M  V30 48 H 2.670937 1.059617 -3.622656 0
M  V30 49 H 0.162915 1.278944 -3.319969 0
M  V30 50 H 0.901044 -0.163264 -2.427802 0
M  V30 51 H 0.396925 2.621120 -1.270479 0
M  V30 52 H -1.178412 0.062717 -0.709141 0
M  V30 53 H -4.047358 3.766185 -0.267536 0
M  V30 54 H -6.366930 3.228586 0.348955 0
M  V30 55 H -8.084740 1.167810 0.933091 0
M  V30 56 H -4.173288 -2.294150 -1.258367 0
M  V30 57 H -3.338149 -4.615916 -1.105772 0
M  V30 58 H -4.611278 -5.539218 3.451551 0
M  V30 59 H -5.906932 -6.345101 2.455506 0
M  V30 60 H -6.276261 -4.919700 3.478074 0
M  V30 61 H -6.266994 -2.831527 2.400984 0
M  V30 62 H -3.088253 -0.417112 -0.187102 0
M  V30 63 H 1.446913 -0.100770 -0.334542 0
M  V30 64 H 0.901599 1.098874 0.897897 0
M  V30 65 H 5.881779 0.800733 -0.827037 0
M  V30 66 H 7.693120 -0.706543 -1.511000 0
M  V30 67 H 7.881768 -2.894937 -0.422604 0
M  V30 68 H 6.271741 -3.532402 1.309927 0
M  V30 END ATOM
M  V30 BEGIN BOND
M  V30 1 1 1 2
M  V30 2 2 2 3
M  V30 3 1 2 4
M  V30 4 1 4 5
M  V30 5 2 5 6
M  V30 6 1 6 7
M  V30 7 1 7 8
M  V30 8 1 8 9
M  V30 9 1 9 10
M  V30 10 1 10 11
M  V30 11 1 11 12
M  V30 12 1 12 13
M  V30 13 1 13 14
M  V30 14 2 14 15
M  V30 15 1 14 16
M  V30 16 2 16 17
M  V30 17 1 17 18
M  V30 18 2 18 19
M  V30 19 1 19 20
M  V30 20 1 20 21
M  V30 21 2 21 22
M  V30 22 1 22 23
M  V30 23 2 23 24
M  V30 24 1 24 25
M  V30 25 2 25 26
M  V30 26 1 26 27
M  V30 27 1 27 28
M  V30 28 2 27 29
M  V30 29 1 22 30
M  V30 30 2 30 31
M  V30 31 1 12 32
M  V30 32 1 6 33
M  V30 33 2 33 34
M  V30 34 1 34 35
M  V30 35 2 35 36
M  V30 36 1 36 37
M  V30 37 2 37 38
M  V30 38 1 38 4
M  V30 39 1 32 8
M  V30 40 1 38 33
M  V30 41 1 31 16
M  V30 42 1 30 19
M  V30 43 1 29 23
M  V30 44 1 1 39
M  V30 45 1 1 40
M  V30 46 1 1 41
M  V30 47 1 5 42
M  V30 48 1 7 43
M  V30 49 1 7 44
M  V30 50 1 9 45
M  V30 51 1 9 46
M  V30 52 1 10 47
M  V30 53 1 10 48
M  V30 54 1 11 49
M  V30 55 1 11 50
M  V30 56 1 12 51 CFG=3
M  V30 57 1 13 52
M  V30 58 1 17 53
M  V30 59 1 18 54
M  V30 60 1 20 55
M  V30 61 1 24 56
M  V30 62 1 25 57
M  V30 63 1 28 58
M  V30 64 1 28 59
M  V30 65 1 28 60
M  V30 66 1 29 61
M  V30 67 1 31 62
M  V30 68 1 32 63
M  V30 69 1 32 64
M  V30 70 1 34 65
M  V30 71 1 35 66
M  V30 72 1 36 67
M  V30 73 1 37 68
M  V30 END BOND
M  V30 END CTAB
M  END
>  <Dataset>  (398) 
ChEMBL_Kinases

>  <Ligand_Instance>  (398) 
nan

>  <PDB_ID>  (398) 
nan

>  <Standardized_SMILES>  (398) 
CC(=O)n1cc(CN2CCC[C@@H](NC(=O)c3ccc4[nH]nc(-c5ccnc(C)c5)c4c3)C2)c2ccccc21

>  <Name>  (398) 
nan

>  <Pocket>  (398) 
nan

>  <ATP_Site>  (398) 
nan

>  <Peripheral>  (398) 
nan

>  <Num_H_Atoms_ProtBoundConf>  (398) 
nan

>  <Num_Resolved_Atoms>  (398) 
nan

>  <Num_Not_Resolved_Atoms>  (398) 
nan

$$$$
CHEMBL3654505
     RDKit          3D

  0  0  0  0  0  0  0  0  0  0999 V3000
M  V30 BEGIN CTAB
M  V30 COUNTS 59 63 0 0 0
M  V30 BEGIN ATOM
M  V30 1 C 3.470034 -4.616032 5.176559 0
M  V30 2 C 2.783674 -3.312721 4.870657 0
M  V30 3 C 3.462073 -2.348646 4.163345 0
M  V30 4 C 2.890538 -1.125855 3.846034 0
M  V30 5 C 3.709813 -0.187851 3.094413 0
M  V30 6 N 5.014460 0.089378 3.381147 0
M  V30 7 N 5.440951 0.973284 2.505699 0
M  V30 8 C 4.482109 1.315986 1.627221 0
M  V30 9 C 4.389035 2.165537 0.543377 0
M  V30 10 C 3.192225 2.281998 -0.173958 0
M  V30 11 C 2.088928 1.544667 0.197768 0
M  V30 12 C 0.869126 1.708484 -0.589569 0
M  V30 13 O 0.918374 2.526030 -1.554340 0
M  V30 14 N -0.350141 1.019747 -0.345902 0
M  V30 15 C -1.550475 1.172580 -1.110852 0 CFG=2
M  V30 16 C -2.634375 1.682836 -0.180658 0
M  V30 17 C -4.010370 1.597529 -0.732352 0
M  V30 18 C -4.007624 1.134003 -2.155473 0
M  V30 19 N -3.310584 -0.105609 -2.240938 0
M  V30 20 C -4.107984 -1.285209 -2.224920 0
M  V30 21 C -3.208979 -2.482573 -2.321041 0
M  V30 22 C -2.979110 -3.212830 -1.175544 0
M  V30 23 C -2.158782 -4.337415 -1.175286 0
M  V30 24 C -1.596167 -4.666316 -2.396597 0
M  V30 25 C -1.817720 -3.940812 -3.560787 0
M  V30 26 C -2.641535 -2.821948 -3.531557 0
M  V30 27 Cl -2.929111 -1.901689 -4.981341 0
M  V30 28 C -2.037466 -0.173848 -1.628311 0
M  V30 29 C 2.187677 0.697300 1.281625 0
M  V30 30 C 3.362767 0.574063 1.997008 0
M  V30 31 C 1.608449 -0.908889 4.267850 0
M  V30 32 C 0.952454 -1.896237 4.976556 0
M  V30 33 N 1.536830 -3.074508 5.268655 0
M  V30 34 H 4.341181 -4.406700 5.842372 0
M  V30 35 H 2.804225 -5.271185 5.752864 0
M  V30 36 H 3.825988 -5.092299 4.240302 0
M  V30 37 H 4.477237 -2.566598 3.850198 0
M  V30 38 H 6.396515 1.417985 2.420768 0
M  V30 39 H 5.266580 2.723408 0.282266 0
M  V30 40 H 3.218751 2.963644 -0.994912 0
M  V30 41 H -0.380530 0.342636 0.458367 0
M  V30 42 H -1.444542 1.899851 -1.933761 0
M  V30 43 H -2.582573 1.072661 0.767719 0
M  V30 44 H -2.417477 2.722544 0.170880 0
M  V30 45 H -4.522608 2.597385 -0.626034 0
M  V30 46 H -4.614177 0.851192 -0.159150 0
M  V30 47 H -5.071728 0.926950 -2.439830 0
M  V30 48 H -3.548913 1.855353 -2.857427 0
M  V30 49 H -4.820822 -1.266977 -3.086194 0
M  V30 50 H -4.684056 -1.318206 -1.279630 0
M  V30 51 H -3.442383 -2.916287 -0.241400 0
M  V30 52 H -1.997598 -4.885276 -0.271063 0
M  V30 53 H -0.959248 -5.543268 -2.385441 0
M  V30 54 H -1.327923 -4.280522 -4.475549 0
M  V30 55 H -2.061210 -0.839192 -0.742650 0
M  V30 56 H -1.228126 -0.545408 -2.290324 0
M  V30 57 H 1.309635 0.112671 1.574515 0
M  V30 58 H 1.171146 0.053266 4.013472 0
M  V30 59 H -0.057567 -1.706999 5.300699 0
M  V30 END ATOM
M  V30 BEGIN BOND
M  V30 1 1 1 2
M  V30 2 2 2 3
M  V30 3 1 3 4
M  V30 4 1 4 5
M  V30 5 2 5 6
M  V30 6 1 6 7
M  V30 7 1 7 8
M  V30 8 2 8 9
M  V30 9 1 9 10
M  V30 10 2 10 11
M  V30 11 1 11 12
M  V30 12 2 12 13
M  V30 13 1 12 14
M  V30 14 1 14 15
M  V30 15 1 15 16
M  V30 16 1 16 17
M  V30 17 1 17 18
M  V30 18 1 18 19
M  V30 19 1 19 20
M  V30 20 1 20 21
M  V30 21 2 21 22
M  V30 22 1 22 23
M  V30 23 2 23 24
M  V30 24 1 24 25
M  V30 25 2 25 26
M  V30 26 1 26 27
M  V30 27 1 19 28
M  V30 28 1 11 29
M  V30 29 2 29 30
M  V30 30 2 4 31
M  V30 31 1 31 32
M  V30 32 2 32 33
M  V30 33 1 33 2
M  V30 34 1 30 5
M  V30 35 1 30 8
M  V30 36 1 28 15
M  V30 37 1 26 21
M  V30 38 1 1 34
M  V30 39 1 1 35
M  V30 40 1 1 36
M  V30 41 1 3 37
M  V30 42 1 7 38
M  V30 43 1 9 39
M  V30 44 1 10 40
M  V30 45 1 14 41
M  V30 46 1 15 42 CFG=3
M  V30 47 1 16 43
M  V30 48 1 16 44
M  V30 49 1 17 45
M  V30 50 1 17 46
M  V30 51 1 18 47
M  V30 52 1 18 48
M  V30 53 1 20 49
M  V30 54 1 20 50
M  V30 55 1 22 51
M  V30 56 1 23 52
M  V30 57 1 24 53
M  V30 58 1 25 54
M  V30 59 1 28 55
M  V30 60 1 28 56
M  V30 61 1 29 57
M  V30 62 1 31 58
M  V30 63 1 32 59
M  V30 END BOND
M  V30 END CTAB
M  END
>  <Dataset>  (399) 
ChEMBL_Kinases

>  <Ligand_Instance>  (399) 
nan

>  <PDB_ID>  (399) 
nan

>  <Standardized_SMILES>  (399) 
Cc1cc(-c2n[nH]c3ccc(C(=O)N[C@@H]4CCCN(Cc5ccccc5Cl)C4)cc23)ccn1

>  <Name>  (399) 
nan

>  <Pocket>  (399) 
nan

>  <ATP_Site>  (399) 
nan

>  <Peripheral>  (399) 
nan

>  <Num_H_Atoms_ProtBoundConf>  (399) 
nan

>  <Num_Resolved_Atoms>  (399) 
nan

>  <Num_Not_Resolved_Atoms>  (399) 
nan

$$$$
CHEMBL3654504
     RDKit          3D

  0  0  0  0  0  0  0  0  0  0999 V3000
M  V30 BEGIN CTAB
M  V30 COUNTS 62 67 0 0 0
M  V30 BEGIN ATOM
M  V30 1 C -0.504923 2.028563 4.604911 0
M  V30 2 C 0.933839 2.379080 4.465655 0
M  V30 3 C 1.858569 1.426572 4.088923 0
M  V30 4 C 3.221624 1.603980 3.920450 0
M  V30 5 C 4.065524 0.486246 3.511745 0
M  V30 6 N 5.244887 0.151432 4.062822 0
M  V30 7 N 5.737006 -0.923259 3.435583 0
M  V30 8 C 4.910004 -1.325980 2.464417 0
M  V30 9 C 4.908458 -2.341974 1.529823 0
M  V30 10 C 3.869608 -2.495333 0.630715 0
M  V30 11 C 2.806707 -1.615912 0.662817 0
M  V30 12 C 1.734137 -1.820904 -0.308852 0
M  V30 13 O 1.834164 -2.788084 -1.106454 0
M  V30 14 N 0.607502 -0.985156 -0.383123 0
M  V30 15 C -0.512359 -1.088595 -1.298242 0 CFG=2
M  V30 16 C -0.458730 0.195826 -2.125220 0
M  V30 17 C -1.006262 1.380098 -1.379550 0
M  V30 18 C -2.494168 1.152198 -1.219321 0
M  V30 19 N -2.809907 -0.214446 -1.056729 0
M  V30 20 C -4.135911 -0.617659 -1.195525 0
M  V30 21 C -4.383070 -2.101846 -1.005446 0
M  V30 22 C -4.941701 -2.497509 0.193415 0
M  V30 23 S -5.069700 -4.257039 0.039557 0
M  V30 24 C -4.396811 -4.328156 -1.545296 0
M  V30 25 C -4.167833 -5.457251 -2.368419 0
M  V30 26 C -3.609234 -5.313476 -3.632225 0
M  V30 27 C -3.328276 -4.007159 -3.950685 0
M  V30 28 C -3.550895 -2.933253 -3.156374 0
M  V30 29 C -4.117399 -3.090219 -1.877721 0
M  V30 30 C -1.836141 -1.090813 -0.570159 0
M  V30 31 C 2.806943 -0.600693 1.595855 0
M  V30 32 C 3.852884 -0.442148 2.505346 0
M  V30 33 C 3.684380 2.892860 4.163921 0
M  V30 34 C 2.767903 3.860094 4.543004 0
M  V30 35 N 1.467938 3.616833 4.685486 0
M  V30 36 H -0.646963 1.113718 5.220040 0
M  V30 37 H -0.876086 1.791111 3.576389 0
M  V30 38 H -1.066621 2.898028 4.976751 0
M  V30 39 H 1.457114 0.435991 3.911313 0
M  V30 40 H 6.651970 -1.380757 3.681918 0
M  V30 41 H 5.741979 -3.024439 1.511157 0
M  V30 42 H 3.957267 -3.326572 -0.069005 0
M  V30 43 H 0.481095 -0.171512 0.257135 0
M  V30 44 H -0.410441 -1.950392 -1.987810 0
M  V30 45 H 0.615163 0.360821 -2.399715 0
M  V30 46 H -1.044036 0.097364 -3.060102 0
M  V30 47 H -0.533906 1.528158 -0.392777 0
M  V30 48 H -0.790115 2.279104 -1.988847 0
M  V30 49 H -2.788226 1.679883 -0.273454 0
M  V30 50 H -3.008144 1.644798 -2.074103 0
M  V30 51 H -4.454758 -0.368847 -2.253991 0
M  V30 52 H -4.811599 -0.000156 -0.577083 0
M  V30 53 H -5.250079 -1.884297 1.069692 0
M  V30 54 H -4.435279 -6.439052 -1.998451 0
M  V30 55 H -3.451900 -6.197275 -4.225965 0
M  V30 56 H -2.883982 -3.876107 -4.951480 0
M  V30 57 H -3.260596 -1.958528 -3.581441 0
M  V30 58 H -1.606040 -0.788503 0.492192 0
M  V30 59 H -2.266247 -2.102438 -0.473799 0
M  V30 60 H 1.975811 0.076746 1.608775 0
M  V30 61 H 4.746945 3.055085 4.038523 0
M  V30 62 H 3.167738 4.848913 4.722743 0
M  V30 END ATOM
M  V30 BEGIN BOND
M  V30 1 1 1 2
M  V30 2 2 2 3
M  V30 3 1 3 4
M  V30 4 1 4 5
M  V30 5 2 5 6
M  V30 6 1 6 7
M  V30 7 1 7 8
M  V30 8 2 8 9
M  V30 9 1 9 10
M  V30 10 2 10 11
M  V30 11 1 11 12
M  V30 12 2 12 13
M  V30 13 1 12 14
M  V30 14 1 14 15
M  V30 15 1 15 16
M  V30 16 1 16 17
M  V30 17 1 17 18
M  V30 18 1 18 19
M  V30 19 1 19 20
M  V30 20 1 20 21
M  V30 21 2 21 22
M  V30 22 1 22 23
M  V30 23 1 23 24
M  V30 24 2 24 25
M  V30 25 1 25 26
M  V30 26 2 26 27
M  V30 27 1 27 28
M  V30 28 2 28 29
M  V30 29 1 19 30
M  V30 30 1 11 31
M  V30 31 2 31 32
M  V30 32 2 4 33
M  V30 33 1 33 34
M  V30 34 2 34 35
M  V30 35 1 35 2
M  V30 36 1 32 5
M  V30 37 1 32 8
M  V30 38 1 30 15
M  V30 39 1 29 21
M  V30 40 1 29 24
M  V30 41 1 1 36
M  V30 42 1 1 37
M  V30 43 1 1 38
M  V30 44 1 3 39
M  V30 45 1 7 40
M  V30 46 1 9 41
M  V30 47 1 10 42
M  V30 48 1 14 43
M  V30 49 1 15 44 CFG=3
M  V30 50 1 16 45
M  V30 51 1 16 46
M  V30 52 1 17 47
M  V30 53 1 17 48
M  V30 54 1 18 49
M  V30 55 1 18 50
M  V30 56 1 20 51
M  V30 57 1 20 52
M  V30 58 1 22 53
M  V30 59 1 25 54
M  V30 60 1 26 55
M  V30 61 1 27 56
M  V30 62 1 28 57
M  V30 63 1 30 58
M  V30 64 1 30 59
M  V30 65 1 31 60
M  V30 66 1 33 61
M  V30 67 1 34 62
M  V30 END BOND
M  V30 END CTAB
M  END
>  <Dataset>  (400) 
ChEMBL_Kinases

>  <Ligand_Instance>  (400) 
nan

>  <PDB_ID>  (400) 
nan

>  <Standardized_SMILES>  (400) 
Cc1cc(-c2n[nH]c3ccc(C(=O)N[C@@H]4CCCN(Cc5csc6ccccc56)C4)cc23)ccn1

>  <Name>  (400) 
nan

>  <Pocket>  (400) 
nan

>  <ATP_Site>  (400) 
nan

>  <Peripheral>  (400) 
nan

>  <Num_H_Atoms_ProtBoundConf>  (400) 
nan

>  <Num_Resolved_Atoms>  (400) 
nan

>  <Num_Not_Resolved_Atoms>  (400) 
nan

$$$$
CHEMBL3654503
     RDKit          3D

  0  0  0  0  0  0  0  0  0  0999 V3000
M  V30 BEGIN CTAB
M  V30 COUNTS 69 73 0 0 0
M  V30 BEGIN ATOM
M  V30 1 C 2.608896 -0.193251 0.321336 0
M  V30 2 O 1.834307 0.947466 0.033865 0
M  V30 3 C 1.854610 2.111239 0.784583 0
M  V30 4 C 2.674504 2.158005 1.869209 0
M  V30 5 C 2.740629 3.274930 2.649782 0
M  V30 6 C 1.961061 4.375534 2.331354 0
M  V30 7 C 1.148034 4.278126 1.224014 0
M  V30 8 F 0.400261 5.367110 0.941015 0
M  V30 9 C 1.045065 3.158409 0.394331 0
M  V30 10 C 0.146300 3.134747 -0.777670 0
M  V30 11 N -1.059940 2.381805 -0.595170 0
M  V30 12 C -1.909994 2.396280 -1.760006 0
M  V30 13 C -3.349581 2.677209 -1.489894 0
M  V30 14 C -3.923198 1.886297 -0.357731 0
M  V30 15 C -2.993901 1.850549 0.819110 0 CFG=1
M  V30 16 N -2.502972 0.526896 1.129895 0
M  V30 17 C -2.691379 0.007614 2.443394 0
M  V30 18 O -3.274993 0.699090 3.308801 0
M  V30 19 C -2.230535 -1.318035 2.845593 0
M  V30 20 C -2.451691 -1.689207 4.162343 0
M  V30 21 C -2.039926 -2.945125 4.624358 0
M  V30 22 C -1.406338 -3.853726 3.802668 0
M  V30 23 N -0.899541 -5.093524 3.910429 0
M  V30 24 N -0.411793 -5.430813 2.732413 0
M  V30 25 C -0.585427 -4.429038 1.832085 0
M  V30 26 C -0.108104 -4.622528 0.463515 0
M  V30 27 C -0.405595 -5.853952 -0.133612 0
M  V30 28 C -0.044091 -6.229431 -1.411597 0
M  V30 29 C 0.665308 -5.279969 -2.115070 0
M  V30 30 N 1.056668 -5.635857 -3.443737 0
M  V30 31 C 0.980361 -4.054034 -1.567190 0
M  V30 32 O 1.697790 -3.159500 -2.349262 0
M  V30 33 C 3.091059 -3.160619 -2.327053 0
M  V30 34 C 3.718802 -2.150296 -3.214505 0
M  V30 35 O 3.518392 -4.057441 -1.524732 0
M  V30 36 C 0.603234 -3.711787 -0.286535 0
M  V30 37 C -1.224361 -3.415029 2.519156 0
M  V30 38 C -1.599544 -2.198356 1.990548 0
M  V30 39 C -1.819008 2.761286 0.547897 0
M  V30 40 H 3.628504 0.021829 0.672273 0
M  V30 41 H 2.107149 -0.887445 1.047065 0
M  V30 42 H 2.722798 -0.758852 -0.627233 0
M  V30 43 H 3.316184 1.349065 2.192047 0
M  V30 44 H 3.382540 3.350014 3.522873 0
M  V30 45 H 1.999086 5.257816 2.928868 0
M  V30 46 H 0.723181 2.860680 -1.655852 0
M  V30 47 H -0.189203 4.200814 -0.945914 0
M  V30 48 H -1.477519 3.144627 -2.459501 0
M  V30 49 H -1.768381 1.402238 -2.272255 0
M  V30 50 H -3.458161 3.752066 -1.239138 0
M  V30 51 H -3.912453 2.461100 -2.413591 0
M  V30 52 H -4.258539 0.864175 -0.679905 0
M  V30 53 H -4.851155 2.406707 -0.043528 0
M  V30 54 H -3.499507 2.232627 1.741292 0
M  V30 55 H -2.015809 -0.048100 0.408089 0
M  V30 56 H -2.939809 -1.064793 4.904976 0
M  V30 57 H -2.218374 -3.231804 5.666506 0
M  V30 58 H -0.956540 -5.577228 4.830106 0
M  V30 59 H -0.974486 -6.599559 0.444831 0
M  V30 60 H -0.322572 -7.206429 -1.784213 0
M  V30 61 H 1.926299 -6.103222 -3.791303 0
M  V30 62 H 0.285297 -5.341408 -4.105236 0
M  V30 63 H 3.315100 -2.244143 -4.244547 0
M  V30 64 H 3.467619 -1.132752 -2.876625 0
M  V30 65 H 4.814390 -2.325090 -3.260607 0
M  V30 66 H 0.830131 -2.763785 0.176968 0
M  V30 67 H -1.422873 -1.920383 0.966661 0
M  V30 68 H -2.218571 3.782269 0.385217 0
M  V30 69 H -1.238861 2.802114 1.488075 0
M  V30 END ATOM
M  V30 BEGIN BOND
M  V30 1 1 1 2
M  V30 2 1 2 3
M  V30 3 2 3 4
M  V30 4 1 4 5
M  V30 5 2 5 6
M  V30 6 1 6 7
M  V30 7 1 7 8
M  V30 8 2 7 9
M  V30 9 1 9 10
M  V30 10 1 10 11
M  V30 11 1 11 12
M  V30 12 1 12 13
M  V30 13 1 13 14
M  V30 14 1 14 15
M  V30 15 1 15 16
M  V30 16 1 16 17
M  V30 17 2 17 18
M  V30 18 1 17 19
M  V30 19 2 19 20
M  V30 20 1 20 21
M  V30 21 2 21 22
M  V30 22 1 22 23
M  V30 23 1 23 24
M  V30 24 2 24 25
M  V30 25 1 25 26
M  V30 26 2 26 27
M  V30 27 1 27 28
M  V30 28 2 28 29
M  V30 29 1 29 30
M  V30 30 1 29 31
M  V30 31 1 31 32
M  V30 32 1 32 33
M  V30 33 1 33 34
M  V30 34 2 33 35
M  V30 35 2 31 36
M  V30 36 1 25 37
M  V30 37 2 37 38
M  V30 38 1 15 39
M  V30 39 1 9 3
M  V30 40 1 39 11
M  V30 41 1 38 19
M  V30 42 1 37 22
M  V30 43 1 36 26
M  V30 44 1 1 40
M  V30 45 1 1 41
M  V30 46 1 1 42
M  V30 47 1 4 43
M  V30 48 1 5 44
M  V30 49 1 6 45
M  V30 50 1 10 46
M  V30 51 1 10 47
M  V30 52 1 12 48
M  V30 53 1 12 49
M  V30 54 1 13 50
M  V30 55 1 13 51
M  V30 56 1 14 52
M  V30 57 1 14 53
M  V30 58 1 15 54 CFG=1
M  V30 59 1 16 55
M  V30 60 1 20 56
M  V30 61 1 21 57
M  V30 62 1 23 58
M  V30 63 1 27 59
M  V30 64 1 28 60
M  V30 65 1 30 61
M  V30 66 1 30 62
M  V30 67 1 34 63
M  V30 68 1 34 64
M  V30 69 1 34 65
M  V30 70 1 36 66
M  V30 71 1 38 67
M  V30 72 1 39 68
M  V30 73 1 39 69
M  V30 END BOND
M  V30 END CTAB
M  END
>  <Dataset>  (401) 
ChEMBL_Kinases

>  <Ligand_Instance>  (401) 
nan

>  <PDB_ID>  (401) 
nan

>  <Standardized_SMILES>  (401) 
COc1cccc(F)c1CN1CCC[C@@H](NC(=O)c2ccc3[nH]nc(-c4ccc(N)c(OC(C)=O)c4)c3c2)C1

>  <Name>  (401) 
nan

>  <Pocket>  (401) 
nan

>  <ATP_Site>  (401) 
nan

>  <Peripheral>  (401) 
nan

>  <Num_H_Atoms_ProtBoundConf>  (401) 
nan

>  <Num_Resolved_Atoms>  (401) 
nan

>  <Num_Not_Resolved_Atoms>  (401) 
nan

$$$$
CHEMBL3654502
     RDKit          3D

  0  0  0  0  0  0  0  0  0  0999 V3000
M  V30 BEGIN CTAB
M  V30 COUNTS 67 71 0 0 0
M  V30 BEGIN ATOM
M  V30 1 C 4.310182 -2.745369 -0.340470 0
M  V30 2 O 3.894636 -2.253925 -1.595132 0
M  V30 3 C 4.312506 -0.999368 -2.003733 0
M  V30 4 C 5.128551 -0.230548 -1.204786 0
M  V30 5 C 5.558586 1.017944 -1.598099 0
M  V30 6 C 5.150765 1.474635 -2.810197 0
M  V30 7 C 4.339771 0.686765 -3.579556 0
M  V30 8 F 3.973279 1.218328 -4.785515 0
M  V30 9 C 3.867856 -0.588478 -3.237336 0
M  V30 10 C 2.965888 -1.258387 -4.192358 0
M  V30 11 N 1.564685 -1.088201 -3.961468 0
M  V30 12 C 0.868734 -1.861851 -4.966984 0
M  V30 13 C -0.581666 -1.487249 -4.927430 0
M  V30 14 C -1.177347 -1.805682 -3.575448 0
M  V30 15 C -0.339984 -1.342695 -2.439788 0 CFG=1
M  V30 16 N -0.633337 -2.154346 -1.274197 0
M  V30 17 C -1.119696 -1.580486 -0.083770 0
M  V30 18 O -1.261878 -0.330806 -0.149010 0
M  V30 19 C -1.427120 -2.381452 1.112351 0
M  V30 20 C -1.303544 -3.752934 1.194785 0
M  V30 21 C -1.626288 -4.382916 2.378845 0
M  V30 22 C -2.068352 -3.684842 3.482754 0
M  V30 23 N -2.449512 -4.040938 4.745133 0
M  V30 24 N -2.798709 -2.954370 5.436811 0
M  V30 25 C -2.653273 -1.857467 4.639277 0
M  V30 26 C -2.937430 -0.483463 5.037648 0
M  V30 27 C -4.048603 -0.003768 5.701796 0
M  V30 28 C -4.168025 1.333967 6.018272 0
M  V30 29 C -3.174880 2.247642 5.680594 0
M  V30 30 S -3.290963 3.952371 6.064699 0
M  V30 31 C -4.055845 4.868190 4.741480 0
M  V30 32 O -4.065320 4.140369 7.334001 0
M  V30 33 O -1.919988 4.527741 6.253169 0
M  V30 34 C -2.059910 1.769409 5.014993 0
M  V30 35 C -1.920359 0.414089 4.684867 0
M  V30 36 C -2.197643 -2.324790 3.422350 0
M  V30 37 C -1.875579 -1.675373 2.233194 0
M  V30 38 C 1.165185 -1.488330 -2.675524 0
M  V30 39 H 3.904685 -3.749954 -0.139819 0
M  V30 40 H 3.989879 -2.091179 0.510152 0
M  V30 41 H 5.434436 -2.763014 -0.357068 0
M  V30 42 H 5.419983 -0.661904 -0.238604 0
M  V30 43 H 6.191788 1.536491 -0.901429 0
M  V30 44 H 5.475747 2.450070 -3.140653 0
M  V30 45 H 3.227768 -2.349826 -4.292661 0
M  V30 46 H 3.229821 -0.859026 -5.222947 0
M  V30 47 H 1.290467 -1.677806 -5.967393 0
M  V30 48 H 0.959171 -2.922723 -4.650062 0
M  V30 49 H -1.115024 -2.158200 -5.655477 0
M  V30 50 H -0.786289 -0.467882 -5.261564 0
M  V30 51 H -1.356642 -2.879210 -3.509877 0
M  V30 52 H -2.163507 -1.292585 -3.543779 0
M  V30 53 H -0.580134 -0.260522 -2.249017 0
M  V30 54 H -0.470679 -3.181176 -1.351416 0
M  V30 55 H -0.953782 -4.273703 0.312489 0
M  V30 56 H -1.532047 -5.465570 2.453867 0
M  V30 57 H -2.426826 -5.055184 5.009231 0
M  V30 58 H -4.783208 -0.748235 5.939325 0
M  V30 59 H -5.049356 1.677464 6.537922 0
M  V30 60 H -3.634659 4.512368 3.762959 0
M  V30 61 H -5.149891 4.678299 4.705770 0
M  V30 62 H -3.799059 5.926369 4.843941 0
M  V30 63 H -1.290276 2.514980 4.760095 0
M  V30 64 H -0.986840 0.217166 4.169876 0
M  V30 65 H -1.973171 -0.583075 2.156968 0
M  V30 66 H 1.622619 -0.903980 -1.845861 0
M  V30 67 H 1.370412 -2.562089 -2.506414 0
M  V30 END ATOM
M  V30 BEGIN BOND
M  V30 1 1 1 2
M  V30 2 1 2 3
M  V30 3 2 3 4
M  V30 4 1 4 5
M  V30 5 2 5 6
M  V30 6 1 6 7
M  V30 7 1 7 8
M  V30 8 2 7 9
M  V30 9 1 9 10
M  V30 10 1 10 11
M  V30 11 1 11 12
M  V30 12 1 12 13
M  V30 13 1 13 14
M  V30 14 1 14 15
M  V30 15 1 15 16
M  V30 16 1 16 17
M  V30 17 2 17 18
M  V30 18 1 17 19
M  V30 19 2 19 20
M  V30 20 1 20 21
M  V30 21 2 21 22
M  V30 22 1 22 23
M  V30 23 1 23 24
M  V30 24 2 24 25
M  V30 25 1 25 26
M  V30 26 2 26 27
M  V30 27 1 27 28
M  V30 28 2 28 29
M  V30 29 1 29 30
M  V30 30 1 30 31
M  V30 31 2 30 32
M  V30 32 2 30 33
M  V30 33 1 29 34
M  V30 34 2 34 35
M  V30 35 1 25 36
M  V30 36 2 36 37
M  V30 37 1 15 38
M  V30 38 1 9 3
M  V30 39 1 38 11
M  V30 40 1 37 19
M  V30 41 1 36 22
M  V30 42 1 35 26
M  V30 43 1 1 39
M  V30 44 1 1 40
M  V30 45 1 1 41
M  V30 46 1 4 42
M  V30 47 1 5 43
M  V30 48 1 6 44
M  V30 49 1 10 45
M  V30 50 1 10 46
M  V30 51 1 12 47
M  V30 52 1 12 48
M  V30 53 1 13 49
M  V30 54 1 13 50
M  V30 55 1 14 51
M  V30 56 1 14 52
M  V30 57 1 15 53 CFG=1
M  V30 58 1 16 54
M  V30 59 1 20 55
M  V30 60 1 21 56
M  V30 61 1 23 57
M  V30 62 1 27 58
M  V30 63 1 28 59
M  V30 64 1 31 60
M  V30 65 1 31 61
M  V30 66 1 31 62
M  V30 67 1 34 63
M  V30 68 1 35 64
M  V30 69 1 37 65
M  V30 70 1 38 66
M  V30 71 1 38 67
M  V30 END BOND
M  V30 END CTAB
M  END
>  <Dataset>  (402) 
ChEMBL_Kinases

>  <Ligand_Instance>  (402) 
nan

>  <PDB_ID>  (402) 
nan

>  <Standardized_SMILES>  (402) 
COc1cccc(F)c1CN1CCC[C@@H](NC(=O)c2ccc3[nH]nc(-c4ccc(S(C)(=O)=O)cc4)c3c2)C1

>  <Name>  (402) 
nan

>  <Pocket>  (402) 
nan

>  <ATP_Site>  (402) 
nan

>  <Peripheral>  (402) 
nan

>  <Num_H_Atoms_ProtBoundConf>  (402) 
nan

>  <Num_Resolved_Atoms>  (402) 
nan

>  <Num_Not_Resolved_Atoms>  (402) 
nan

$$$$
CHEMBL3654501
     RDKit          3D

  0  0  0  0  0  0  0  0  0  0999 V3000
M  V30 BEGIN CTAB
M  V30 COUNTS 62 66 0 0 0
M  V30 BEGIN ATOM
M  V30 1 C 2.858502 0.301529 4.829529 0
M  V30 2 O 2.884925 0.488261 3.439594 0
M  V30 3 C 3.852812 1.147960 2.736048 0
M  V30 4 C 4.923860 1.699008 3.406457 0
M  V30 5 C 5.900609 2.364777 2.696415 0
M  V30 6 C 5.862081 2.510678 1.329777 0
M  V30 7 C 4.756878 1.929818 0.734390 0
M  V30 8 F 4.660231 2.040987 -0.632011 0
M  V30 9 C 3.719305 1.237669 1.367930 0
M  V30 10 C 2.604954 0.679198 0.558837 0
M  V30 11 N 1.396023 1.394599 0.599673 0
M  V30 12 C 1.405872 2.752125 0.197417 0
M  V30 13 C 0.013507 3.331071 0.085649 0
M  V30 14 C -0.997099 2.223622 -0.028956 0
M  V30 15 C -0.988900 1.304847 1.180263 0 CFG=1
M  V30 16 N -1.685125 0.092844 0.815930 0
M  V30 17 C -2.895376 -0.282649 1.442749 0
M  V30 18 O -3.396813 0.436055 2.338039 0
M  V30 19 C -3.621454 -1.499365 1.098384 0
M  V30 20 C -4.798224 -1.777149 1.756161 0
M  V30 21 C -5.574193 -2.910678 1.509046 0
M  V30 22 C -5.152841 -3.816999 0.552754 0
M  V30 23 N -5.568894 -4.988250 0.017204 0
M  V30 24 N -4.711654 -5.397342 -0.899572 0
M  V30 25 C -3.691188 -4.529166 -1.021130 0
M  V30 26 C -2.609963 -4.762513 -1.973887 0
M  V30 27 C -2.051429 -6.033658 -2.056504 0
M  V30 28 C -1.032051 -6.207005 -2.970133 0
M  V30 29 C -0.540719 -5.216284 -3.792454 0
M  V30 30 C -1.154679 -3.990866 -3.640703 0
M  V30 31 C -0.682726 -2.902777 -4.479044 0
M  V30 32 N -0.295355 -2.026557 -5.163377 0
M  V30 33 C -2.176299 -3.694982 -2.768499 0
M  V30 34 C -3.971988 -3.523663 -0.097040 0
M  V30 35 C -3.197547 -2.404969 0.140764 0
M  V30 36 C 0.430425 1.084030 1.587634 0
M  V30 37 H 3.444263 -0.601904 5.083167 0
M  V30 38 H 1.769686 0.196376 5.117634 0
M  V30 39 H 3.196145 1.214813 5.325429 0
M  V30 40 H 5.009869 1.617236 4.482185 0
M  V30 41 H 6.759016 2.807976 3.221675 0
M  V30 42 H 6.587148 3.015158 0.718072 0
M  V30 43 H 2.537025 -0.383795 0.842919 0
M  V30 44 H 2.944556 0.652812 -0.519133 0
M  V30 45 H 1.919104 3.367778 0.993026 0
M  V30 46 H 1.973411 2.865964 -0.739730 0
M  V30 47 H -0.033798 3.894806 -0.869219 0
M  V30 48 H -0.240337 4.036838 0.904086 0
M  V30 49 H -0.745765 1.658946 -0.958627 0
M  V30 50 H -2.000977 2.697974 -0.195967 0
M  V30 51 H -1.524420 1.839914 1.988872 0
M  V30 52 H -1.264031 -0.503929 0.068708 0
M  V30 53 H -5.241023 -1.143384 2.532471 0
M  V30 54 H -6.491143 -3.130953 2.018857 0
M  V30 55 H -6.465283 -5.444225 0.343110 0
M  V30 56 H -2.410832 -6.828123 -1.429731 0
M  V30 57 H -0.611248 -7.212056 -3.014629 0
M  V30 58 H 0.260163 -5.374681 -4.502204 0
M  V30 59 H -2.598565 -2.711479 -2.714274 0
M  V30 60 H -2.276509 -2.211044 -0.390451 0
M  V30 61 H 0.641057 1.749621 2.452679 0
M  V30 62 H 0.585843 0.052914 2.027450 0
M  V30 END ATOM
M  V30 BEGIN BOND
M  V30 1 1 1 2
M  V30 2 1 2 3
M  V30 3 2 3 4
M  V30 4 1 4 5
M  V30 5 2 5 6
M  V30 6 1 6 7
M  V30 7 1 7 8
M  V30 8 2 7 9
M  V30 9 1 9 10
M  V30 10 1 10 11
M  V30 11 1 11 12
M  V30 12 1 12 13
M  V30 13 1 13 14
M  V30 14 1 14 15
M  V30 15 1 15 16
M  V30 16 1 16 17
M  V30 17 2 17 18
M  V30 18 1 17 19
M  V30 19 2 19 20
M  V30 20 1 20 21
M  V30 21 2 21 22
M  V30 22 1 22 23
M  V30 23 1 23 24
M  V30 24 2 24 25
M  V30 25 1 25 26
M  V30 26 2 26 27
M  V30 27 1 27 28
M  V30 28 2 28 29
M  V30 29 1 29 30
M  V30 30 1 30 31
M  V30 31 3 31 32
M  V30 32 2 30 33
M  V30 33 1 25 34
M  V30 34 2 34 35
M  V30 35 1 15 36
M  V30 36 1 9 3
M  V30 37 1 36 11
M  V30 38 1 35 19
M  V30 39 1 34 22
M  V30 40 1 33 26
M  V30 41 1 1 37
M  V30 42 1 1 38
M  V30 43 1 1 39
M  V30 44 1 4 40
M  V30 45 1 5 41
M  V30 46 1 6 42
M  V30 47 1 10 43
M  V30 48 1 10 44
M  V30 49 1 12 45
M  V30 50 1 12 46
M  V30 51 1 13 47
M  V30 52 1 13 48
M  V30 53 1 14 49
M  V30 54 1 14 50
M  V30 55 1 15 51 CFG=1
M  V30 56 1 16 52
M  V30 57 1 20 53
M  V30 58 1 21 54
M  V30 59 1 23 55
M  V30 60 1 27 56
M  V30 61 1 28 57
M  V30 62 1 29 58
M  V30 63 1 33 59
M  V30 64 1 35 60
M  V30 65 1 36 61
M  V30 66 1 36 62
M  V30 END BOND
M  V30 END CTAB
M  END
>  <Dataset>  (403) 
ChEMBL_Kinases

>  <Ligand_Instance>  (403) 
nan

>  <PDB_ID>  (403) 
nan

>  <Standardized_SMILES>  (403) 
COc1cccc(F)c1CN1CCC[C@@H](NC(=O)c2ccc3[nH]nc(-c4cccc(C#N)c4)c3c2)C1

>  <Name>  (403) 
nan

>  <Pocket>  (403) 
nan

>  <ATP_Site>  (403) 
nan

>  <Peripheral>  (403) 
nan

>  <Num_H_Atoms_ProtBoundConf>  (403) 
nan

>  <Num_Resolved_Atoms>  (403) 
nan

>  <Num_Not_Resolved_Atoms>  (403) 
nan

$$$$
CHEMBL3654500
     RDKit          3D

  0  0  0  0  0  0  0  0  0  0999 V3000
M  V30 BEGIN CTAB
M  V30 COUNTS 62 66 0 0 0
M  V30 BEGIN ATOM
M  V30 1 C 1.446230 3.054885 5.614723 0
M  V30 2 O 1.846371 2.950980 4.268872 0
M  V30 3 C 2.720956 2.001585 3.766704 0
M  V30 4 C 3.255679 1.074767 4.631448 0
M  V30 5 C 4.126753 0.120790 4.158589 0
M  V30 6 C 4.453690 0.106689 2.816649 0
M  V30 7 C 3.898397 1.056124 1.962881 0
M  V30 8 F 4.193760 1.077272 0.635987 0
M  V30 9 C 3.010400 2.036820 2.417533 0
M  V30 10 C 2.436754 3.036956 1.481505 0
M  V30 11 N 1.075349 2.771949 1.142504 0
M  V30 12 C 0.602375 3.776005 0.227216 0
M  V30 13 C 0.185366 3.121171 -1.096288 0
M  V30 14 C -1.032656 2.268245 -0.772461 0
M  V30 15 C -0.668231 1.370679 0.370865 0 CFG=1
M  V30 16 N -1.180320 0.057972 0.135815 0
M  V30 17 C -2.158214 -0.519791 0.992366 0
M  V30 18 O -2.555998 0.186023 1.978790 0
M  V30 19 C -2.739674 -1.847226 0.834877 0
M  V30 20 C -3.661394 -2.245112 1.778514 0
M  V30 21 C -4.267946 -3.489613 1.710405 0
M  V30 22 C -3.928511 -4.316199 0.680668 0
M  V30 23 N -4.351515 -5.565003 0.365659 0
M  V30 24 N -3.709198 -5.927260 -0.740757 0
M  V30 25 C -2.899262 -4.942291 -1.124047 0
M  V30 26 C -2.067164 -5.055469 -2.308769 0
M  V30 27 C -1.386007 -6.240591 -2.473437 0
M  V30 28 C -0.565091 -6.477274 -3.552261 0
M  V30 29 C -0.422548 -5.483571 -4.504175 0
M  V30 30 C 0.432370 -5.726934 -5.629597 0
M  V30 31 N 1.125264 -5.909638 -6.558134 0
M  V30 32 C -1.103855 -4.280690 -4.352399 0
M  V30 33 C -1.921807 -4.059822 -3.266407 0
M  V30 34 C -3.003575 -3.883910 -0.243035 0
M  V30 35 C -2.371808 -2.659779 -0.222808 0
M  V30 36 C 0.796058 1.434040 0.720648 0
M  V30 37 H 0.916445 2.149421 5.986949 0
M  V30 38 H 0.679249 3.879806 5.641599 0
M  V30 39 H 2.294415 3.373323 6.244009 0
M  V30 40 H 2.995600 1.089140 5.688106 0
M  V30 41 H 4.580208 -0.637920 4.800627 0
M  V30 42 H 5.148289 -0.646082 2.415581 0
M  V30 43 H 3.045020 3.002893 0.554868 0
M  V30 44 H 2.547098 4.076648 1.891039 0
M  V30 45 H -0.311755 4.290261 0.591737 0
M  V30 46 H 1.350737 4.580534 0.041835 0
M  V30 47 H -0.115056 3.920903 -1.782246 0
M  V30 48 H 0.986874 2.510775 -1.522725 0
M  V30 49 H -1.376586 1.691328 -1.656489 0
M  V30 50 H -1.859055 2.983055 -0.537666 0
M  V30 51 H -1.196754 1.773454 1.283688 0
M  V30 52 H -0.853902 -0.506411 -0.662570 0
M  V30 53 H -3.972912 -1.636398 2.619162 0
M  V30 54 H -4.990898 -3.804202 2.448758 0
M  V30 55 H -5.040584 -6.169869 0.855224 0
M  V30 56 H -1.474286 -7.038972 -1.749008 0
M  V30 57 H -0.039369 -7.432991 -3.648842 0
M  V30 58 H -1.005285 -3.489740 -5.087004 0
M  V30 59 H -2.480893 -3.161937 -3.076588 0
M  V30 60 H -1.653362 -2.358958 -0.964674 0
M  V30 61 H 0.965103 0.747138 1.573358 0
M  V30 62 H 1.449478 1.119779 -0.113664 0
M  V30 END ATOM
M  V30 BEGIN BOND
M  V30 1 1 1 2
M  V30 2 1 2 3
M  V30 3 2 3 4
M  V30 4 1 4 5
M  V30 5 2 5 6
M  V30 6 1 6 7
M  V30 7 1 7 8
M  V30 8 2 7 9
M  V30 9 1 9 10
M  V30 10 1 10 11
M  V30 11 1 11 12
M  V30 12 1 12 13
M  V30 13 1 13 14
M  V30 14 1 14 15
M  V30 15 1 15 16
M  V30 16 1 16 17
M  V30 17 2 17 18
M  V30 18 1 17 19
M  V30 19 2 19 20
M  V30 20 1 20 21
M  V30 21 2 21 22
M  V30 22 1 22 23
M  V30 23 1 23 24
M  V30 24 2 24 25
M  V30 25 1 25 26
M  V30 26 2 26 27
M  V30 27 1 27 28
M  V30 28 2 28 29
M  V30 29 1 29 30
M  V30 30 3 30 31
M  V30 31 1 29 32
M  V30 32 2 32 33
M  V30 33 1 25 34
M  V30 34 2 34 35
M  V30 35 1 15 36
M  V30 36 1 9 3
M  V30 37 1 36 11
M  V30 38 1 35 19
M  V30 39 1 34 22
M  V30 40 1 33 26
M  V30 41 1 1 37
M  V30 42 1 1 38
M  V30 43 1 1 39
M  V30 44 1 4 40
M  V30 45 1 5 41
M  V30 46 1 6 42
M  V30 47 1 10 43
M  V30 48 1 10 44
M  V30 49 1 12 45
M  V30 50 1 12 46
M  V30 51 1 13 47
M  V30 52 1 13 48
M  V30 53 1 14 49
M  V30 54 1 14 50
M  V30 55 1 15 51 CFG=1
M  V30 56 1 16 52
M  V30 57 1 20 53
M  V30 58 1 21 54
M  V30 59 1 23 55
M  V30 60 1 27 56
M  V30 61 1 28 57
M  V30 62 1 32 58
M  V30 63 1 33 59
M  V30 64 1 35 60
M  V30 65 1 36 61
M  V30 66 1 36 62
M  V30 END BOND
M  V30 END CTAB
M  END
>  <Dataset>  (404) 
ChEMBL_Kinases

>  <Ligand_Instance>  (404) 
nan

>  <PDB_ID>  (404) 
nan

>  <Standardized_SMILES>  (404) 
COc1cccc(F)c1CN1CCC[C@@H](NC(=O)c2ccc3[nH]nc(-c4ccc(C#N)cc4)c3c2)C1

>  <Name>  (404) 
nan

>  <Pocket>  (404) 
nan

>  <ATP_Site>  (404) 
nan

>  <Peripheral>  (404) 
nan

>  <Num_H_Atoms_ProtBoundConf>  (404) 
nan

>  <Num_Resolved_Atoms>  (404) 
nan

>  <Num_Not_Resolved_Atoms>  (404) 
nan

$$$$
CHEMBL3654499
     RDKit          3D

  0  0  0  0  0  0  0  0  0  0999 V3000
M  V30 BEGIN CTAB
M  V30 COUNTS 66 70 0 0 0
M  V30 BEGIN ATOM
M  V30 1 C -1.665732 1.379442 5.185866 0
M  V30 2 O -0.914386 1.243886 3.984290 0
M  V30 3 C 0.459132 1.039721 4.088836 0
M  V30 4 C 1.109795 0.965209 5.301020 0
M  V30 5 C 2.466366 0.764521 5.455101 0
M  V30 6 C 3.241442 0.626398 4.317302 0
M  V30 7 C 2.602155 0.698619 3.075023 0
M  V30 8 F 3.334197 0.566698 1.921930 0
M  V30 9 C 1.241717 0.900615 2.955990 0
M  V30 10 C 0.616692 0.969906 1.607465 0
M  V30 11 N 0.298504 2.294571 1.220737 0
M  V30 12 C 1.362002 3.225419 1.121718 0
M  V30 13 C 2.109118 3.040387 -0.150614 0
M  V30 14 C 1.410726 2.301645 -1.234868 0
M  V30 15 C -0.054092 2.221587 -1.208883 0 CFG=1
M  V30 16 N -0.637877 1.044111 -1.800709 0
M  V30 17 C -1.520378 0.886347 -2.898003 0
M  V30 18 O -1.909673 1.904811 -3.517824 0
M  V30 19 C -1.957789 -0.430213 -3.287569 0
M  V30 20 C -2.809567 -0.563155 -4.364865 0
M  V30 21 C -3.247745 -1.807401 -4.766564 0
M  V30 22 C -2.867193 -2.970919 -4.126533 0
M  V30 23 N -3.089348 -4.303590 -4.241199 0
M  V30 24 N -2.433514 -4.961251 -3.313793 0
M  V30 25 C -1.739865 -4.114292 -2.530709 0
M  V30 26 C -0.892468 -4.489422 -1.394687 0
M  V30 27 C -0.007560 -5.540012 -1.533906 0
M  V30 28 C 0.833847 -5.969631 -0.509570 0
M  V30 29 C 0.781520 -5.314182 0.703907 0
M  V30 30 C -0.098672 -4.258318 0.864421 0
M  V30 31 C -0.253494 -3.490965 2.081127 0
M  V30 32 C 0.447346 -3.642185 3.373638 0
M  V30 33 O -1.048191 -2.517017 2.258448 0
M  V30 34 C -0.926185 -3.851313 -0.174159 0
M  V30 35 C -2.011925 -2.858476 -3.041747 0
M  V30 36 C -1.591484 -1.602628 -2.664484 0
M  V30 37 C -0.662765 2.445610 0.169924 0
M  V30 38 H -2.732434 1.510107 4.958308 0
M  V30 39 H -1.476313 0.452605 5.784639 0
M  V30 40 H -1.319742 2.232265 5.787350 0
M  V30 41 H 0.543373 1.067935 6.230271 0
M  V30 42 H 2.945055 0.711045 6.422567 0
M  V30 43 H 4.319819 0.464940 4.334551 0
M  V30 44 H 1.344853 0.542661 0.856533 0
M  V30 45 H -0.263898 0.309949 1.563549 0
M  V30 46 H 2.054071 3.117382 1.981985 0
M  V30 47 H 0.932682 4.256874 1.194787 0
M  V30 48 H 3.114334 2.628700 0.096706 0
M  V30 49 H 2.368486 4.090543 -0.497695 0
M  V30 50 H 1.868918 1.294969 -1.351691 0
M  V30 51 H 1.735631 2.804706 -2.197760 0
M  V30 52 H -0.466116 3.057238 -1.819942 0
M  V30 53 H -0.254542 0.267238 -1.218644 0
M  V30 54 H -3.180388 0.261556 -4.948135 0
M  V30 55 H -3.915455 -1.979051 -5.602788 0
M  V30 56 H -3.700770 -4.710112 -4.974618 0
M  V30 57 H 0.048432 -6.066216 -2.476824 0
M  V30 58 H 1.520907 -6.775789 -0.598915 0
M  V30 59 H 1.364797 -5.526861 1.586862 0
M  V30 60 H -0.288262 -3.899150 4.175951 0
M  V30 61 H 1.182659 -4.465995 3.333478 0
M  V30 62 H 0.985728 -2.711636 3.685068 0
M  V30 63 H -1.634736 -3.016803 -0.071423 0
M  V30 64 H -0.928584 -1.548972 -1.821436 0
M  V30 65 H -1.087020 3.464298 0.293221 0
M  V30 66 H -1.499356 1.756738 0.285227 0
M  V30 END ATOM
M  V30 BEGIN BOND
M  V30 1 1 1 2
M  V30 2 1 2 3
M  V30 3 2 3 4
M  V30 4 1 4 5
M  V30 5 2 5 6
M  V30 6 1 6 7
M  V30 7 1 7 8
M  V30 8 2 7 9
M  V30 9 1 9 10
M  V30 10 1 10 11
M  V30 11 1 11 12
M  V30 12 1 12 13
M  V30 13 1 13 14
M  V30 14 1 14 15
M  V30 15 1 15 16
M  V30 16 1 16 17
M  V30 17 2 17 18
M  V30 18 1 17 19
M  V30 19 2 19 20
M  V30 20 1 20 21
M  V30 21 2 21 22
M  V30 22 1 22 23
M  V30 23 1 23 24
M  V30 24 2 24 25
M  V30 25 1 25 26
M  V30 26 2 26 27
M  V30 27 1 27 28
M  V30 28 2 28 29
M  V30 29 1 29 30
M  V30 30 1 30 31
M  V30 31 1 31 32
M  V30 32 2 31 33
M  V30 33 2 30 34
M  V30 34 1 25 35
M  V30 35 2 35 36
M  V30 36 1 15 37
M  V30 37 1 9 3
M  V30 38 1 37 11
M  V30 39 1 36 19
M  V30 40 1 35 22
M  V30 41 1 34 26
M  V30 42 1 1 38
M  V30 43 1 1 39
M  V30 44 1 1 40
M  V30 45 1 4 41
M  V30 46 1 5 42
M  V30 47 1 6 43
M  V30 48 1 10 44
M  V30 49 1 10 45
M  V30 50 1 12 46
M  V30 51 1 12 47
M  V30 52 1 13 48
M  V30 53 1 13 49
M  V30 54 1 14 50
M  V30 55 1 14 51
M  V30 56 1 15 52 CFG=3
M  V30 57 1 16 53
M  V30 58 1 20 54
M  V30 59 1 21 55
M  V30 60 1 23 56
M  V30 61 1 27 57
M  V30 62 1 28 58
M  V30 63 1 29 59
M  V30 64 1 32 60
M  V30 65 1 32 61
M  V30 66 1 32 62
M  V30 67 1 34 63
M  V30 68 1 36 64
M  V30 69 1 37 65
M  V30 70 1 37 66
M  V30 END BOND
M  V30 END CTAB
M  END
>  <Dataset>  (405) 
ChEMBL_Kinases

>  <Ligand_Instance>  (405) 
nan

>  <PDB_ID>  (405) 
nan

>  <Standardized_SMILES>  (405) 
COc1cccc(F)c1CN1CCC[C@@H](NC(=O)c2ccc3[nH]nc(-c4cccc(C(C)=O)c4)c3c2)C1

>  <Name>  (405) 
nan

>  <Pocket>  (405) 
nan

>  <ATP_Site>  (405) 
nan

>  <Peripheral>  (405) 
nan

>  <Num_H_Atoms_ProtBoundConf>  (405) 
nan

>  <Num_Resolved_Atoms>  (405) 
nan

>  <Num_Not_Resolved_Atoms>  (405) 
nan

$$$$
CHEMBL3654498
     RDKit          3D

  0  0  0  0  0  0  0  0  0  0999 V3000
M  V30 BEGIN CTAB
M  V30 COUNTS 66 70 0 0 0
M  V30 BEGIN ATOM
M  V30 1 C 4.040509 2.716399 5.792585 0
M  V30 2 O 3.804573 2.358285 4.443543 0
M  V30 3 C 4.773597 2.393299 3.457379 0
M  V30 4 C 6.094595 2.787211 3.685398 0
M  V30 5 C 7.043180 2.813503 2.683979 0
M  V30 6 C 6.704822 2.441507 1.394419 0
M  V30 7 C 5.397124 2.056191 1.189451 0
M  V30 8 F 5.108719 1.697158 -0.097501 0
M  V30 9 C 4.413073 2.015168 2.165850 0
M  V30 10 C 3.016894 1.584025 1.856540 0
M  V30 11 N 2.099834 2.643592 1.773295 0
M  V30 12 C 2.284476 3.640003 0.800656 0
M  V30 13 C 1.030507 4.205878 0.240426 0
M  V30 14 C 0.031897 3.151334 -0.180166 0
M  V30 15 C -0.150962 2.110185 0.910898 0 CFG=1
M  V30 16 N -0.117340 0.840212 0.303657 0
M  V30 17 C -1.078531 -0.187744 0.102695 0
M  V30 18 O -2.200426 0.093128 0.563631 0
M  V30 19 C -0.775143 -1.416899 -0.563535 0
M  V30 20 C 0.472393 -1.699952 -1.057280 0
M  V30 21 C 0.787002 -2.878845 -1.701703 0
M  V30 22 C -0.218951 -3.812168 -1.848915 0
M  V30 23 N -0.215092 -5.027337 -2.420239 0
M  V30 24 N -1.426445 -5.519962 -2.300887 0
M  V30 25 C -2.234630 -4.632587 -1.650712 0
M  V30 26 C -3.640842 -4.925026 -1.380786 0
M  V30 27 C -4.310963 -4.714091 -0.193689 0
M  V30 28 C -5.656925 -5.044444 -0.085868 0
M  V30 29 C -6.329969 -5.583688 -1.161342 0
M  V30 30 C -7.736860 -5.894885 -0.946374 0
M  V30 31 C -8.675417 -6.478729 -1.934295 0
M  V30 32 O -8.254516 -5.662647 0.175595 0
M  V30 33 C -5.701050 -5.810989 -2.364154 0
M  V30 34 C -4.369366 -5.471357 -2.432290 0
M  V30 35 C -1.469339 -3.523563 -1.351824 0
M  V30 36 C -1.805484 -2.354888 -0.705930 0
M  V30 37 C 0.721643 2.387691 2.071199 0
M  V30 38 H 3.068224 2.898125 6.288857 0
M  V30 39 H 4.568666 1.909030 6.344866 0
M  V30 40 H 4.654138 3.643712 5.782411 0
M  V30 41 H 6.374376 3.080396 4.686923 0
M  V30 42 H 8.067954 3.124480 2.885320 0
M  V30 43 H 7.433198 2.458418 0.612576 0
M  V30 44 H 3.062981 1.094164 0.838255 0
M  V30 45 H 2.783641 0.779493 2.544714 0
M  V30 46 H 2.933820 3.292104 -0.051343 0
M  V30 47 H 2.916438 4.452148 1.275445 0
M  V30 48 H 1.304505 4.742177 -0.711138 0
M  V30 49 H 0.602996 4.972090 0.896390 0
M  V30 50 H -0.915374 3.696919 -0.348608 0
M  V30 51 H 0.277913 2.700980 -1.155542 0
M  V30 52 H -1.196267 2.251504 1.263392 0
M  V30 53 H 0.866502 0.738865 -0.034720 0
M  V30 54 H 1.299539 -1.010513 -0.972757 0
M  V30 55 H 1.769852 -3.092768 -2.086175 0
M  V30 56 H 0.625615 -5.456199 -2.864974 0
M  V30 57 H -3.720649 -4.286892 0.612327 0
M  V30 58 H -6.087499 -4.837171 0.893633 0
M  V30 59 H -9.402812 -5.727424 -2.322349 0
M  V30 60 H -8.122892 -6.899817 -2.798496 0
M  V30 61 H -9.205861 -7.318414 -1.410874 0
M  V30 62 H -6.236302 -6.234508 -3.202771 0
M  V30 63 H -3.885912 -5.656107 -3.387277 0
M  V30 64 H -2.817905 -2.217216 -0.348704 0
M  V30 65 H 0.381596 3.345364 2.558732 0
M  V30 66 H 0.699714 1.687789 2.895418 0
M  V30 END ATOM
M  V30 BEGIN BOND
M  V30 1 1 1 2
M  V30 2 1 2 3
M  V30 3 2 3 4
M  V30 4 1 4 5
M  V30 5 2 5 6
M  V30 6 1 6 7
M  V30 7 1 7 8
M  V30 8 2 7 9
M  V30 9 1 9 10
M  V30 10 1 10 11
M  V30 11 1 11 12
M  V30 12 1 12 13
M  V30 13 1 13 14
M  V30 14 1 14 15
M  V30 15 1 15 16
M  V30 16 1 16 17
M  V30 17 2 17 18
M  V30 18 1 17 19
M  V30 19 2 19 20
M  V30 20 1 20 21
M  V30 21 2 21 22
M  V30 22 1 22 23
M  V30 23 1 23 24
M  V30 24 2 24 25
M  V30 25 1 25 26
M  V30 26 2 26 27
M  V30 27 1 27 28
M  V30 28 2 28 29
M  V30 29 1 29 30
M  V30 30 1 30 31
M  V30 31 2 30 32
M  V30 32 1 29 33
M  V30 33 2 33 34
M  V30 34 1 25 35
M  V30 35 2 35 36
M  V30 36 1 15 37
M  V30 37 1 9 3
M  V30 38 1 37 11
M  V30 39 1 36 19
M  V30 40 1 35 22
M  V30 41 1 34 26
M  V30 42 1 1 38
M  V30 43 1 1 39
M  V30 44 1 1 40
M  V30 45 1 4 41
M  V30 46 1 5 42
M  V30 47 1 6 43
M  V30 48 1 10 44
M  V30 49 1 10 45
M  V30 50 1 12 46
M  V30 51 1 12 47
M  V30 52 1 13 48
M  V30 53 1 13 49
M  V30 54 1 14 50
M  V30 55 1 14 51
M  V30 56 1 15 52 CFG=1
M  V30 57 1 16 53
M  V30 58 1 20 54
M  V30 59 1 21 55
M  V30 60 1 23 56
M  V30 61 1 27 57
M  V30 62 1 28 58
M  V30 63 1 31 59
M  V30 64 1 31 60
M  V30 65 1 31 61
M  V30 66 1 33 62
M  V30 67 1 34 63
M  V30 68 1 36 64
M  V30 69 1 37 65
M  V30 70 1 37 66
M  V30 END BOND
M  V30 END CTAB
M  END
>  <Dataset>  (406) 
ChEMBL_Kinases

>  <Ligand_Instance>  (406) 
nan

>  <PDB_ID>  (406) 
nan

>  <Standardized_SMILES>  (406) 
COc1cccc(F)c1CN1CCC[C@@H](NC(=O)c2ccc3[nH]nc(-c4ccc(C(C)=O)cc4)c3c2)C1

>  <Name>  (406) 
nan

>  <Pocket>  (406) 
nan

>  <ATP_Site>  (406) 
nan

>  <Peripheral>  (406) 
nan

>  <Num_H_Atoms_ProtBoundConf>  (406) 
nan

>  <Num_Resolved_Atoms>  (406) 
nan

>  <Num_Not_Resolved_Atoms>  (406) 
nan

$$$$
CHEMBL3654497
     RDKit          3D

  0  0  0  0  0  0  0  0  0  0999 V3000
M  V30 BEGIN CTAB
M  V30 COUNTS 68 72 0 0 0
M  V30 BEGIN ATOM
M  V30 1 C 4.150461 -1.157511 -0.165773 0
M  V30 2 O 3.899022 -0.158496 -1.105607 0
M  V30 3 C 4.034072 1.189522 -0.808285 0
M  V30 4 C 4.424889 1.638786 0.422075 0
M  V30 5 C 4.557703 3.000700 0.698326 0
M  V30 6 C 4.272646 3.855304 -0.339355 0
M  V30 7 C 3.876149 3.401254 -1.587085 0
M  V30 8 F 3.635373 4.376311 -2.493808 0
M  V30 9 C 3.745774 2.036986 -1.852295 0
M  V30 10 C 3.292199 1.756061 -3.221306 0
M  V30 11 N 1.913987 1.496874 -3.411483 0
M  V30 12 C 1.560433 1.162063 -4.768953 0
M  V30 13 C 0.109763 1.484773 -4.965404 0
M  V30 14 C -0.776386 0.720641 -4.009640 0
M  V30 15 C -0.232036 0.620683 -2.636596 0 CFG=1
M  V30 16 N -0.638597 -0.663724 -2.037910 0
M  V30 17 C -1.325108 -0.922610 -0.844206 0
M  V30 18 O -1.643366 0.092903 -0.175025 0
M  V30 19 C -1.621576 -2.296105 -0.457217 0
M  V30 20 C -1.323720 -3.398208 -1.228919 0
M  V30 21 C -1.617459 -4.684663 -0.825068 0
M  V30 22 C -2.229326 -4.824115 0.398620 0
M  V30 23 N -2.609818 -5.957704 1.001567 0
M  V30 24 N -3.166130 -5.637243 2.181829 0
M  V30 25 C -3.116639 -4.284273 2.285687 0
M  V30 26 C -3.641118 -3.605637 3.463300 0
M  V30 27 C -4.854678 -3.908361 4.042477 0
M  V30 28 C -5.400039 -3.306148 5.155583 0
M  V30 29 C -4.637150 -2.300574 5.733468 0
M  V30 30 C -3.400147 -1.938488 5.204978 0
M  V30 31 N -2.626094 -0.908441 5.807019 0
M  V30 32 C -1.622628 -0.686021 6.786868 0
M  V30 33 C -1.179357 0.714640 6.986339 0
M  V30 34 O -1.090051 -1.570193 7.486064 0
M  V30 35 C -2.909220 -2.587444 4.079214 0
M  V30 36 C -2.525737 -3.740445 1.164875 0
M  V30 37 C -2.244718 -2.444178 0.788025 0
M  V30 38 C 1.268105 0.635691 -2.509087 0
M  V30 39 H 3.627574 -2.102277 -0.429463 0
M  V30 40 H 3.782732 -0.838452 0.834366 0
M  V30 41 H 5.244368 -1.373456 -0.174881 0
M  V30 42 H 4.642692 0.966446 1.214982 0
M  V30 43 H 4.862524 3.388099 1.653566 0
M  V30 44 H 4.378262 4.927958 -0.121706 0
M  V30 45 H 3.842839 0.806660 -3.522133 0
M  V30 46 H 3.700644 2.509468 -3.952173 0
M  V30 47 H 1.759997 0.075581 -4.896767 0
M  V30 48 H 2.133168 1.736840 -5.518192 0
M  V30 49 H -0.039289 2.565407 -4.936021 0
M  V30 50 H -0.159374 1.162219 -5.994965 0
M  V30 51 H -1.038476 -0.284691 -4.453979 0
M  V30 52 H -1.755472 1.254409 -3.975543 0
M  V30 53 H -0.621200 1.463874 -2.011891 0
M  V30 54 H -0.298044 -1.391055 -2.710981 0
M  V30 55 H -0.844768 -3.268611 -2.184273 0
M  V30 56 H -1.377959 -5.532641 -1.442117 0
M  V30 57 H -2.515686 -6.946023 0.659665 0
M  V30 58 H -5.435636 -4.708853 3.561798 0
M  V30 59 H -6.373451 -3.619194 5.538388 0
M  V30 60 H -5.022683 -1.786907 6.621778 0
M  V30 61 H -3.053297 -0.131763 5.233640 0
M  V30 62 H -1.442324 1.012722 8.041451 0
M  V30 63 H -1.677507 1.426606 6.296953 0
M  V30 64 H -0.080620 0.768764 6.883434 0
M  V30 65 H -1.955281 -2.282306 3.701186 0
M  V30 66 H -2.516082 -1.640943 1.459318 0
M  V30 67 H 1.465835 0.870853 -1.431597 0
M  V30 68 H 1.639811 -0.412209 -2.652366 0
M  V30 END ATOM
M  V30 BEGIN BOND
M  V30 1 1 1 2
M  V30 2 1 2 3
M  V30 3 2 3 4
M  V30 4 1 4 5
M  V30 5 2 5 6
M  V30 6 1 6 7
M  V30 7 1 7 8
M  V30 8 2 7 9
M  V30 9 1 9 10
M  V30 10 1 10 11
M  V30 11 1 11 12
M  V30 12 1 12 13
M  V30 13 1 13 14
M  V30 14 1 14 15
M  V30 15 1 15 16
M  V30 16 1 16 17
M  V30 17 2 17 18
M  V30 18 1 17 19
M  V30 19 2 19 20
M  V30 20 1 20 21
M  V30 21 2 21 22
M  V30 22 1 22 23
M  V30 23 1 23 24
M  V30 24 2 24 25
M  V30 25 1 25 26
M  V30 26 2 26 27
M  V30 27 1 27 28
M  V30 28 2 28 29
M  V30 29 1 29 30
M  V30 30 1 30 31
M  V30 31 1 31 32
M  V30 32 1 32 33
M  V30 33 2 32 34
M  V30 34 2 30 35
M  V30 35 1 25 36
M  V30 36 2 36 37
M  V30 37 1 15 38
M  V30 38 1 9 3
M  V30 39 1 38 11
M  V30 40 1 37 19
M  V30 41 1 36 22
M  V30 42 1 35 26
M  V30 43 1 1 39
M  V30 44 1 1 40
M  V30 45 1 1 41
M  V30 46 1 4 42
M  V30 47 1 5 43
M  V30 48 1 6 44
M  V30 49 1 10 45
M  V30 50 1 10 46
M  V30 51 1 12 47
M  V30 52 1 12 48
M  V30 53 1 13 49
M  V30 54 1 13 50
M  V30 55 1 14 51
M  V30 56 1 14 52
M  V30 57 1 15 53 CFG=1
M  V30 58 1 16 54
M  V30 59 1 20 55
M  V30 60 1 21 56
M  V30 61 1 23 57
M  V30 62 1 27 58
M  V30 63 1 28 59
M  V30 64 1 29 60
M  V30 65 1 31 61
M  V30 66 1 33 62
M  V30 67 1 33 63
M  V30 68 1 33 64
M  V30 69 1 35 65
M  V30 70 1 37 66
M  V30 71 1 38 67
M  V30 72 1 38 68
M  V30 END BOND
M  V30 END CTAB
M  END
>  <Dataset>  (407) 
ChEMBL_Kinases

>  <Ligand_Instance>  (407) 
nan

>  <PDB_ID>  (407) 
nan

>  <Standardized_SMILES>  (407) 
COc1cccc(F)c1CN1CCC[C@@H](NC(=O)c2ccc3[nH]nc(-c4cccc(NC(C)=O)c4)c3c2)C1

>  <Name>  (407) 
nan

>  <Pocket>  (407) 
nan

>  <ATP_Site>  (407) 
nan

>  <Peripheral>  (407) 
nan

>  <Num_H_Atoms_ProtBoundConf>  (407) 
nan

>  <Num_Resolved_Atoms>  (407) 
nan

>  <Num_Not_Resolved_Atoms>  (407) 
nan

$$$$
CHEMBL3654496
     RDKit          3D

  0  0  0  0  0  0  0  0  0  0999 V3000
M  V30 BEGIN CTAB
M  V30 COUNTS 72 76 0 0 0
M  V30 BEGIN ATOM
M  V30 1 C 3.781416 -1.847190 -3.024468 0
M  V30 2 O 2.984904 -0.768525 -3.422034 0
M  V30 3 C 2.851134 0.428103 -2.732394 0
M  V30 4 C 3.530232 0.642840 -1.546117 0
M  V30 5 C 3.376663 1.844632 -0.880982 0
M  V30 6 C 2.570687 2.873560 -1.331181 0
M  V30 7 C 1.893047 2.653873 -2.520437 0
M  V30 8 F 1.069725 3.603725 -3.058490 0
M  V30 9 C 2.037627 1.464583 -3.188398 0
M  V30 10 C 1.321316 1.150298 -4.481931 0
M  V30 11 N 0.221347 0.274121 -4.264797 0
M  V30 12 C -0.533545 -0.134050 -5.387567 0
M  V30 13 C -1.271500 -1.440492 -5.175281 0
M  V30 14 C -1.683594 -1.598064 -3.722608 0
M  V30 15 C -1.821396 -0.210697 -3.108167 0 CFG=1
M  V30 16 N -2.499622 -0.221780 -1.840354 0
M  V30 17 C -3.773850 0.255173 -1.436521 0
M  V30 18 O -4.560382 0.805265 -2.240430 0
M  V30 19 C -4.202646 0.112172 -0.049244 0
M  V30 20 C -5.519316 0.406099 0.249842 0
M  V30 21 C -5.958555 0.297095 1.550215 0
M  V30 22 C -5.122906 -0.103281 2.596923 0
M  V30 23 N -5.255274 -0.295634 3.926500 0
M  V30 24 N -4.089744 -0.686142 4.441681 0
M  V30 25 C -3.164679 -0.761194 3.469724 0
M  V30 26 C -1.762268 -1.137459 3.609695 0
M  V30 27 C -1.145252 -0.526903 4.702711 0
M  V30 28 C 0.181979 -0.724698 5.027477 0
M  V30 29 C 0.946296 -1.577105 4.225254 0
M  V30 30 S 2.616860 -1.846478 4.602331 0
M  V30 31 O 3.459869 -2.037494 3.359025 0
M  V30 32 O 3.228557 -0.640338 5.302311 0
M  V30 33 N 2.899027 -3.206062 5.598988 0
M  V30 34 C 2.229210 -3.011559 6.865326 0
M  V30 35 C 2.404647 -4.393021 4.968328 0
M  V30 36 C 0.322620 -2.173984 3.148903 0
M  V30 37 C -1.003629 -1.976728 2.823184 0
M  V30 38 C -3.814566 -0.391662 2.283884 0
M  V30 39 C -3.374019 -0.282313 0.978876 0
M  V30 40 C -0.421065 0.343587 -3.005582 0
M  V30 41 H 3.386551 -2.771234 -3.525243 0
M  V30 42 H 3.702670 -1.951311 -1.906938 0
M  V30 43 H 4.827611 -1.716687 -3.364886 0
M  V30 44 H 4.185502 -0.130917 -1.128665 0
M  V30 45 H 3.900663 2.039571 0.055610 0
M  V30 46 H 2.462515 3.806067 -0.798593 0
M  V30 47 H 0.965778 2.152049 -4.857537 0
M  V30 48 H 2.091092 0.766250 -5.179288 0
M  V30 49 H -1.202121 0.672095 -5.720159 0
M  V30 50 H 0.178240 -0.311842 -6.235568 0
M  V30 51 H -2.203085 -1.368302 -5.769179 0
M  V30 52 H -0.675358 -2.281036 -5.562929 0
M  V30 53 H -2.641302 -2.110735 -3.585208 0
M  V30 54 H -0.892228 -2.176707 -3.212860 0
M  V30 55 H -2.410725 0.409546 -3.802402 0
M  V30 56 H -1.821423 -0.696758 -1.185890 0
M  V30 57 H -6.254867 0.730278 -0.501793 0
M  V30 58 H -6.997530 0.526871 1.802176 0
M  V30 59 H -6.185755 -0.133984 4.400106 0
M  V30 60 H -1.654026 0.157412 5.393874 0
M  V30 61 H 0.659379 -0.251207 5.874435 0
M  V30 62 H 2.736927 -3.591247 7.679468 0
M  V30 63 H 1.144052 -3.317884 6.798714 0
M  V30 64 H 2.218895 -1.922558 7.082753 0
M  V30 65 H 1.313419 -4.486564 5.217549 0
M  V30 66 H 2.885831 -5.321465 5.336534 0
M  V30 67 H 2.556547 -4.291991 3.877673 0
M  V30 68 H 0.879979 -2.838956 2.508558 0
M  V30 69 H -1.544972 -2.412059 1.998019 0
M  V30 70 H -2.340874 -0.515166 0.764460 0
M  V30 71 H -0.496184 1.429325 -2.703032 0
M  V30 72 H 0.157718 -0.171259 -2.193321 0
M  V30 END ATOM
M  V30 BEGIN BOND
M  V30 1 1 1 2
M  V30 2 1 2 3
M  V30 3 2 3 4
M  V30 4 1 4 5
M  V30 5 2 5 6
M  V30 6 1 6 7
M  V30 7 1 7 8
M  V30 8 2 7 9
M  V30 9 1 9 10
M  V30 10 1 10 11
M  V30 11 1 11 12
M  V30 12 1 12 13
M  V30 13 1 13 14
M  V30 14 1 14 15
M  V30 15 1 15 16
M  V30 16 1 16 17
M  V30 17 2 17 18
M  V30 18 1 17 19
M  V30 19 2 19 20
M  V30 20 1 20 21
M  V30 21 2 21 22
M  V30 22 1 22 23
M  V30 23 1 23 24
M  V30 24 2 24 25
M  V30 25 1 25 26
M  V30 26 2 26 27
M  V30 27 1 27 28
M  V30 28 2 28 29
M  V30 29 1 29 30
M  V30 30 2 30 31
M  V30 31 2 30 32
M  V30 32 1 30 33
M  V30 33 1 33 34
M  V30 34 1 33 35
M  V30 35 1 29 36
M  V30 36 2 36 37
M  V30 37 1 25 38
M  V30 38 2 38 39
M  V30 39 1 15 40
M  V30 40 1 9 3
M  V30 41 1 40 11
M  V30 42 1 39 19
M  V30 43 1 38 22
M  V30 44 1 37 26
M  V30 45 1 1 41
M  V30 46 1 1 42
M  V30 47 1 1 43
M  V30 48 1 4 44
M  V30 49 1 5 45
M  V30 50 1 6 46
M  V30 51 1 10 47
M  V30 52 1 10 48
M  V30 53 1 12 49
M  V30 54 1 12 50
M  V30 55 1 13 51
M  V30 56 1 13 52
M  V30 57 1 14 53
M  V30 58 1 14 54
M  V30 59 1 15 55 CFG=3
M  V30 60 1 16 56
M  V30 61 1 20 57
M  V30 62 1 21 58
M  V30 63 1 23 59
M  V30 64 1 27 60
M  V30 65 1 28 61
M  V30 66 1 34 62
M  V30 67 1 34 63
M  V30 68 1 34 64
M  V30 69 1 35 65
M  V30 70 1 35 66
M  V30 71 1 35 67
M  V30 72 1 36 68
M  V30 73 1 37 69
M  V30 74 1 39 70
M  V30 75 1 40 71
M  V30 76 1 40 72
M  V30 END BOND
M  V30 END CTAB
M  END
>  <Dataset>  (408) 
ChEMBL_Kinases

>  <Ligand_Instance>  (408) 
nan

>  <PDB_ID>  (408) 
nan

>  <Standardized_SMILES>  (408) 
COc1cccc(F)c1CN1CCC[C@@H](NC(=O)c2ccc3[nH]nc(-c4ccc(S(=O)(=O)N(C)C)cc4)c3c2)C1

>  <Name>  (408) 
nan

>  <Pocket>  (408) 
nan

>  <ATP_Site>  (408) 
nan

>  <Peripheral>  (408) 
nan

>  <Num_H_Atoms_ProtBoundConf>  (408) 
nan

>  <Num_Resolved_Atoms>  (408) 
nan

>  <Num_Not_Resolved_Atoms>  (408) 
nan

$$$$
CHEMBL3654495
     RDKit          3D

  0  0  0  0  0  0  0  0  0  0999 V3000
M  V30 BEGIN CTAB
M  V30 COUNTS 64 69 0 0 0
M  V30 BEGIN ATOM
M  V30 1 C 2.209096 3.403846 3.648692 0
M  V30 2 O 2.319475 2.216466 2.913233 0
M  V30 3 C 1.154649 1.587717 2.489137 0
M  V30 4 C -0.102904 2.126303 2.788408 0
M  V30 5 C -1.292460 1.537979 2.388536 0
M  V30 6 C -1.179961 0.371178 1.665908 0
M  V30 7 C 0.043678 -0.185913 1.354335 0
M  V30 8 F 0.129860 -1.335759 0.646058 0
M  V30 9 C 1.214737 0.409690 1.757969 0
M  V30 10 C 2.585528 -0.113849 1.469944 0
M  V30 11 N 3.176212 0.650373 0.448819 0
M  V30 12 C 4.484113 0.364544 0.024436 0
M  V30 13 C 4.569900 0.027712 -1.430331 0
M  V30 14 C 3.209678 -0.300150 -1.963138 0
M  V30 15 C 2.320386 0.912105 -1.789532 0 CFG=1
M  V30 16 N 0.958610 0.634244 -2.250577 0
M  V30 17 C 0.345521 1.291061 -3.351919 0
M  V30 18 O 0.938025 2.165701 -4.010749 0
M  V30 19 C -1.017344 0.974562 -3.770909 0
M  V30 20 C -1.572464 1.680364 -4.818686 0
M  V30 21 C -2.861037 1.466249 -5.308184 0
M  V30 22 C -3.638648 0.485283 -4.710414 0
M  V30 23 N -4.888736 0.009820 -4.905337 0
M  V30 24 N -5.148479 -0.961430 -4.031625 0
M  V30 25 C -4.069137 -1.145769 -3.240041 0
M  V30 26 C -3.980367 -2.129823 -2.163480 0
M  V30 27 C -4.476760 -3.377022 -2.553470 0
M  V30 28 C -4.470663 -4.433414 -1.661691 0
M  V30 29 C -3.973705 -4.246900 -0.392028 0
M  V30 30 C -3.823756 -5.053033 0.703903 0
M  V30 31 N -3.269335 -4.330500 1.693385 0
M  V30 32 N -3.080071 -3.097871 1.216115 0
M  V30 33 C -3.493475 -3.007613 -0.041449 0
M  V30 34 C -3.482644 -1.943953 -0.890651 0
M  V30 35 C -3.101640 -0.234690 -3.657957 0
M  V30 36 C -1.833159 0.010573 -3.212190 0
M  V30 37 C 2.381349 1.443509 -0.392722 0
M  V30 38 H 1.681335 3.300992 4.608124 0
M  V30 39 H 3.184645 3.864000 3.870804 0
M  V30 40 H 1.610226 4.105466 3.018187 0
M  V30 41 H -0.151170 3.050815 3.361966 0
M  V30 42 H -2.255319 1.964188 2.626025 0
M  V30 43 H -2.111862 -0.075417 1.360031 0
M  V30 44 H 2.418336 -1.175357 1.149191 0
M  V30 45 H 3.191457 -0.150132 2.417678 0
M  V30 46 H 5.123348 1.274402 0.172961 0
M  V30 47 H 4.940540 -0.435427 0.651897 0
M  V30 48 H 5.273198 -0.816454 -1.553617 0
M  V30 49 H 4.965658 0.875334 -2.040257 0
M  V30 50 H 2.785061 -1.157199 -1.370044 0
M  V30 51 H 3.262551 -0.532303 -3.043442 0
M  V30 52 H 2.706611 1.680182 -2.523926 0
M  V30 53 H 0.435607 -0.093847 -1.717940 0
M  V30 54 H -1.026141 2.468781 -5.342381 0
M  V30 55 H -3.261131 2.045585 -6.136477 0
M  V30 56 H -5.545495 0.361813 -5.637925 0
M  V30 57 H -4.885881 -3.624119 -3.522137 0
M  V30 58 H -4.841855 -5.432494 -1.898151 0
M  V30 59 H -4.089571 -6.098220 0.806431 0
M  V30 60 H -2.659916 -2.362713 1.808964 0
M  V30 61 H -3.122159 -0.946534 -0.682456 0
M  V30 62 H -1.425381 -0.559195 -2.388932 0
M  V30 63 H 2.831231 2.480422 -0.438541 0
M  V30 64 H 1.376968 1.622964 0.047482 0
M  V30 END ATOM
M  V30 BEGIN BOND
M  V30 1 1 1 2
M  V30 2 1 2 3
M  V30 3 2 3 4
M  V30 4 1 4 5
M  V30 5 2 5 6
M  V30 6 1 6 7
M  V30 7 1 7 8
M  V30 8 2 7 9
M  V30 9 1 9 10
M  V30 10 1 10 11
M  V30 11 1 11 12
M  V30 12 1 12 13
M  V30 13 1 13 14
M  V30 14 1 14 15
M  V30 15 1 15 16
M  V30 16 1 16 17
M  V30 17 2 17 18
M  V30 18 1 17 19
M  V30 19 2 19 20
M  V30 20 1 20 21
M  V30 21 2 21 22
M  V30 22 1 22 23
M  V30 23 1 23 24
M  V30 24 2 24 25
M  V30 25 1 25 26
M  V30 26 2 26 27
M  V30 27 1 27 28
M  V30 28 2 28 29
M  V30 29 1 29 30
M  V30 30 2 30 31
M  V30 31 1 31 32
M  V30 32 1 32 33
M  V30 33 2 33 34
M  V30 34 1 25 35
M  V30 35 2 35 36
M  V30 36 1 15 37
M  V30 37 1 9 3
M  V30 38 1 37 11
M  V30 39 1 36 19
M  V30 40 1 35 22
M  V30 41 1 34 26
M  V30 42 1 33 29
M  V30 43 1 1 38
M  V30 44 1 1 39
M  V30 45 1 1 40
M  V30 46 1 4 41
M  V30 47 1 5 42
M  V30 48 1 6 43
M  V30 49 1 10 44
M  V30 50 1 10 45
M  V30 51 1 12 46
M  V30 52 1 12 47
M  V30 53 1 13 48
M  V30 54 1 13 49
M  V30 55 1 14 50
M  V30 56 1 14 51
M  V30 57 1 15 52 CFG=3
M  V30 58 1 16 53
M  V30 59 1 20 54
M  V30 60 1 21 55
M  V30 61 1 23 56
M  V30 62 1 27 57
M  V30 63 1 28 58
M  V30 64 1 30 59
M  V30 65 1 32 60
M  V30 66 1 34 61
M  V30 67 1 36 62
M  V30 68 1 37 63
M  V30 69 1 37 64
M  V30 END BOND
M  V30 END CTAB
M  END
>  <Dataset>  (409) 
ChEMBL_Kinases

>  <Ligand_Instance>  (409) 
nan

>  <PDB_ID>  (409) 
nan

>  <Standardized_SMILES>  (409) 
COc1cccc(F)c1CN1CCC[C@@H](NC(=O)c2ccc3[nH]nc(-c4ccc5cn[nH]c5c4)c3c2)C1

>  <Name>  (409) 
nan

>  <Pocket>  (409) 
nan

>  <ATP_Site>  (409) 
nan

>  <Peripheral>  (409) 
nan

>  <Num_H_Atoms_ProtBoundConf>  (409) 
nan

>  <Num_Resolved_Atoms>  (409) 
nan

>  <Num_Not_Resolved_Atoms>  (409) 
nan

$$$$
CHEMBL3654494
     RDKit          3D

  0  0  0  0  0  0  0  0  0  0999 V3000
M  V30 BEGIN CTAB
M  V30 COUNTS 64 69 0 0 0
M  V30 BEGIN ATOM
M  V30 1 C 2.063757 2.706100 5.698681 0
M  V30 2 O 2.203314 2.496783 4.311269 0
M  V30 3 C 3.236157 3.024870 3.551352 0
M  V30 4 C 4.213307 3.815141 4.164213 0
M  V30 5 C 5.266059 4.369505 3.462979 0
M  V30 6 C 5.353413 4.130226 2.097688 0
M  V30 7 C 4.400636 3.346842 1.441838 0
M  V30 8 F 4.452594 3.089746 0.114660 0
M  V30 9 C 3.364626 2.811451 2.177872 0
M  V30 10 C 2.282649 1.958191 1.608592 0
M  V30 11 N 1.034235 2.609063 1.450638 0
M  V30 12 C 0.999015 3.740484 0.603386 0
M  V30 13 C 0.410112 3.306969 -0.744442 0
M  V30 14 C -1.026094 2.892621 -0.402628 0
M  V30 15 C -1.008098 1.654622 0.414335 0 CFG=1
M  V30 16 N -0.607592 0.472294 -0.268823 0
M  V30 17 C -1.296714 -0.738270 -0.464337 0
M  V30 18 O -2.467008 -0.802661 0.045561 0
M  V30 19 C -0.746753 -1.873283 -1.196335 0
M  V30 20 C 0.509499 -1.846550 -1.768658 0
M  V30 21 C 1.031177 -2.928022 -2.463754 0
M  V30 22 C 0.249515 -4.059672 -2.574423 0
M  V30 23 N 0.519775 -5.219190 -3.184798 0
M  V30 24 N -0.545668 -5.988916 -3.011754 0
M  V30 25 C -1.507823 -5.369352 -2.305796 0
M  V30 26 C -2.811327 -5.899987 -1.921699 0
M  V30 27 C -3.606993 -6.590697 -2.826187 0
M  V30 28 C -4.846539 -7.088378 -2.441564 0
M  V30 29 C -5.336092 -6.919259 -1.155419 0
M  V30 30 O -6.453755 -7.297247 -0.589357 0
M  V30 31 C -6.463460 -6.892757 0.680104 0
M  V30 32 C -5.270577 -6.220759 0.908931 0
M  V30 33 C -4.532170 -6.231224 -0.271872 0
M  V30 34 C -3.302750 -5.736783 -0.650969 0
M  V30 35 C -1.012459 -4.110584 -2.009552 0
M  V30 36 C -1.499709 -3.016293 -1.325160 0
M  V30 37 C -0.142958 1.852839 1.616771 0
M  V30 38 H 0.982990 2.594074 6.004574 0
M  V30 39 H 2.709715 2.000539 6.255628 0
M  V30 40 H 2.357349 3.743632 5.985976 0
M  V30 41 H 4.214774 4.043035 5.205113 0
M  V30 42 H 6.025067 4.982509 3.934805 0
M  V30 43 H 6.145496 4.528482 1.483427 0
M  V30 44 H 2.640184 1.681837 0.572501 0
M  V30 45 H 2.264450 1.023949 2.162426 0
M  V30 46 H 0.329517 4.532344 1.005116 0
M  V30 47 H 2.007649 4.153887 0.485646 0
M  V30 48 H 0.370653 4.142027 -1.457426 0
M  V30 49 H 1.017597 2.476165 -1.098645 0
M  V30 50 H -1.396530 3.716128 0.265492 0
M  V30 51 H -1.690823 2.893527 -1.261187 0
M  V30 52 H -2.051314 1.488003 0.815315 0
M  V30 53 H 0.354141 0.595492 -0.657832 0
M  V30 54 H 1.127638 -0.981765 -1.693736 0
M  V30 55 H 2.007729 -2.884637 -2.899452 0
M  V30 56 H 1.367005 -5.549671 -3.716564 0
M  V30 57 H -3.279597 -6.756622 -3.850025 0
M  V30 58 H -5.456346 -7.630653 -3.174467 0
M  V30 59 H -7.177041 -6.987218 1.497017 0
M  V30 60 H -4.927001 -5.750011 1.834018 0
M  V30 61 H -2.768646 -5.223765 0.109090 0
M  V30 62 H -2.467422 -3.063722 -0.895570 0
M  V30 63 H -0.743224 2.346731 2.434303 0
M  V30 64 H 0.141158 0.852459 2.016829 0
M  V30 END ATOM
M  V30 BEGIN BOND
M  V30 1 1 1 2
M  V30 2 1 2 3
M  V30 3 2 3 4
M  V30 4 1 4 5
M  V30 5 2 5 6
M  V30 6 1 6 7
M  V30 7 1 7 8
M  V30 8 2 7 9
M  V30 9 1 9 10
M  V30 10 1 10 11
M  V30 11 1 11 12
M  V30 12 1 12 13
M  V30 13 1 13 14
M  V30 14 1 14 15
M  V30 15 1 15 16
M  V30 16 1 16 17
M  V30 17 2 17 18
M  V30 18 1 17 19
M  V30 19 2 19 20
M  V30 20 1 20 21
M  V30 21 2 21 22
M  V30 22 1 22 23
M  V30 23 1 23 24
M  V30 24 2 24 25
M  V30 25 1 25 26
M  V30 26 2 26 27
M  V30 27 1 27 28
M  V30 28 2 28 29
M  V30 29 1 29 30
M  V30 30 1 30 31
M  V30 31 2 31 32
M  V30 32 1 32 33
M  V30 33 2 33 34
M  V30 34 1 25 35
M  V30 35 2 35 36
M  V30 36 1 15 37
M  V30 37 1 9 3
M  V30 38 1 37 11
M  V30 39 1 36 19
M  V30 40 1 35 22
M  V30 41 1 34 26
M  V30 42 1 33 29
M  V30 43 1 1 38
M  V30 44 1 1 39
M  V30 45 1 1 40
M  V30 46 1 4 41
M  V30 47 1 5 42
M  V30 48 1 6 43
M  V30 49 1 10 44
M  V30 50 1 10 45
M  V30 51 1 12 46
M  V30 52 1 12 47
M  V30 53 1 13 48
M  V30 54 1 13 49
M  V30 55 1 14 50
M  V30 56 1 14 51
M  V30 57 1 15 52 CFG=1
M  V30 58 1 16 53
M  V30 59 1 20 54
M  V30 60 1 21 55
M  V30 61 1 23 56
M  V30 62 1 27 57
M  V30 63 1 28 58
M  V30 64 1 31 59
M  V30 65 1 32 60
M  V30 66 1 34 61
M  V30 67 1 36 62
M  V30 68 1 37 63
M  V30 69 1 37 64
M  V30 END BOND
M  V30 END CTAB
M  END
>  <Dataset>  (410) 
ChEMBL_Kinases

>  <Ligand_Instance>  (410) 
nan

>  <PDB_ID>  (410) 
nan

>  <Standardized_SMILES>  (410) 
COc1cccc(F)c1CN1CCC[C@@H](NC(=O)c2ccc3[nH]nc(-c4ccc5occc5c4)c3c2)C1

>  <Name>  (410) 
nan

>  <Pocket>  (410) 
nan

>  <ATP_Site>  (410) 
nan

>  <Peripheral>  (410) 
nan

>  <Num_H_Atoms_ProtBoundConf>  (410) 
nan

>  <Num_Resolved_Atoms>  (410) 
nan

>  <Num_Not_Resolved_Atoms>  (410) 
nan

$$$$
CHEMBL3654509
     RDKit          3D

  0  0  0  0  0  0  0  0  0  0999 V3000
M  V30 BEGIN CTAB
M  V30 COUNTS 66 71 0 0 0
M  V30 BEGIN ATOM
M  V30 1 C 0.015025 1.128075 6.434414 0
M  V30 2 C 1.379799 1.584581 6.009395 0
M  V30 3 C 2.076567 0.896502 5.010309 0
M  V30 4 C 3.332065 1.338270 4.637613 0
M  V30 5 C 4.084304 0.639906 3.597185 0
M  V30 6 N 5.407649 0.314889 3.672218 0
M  V30 7 N 5.790843 -0.312431 2.569473 0
M  V30 8 C 4.749723 -0.428955 1.725533 0
M  V30 9 C 4.573448 -0.977440 0.468000 0
M  V30 10 C 3.311697 -0.919269 -0.133787 0
M  V30 11 C 2.217898 -0.319884 0.501831 0
M  V30 12 C 0.961498 -0.317710 -0.213000 0
M  V30 13 O 0.917958 -0.843671 -1.330416 0
M  V30 14 N -0.198223 0.291173 0.387811 0
M  V30 15 C -1.446013 0.293145 -0.321185 0 CFG=2
M  V30 16 C -1.812847 1.740603 -0.601908 0
M  V30 17 C -3.096503 1.768459 -1.357028 0
M  V30 18 C -3.705639 0.403307 -1.596077 0
M  V30 19 N -3.713137 -0.419780 -0.434487 0
M  V30 20 C -4.109071 -1.748813 -0.768070 0
M  V30 21 C -3.268333 -2.436668 -1.755960 0
M  V30 22 C -3.471412 -2.392977 -3.140106 0
M  V30 23 C -2.532958 -3.132550 -3.822815 0
M  V30 24 C -2.342936 -3.374172 -5.167049 0
M  V30 25 C -1.278156 -4.181390 -5.517678 0
M  V30 26 C -0.463526 -4.704168 -4.540723 0
M  V30 27 C -0.657324 -4.458730 -3.183407 0
M  V30 28 C -1.723538 -3.650578 -2.833740 0
M  V30 29 N -2.183254 -3.223828 -1.649173 0
M  V30 30 C -1.576419 -3.574756 -0.380527 0
M  V30 31 C -2.607424 -0.281041 0.446365 0
M  V30 32 C 2.459280 0.205113 1.746957 0
M  V30 33 C 3.678501 0.170864 2.374901 0
M  V30 34 C 3.853032 2.461447 5.280812 0
M  V30 35 C 3.111615 3.110034 6.273014 0
M  V30 36 N 1.885757 2.679031 6.637218 0
M  V30 37 H -0.294645 0.260358 5.812944 0
M  V30 38 H -0.691762 1.970822 6.428017 0
M  V30 39 H 0.082934 0.756073 7.481476 0
M  V30 40 H 1.604565 0.031304 4.556952 0
M  V30 41 H 6.755319 -0.672600 2.363849 0
M  V30 42 H 5.410372 -1.446802 -0.041011 0
M  V30 43 H 3.245501 -1.369658 -1.121524 0
M  V30 44 H -0.188559 0.742362 1.329540 0
M  V30 45 H -1.404178 -0.199560 -1.301907 0
M  V30 46 H -0.989733 2.287873 -1.100347 0
M  V30 47 H -1.983312 2.237064 0.376032 0
M  V30 48 H -2.908373 2.216602 -2.359389 0
M  V30 49 H -3.849979 2.456813 -0.879462 0
M  V30 50 H -4.762706 0.588566 -1.902489 0
M  V30 51 H -3.208408 -0.037196 -2.488781 0
M  V30 52 H -5.148420 -1.659632 -1.203343 0
M  V30 53 H -4.266687 -2.345589 0.156982 0
M  V30 54 H -4.269751 -1.847690 -3.662092 0
M  V30 55 H -3.000130 -2.950103 -5.923177 0
M  V30 56 H -1.083240 -4.404125 -6.566206 0
M  V30 57 H 0.385862 -5.342821 -4.753128 0
M  V30 58 H -0.018864 -4.868088 -2.414061 0
M  V30 59 H -1.201193 -4.637312 -0.404580 0
M  V30 60 H -2.306592 -3.514597 0.451246 0
M  V30 61 H -0.665163 -2.956335 -0.173398 0
M  V30 62 H -2.403557 -1.184655 1.012024 0
M  V30 63 H -2.896756 0.510604 1.198578 0
M  V30 64 H 1.633229 0.665421 2.242902 0
M  V30 65 H 4.836180 2.819629 4.999559 0
M  V30 66 H 3.524878 3.992383 6.776117 0
M  V30 END ATOM
M  V30 BEGIN BOND
M  V30 1 1 1 2
M  V30 2 2 2 3
M  V30 3 1 3 4
M  V30 4 1 4 5
M  V30 5 2 5 6
M  V30 6 1 6 7
M  V30 7 1 7 8
M  V30 8 2 8 9
M  V30 9 1 9 10
M  V30 10 2 10 11
M  V30 11 1 11 12
M  V30 12 2 12 13
M  V30 13 1 12 14
M  V30 14 1 14 15
M  V30 15 1 15 16
M  V30 16 1 16 17
M  V30 17 1 17 18
M  V30 18 1 18 19
M  V30 19 1 19 20
M  V30 20 1 20 21
M  V30 21 2 21 22
M  V30 22 1 22 23
M  V30 23 2 23 24
M  V30 24 1 24 25
M  V30 25 2 25 26
M  V30 26 1 26 27
M  V30 27 2 27 28
M  V30 28 1 28 29
M  V30 29 1 29 30
M  V30 30 1 19 31
M  V30 31 1 11 32
M  V30 32 2 32 33
M  V30 33 2 4 34
M  V30 34 1 34 35
M  V30 35 2 35 36
M  V30 36 1 36 2
M  V30 37 1 33 5
M  V30 38 1 33 8
M  V30 39 1 31 15
M  V30 40 1 29 21
M  V30 41 1 28 23
M  V30 42 1 1 37
M  V30 43 1 1 38
M  V30 44 1 1 39
M  V30 45 1 3 40
M  V30 46 1 7 41
M  V30 47 1 9 42
M  V30 48 1 10 43
M  V30 49 1 14 44
M  V30 50 1 15 45 CFG=3
M  V30 51 1 16 46
M  V30 52 1 16 47
M  V30 53 1 17 48
M  V30 54 1 17 49
M  V30 55 1 18 50
M  V30 56 1 18 51
M  V30 57 1 20 52
M  V30 58 1 20 53
M  V30 59 1 22 54
M  V30 60 1 24 55
M  V30 61 1 25 56
M  V30 62 1 26 57
M  V30 63 1 27 58
M  V30 64 1 30 59
M  V30 65 1 30 60
M  V30 66 1 30 61
M  V30 67 1 31 62
M  V30 68 1 31 63
M  V30 69 1 32 64
M  V30 70 1 34 65
M  V30 71 1 35 66
M  V30 END BOND
M  V30 END CTAB
M  END
>  <Dataset>  (411) 
ChEMBL_Kinases

>  <Ligand_Instance>  (411) 
nan

>  <PDB_ID>  (411) 
nan

>  <Standardized_SMILES>  (411) 
Cc1cc(-c2n[nH]c3ccc(C(=O)N[C@@H]4CCCN(Cc5cc6ccccc6n5C)C4)cc23)ccn1

>  <Name>  (411) 
nan

>  <Pocket>  (411) 
nan

>  <ATP_Site>  (411) 
nan

>  <Peripheral>  (411) 
nan

>  <Num_H_Atoms_ProtBoundConf>  (411) 
nan

>  <Num_Resolved_Atoms>  (411) 
nan

>  <Num_Not_Resolved_Atoms>  (411) 
nan

$$$$
CHEMBL3654557
     RDKit          3D

  0  0  0  0  0  0  0  0  0  0999 V3000
M  V30 BEGIN CTAB
M  V30 COUNTS 63 67 0 0 0
M  V30 BEGIN ATOM
M  V30 1 C 4.896721 -2.485733 6.317507 0
M  V30 2 C 5.565483 -2.178615 5.015261 0
M  V30 3 C 4.872444 -2.465188 3.856324 0
M  V30 4 C 5.509904 -2.173031 2.663032 0
M  V30 5 C 4.893213 -2.426451 1.357779 0
M  V30 6 N 5.564653 -2.998242 0.339630 0
M  V30 7 N 4.750346 -3.102777 -0.719359 0
M  V30 8 C 3.570505 -2.591710 -0.348870 0
M  V30 9 C 2.386914 -2.451876 -1.045628 0
M  V30 10 C 1.296712 -1.882575 -0.420450 0
M  V30 11 C 1.337696 -1.441284 0.886531 0
M  V30 12 C 0.207238 -0.836223 1.583765 0
M  V30 13 O 0.278035 -0.431784 2.788006 0
M  V30 14 N -1.026197 -0.672581 0.944514 0
M  V30 15 C -2.282602 -0.109120 1.413966 0 CFG=2
M  V30 16 C -3.356212 -1.167588 1.286500 0
M  V30 17 C -4.725218 -0.587786 1.607296 0
M  V30 18 C -4.811354 0.846134 1.116658 0
M  V30 19 N -3.879173 0.948517 -0.025994 0
M  V30 20 C -4.329209 2.003893 -0.869326 0
M  V30 21 C -3.569768 2.248720 -2.126368 0
M  V30 22 O -2.241202 2.574454 -1.974616 0
M  V30 23 C -3.767779 1.152072 -3.128667 0
M  V30 24 C -4.857544 1.204096 -4.005984 0
M  V30 25 C -5.150086 0.260418 -4.966348 0
M  V30 26 C -4.306051 -0.820404 -5.074249 0
M  V30 27 C -3.214731 -0.930156 -4.239364 0
M  V30 28 C -2.967094 0.040990 -3.296168 0
M  V30 29 F -1.895322 -0.065453 -2.479764 0
M  V30 30 C -2.581998 1.097601 0.555867 0
M  V30 31 C 2.521387 -1.573005 1.606120 0
M  V30 32 C 3.601639 -2.148192 0.955141 0
M  V30 33 C 6.786699 -1.617353 2.623133 0
M  V30 34 C 7.412393 -1.360686 3.832679 0
M  V30 35 N 6.806763 -1.638668 4.990586 0
M  V30 36 H 3.777374 -2.387007 6.219025 0
M  V30 37 H 5.126504 -3.497684 6.685501 0
M  V30 38 H 5.239223 -1.755017 7.078489 0
M  V30 39 H 3.884894 -2.894551 3.823234 0
M  V30 40 H 4.972822 -3.500067 -1.654618 0
M  V30 41 H 2.281316 -2.778847 -2.084939 0
M  V30 42 H 0.393189 -1.783236 -0.972234 0
M  V30 43 H -1.212052 -0.959843 -0.032737 0
M  V30 44 H -2.157735 0.231139 2.459582 0
M  V30 45 H -3.310982 -1.607087 0.279983 0
M  V30 46 H -3.143385 -1.952189 2.027942 0
M  V30 47 H -4.894674 -0.687178 2.687369 0
M  V30 48 H -5.466944 -1.174320 1.030222 0
M  V30 49 H -5.816571 1.155300 0.811675 0
M  V30 50 H -4.431472 1.551221 1.877158 0
M  V30 51 H -4.496134 2.942736 -0.286414 0
M  V30 52 H -5.377228 1.719038 -1.194877 0
M  V30 53 H -4.032819 3.165455 -2.619479 0
M  V30 54 H -1.655234 2.217068 -2.694493 0
M  V30 55 H -5.524970 2.067313 -3.914842 0
M  V30 56 H -6.020891 0.408847 -5.586426 0
M  V30 57 H -4.501677 -1.588767 -5.820040 0
M  V30 58 H -2.518674 -1.770233 -4.289932 0
M  V30 59 H -2.605449 2.005815 1.228700 0
M  V30 60 H -1.759279 1.291269 -0.170650 0
M  V30 61 H 2.615363 -1.250540 2.620354 0
M  V30 62 H 7.273464 -1.394674 1.677274 0
M  V30 63 H 8.409351 -0.926946 3.816326 0
M  V30 END ATOM
M  V30 BEGIN BOND
M  V30 1 1 1 2
M  V30 2 2 2 3
M  V30 3 1 3 4
M  V30 4 1 4 5
M  V30 5 2 5 6
M  V30 6 1 6 7
M  V30 7 1 7 8
M  V30 8 2 8 9
M  V30 9 1 9 10
M  V30 10 2 10 11
M  V30 11 1 11 12
M  V30 12 2 12 13
M  V30 13 1 12 14
M  V30 14 1 14 15
M  V30 15 1 15 16
M  V30 16 1 16 17
M  V30 17 1 17 18
M  V30 18 1 18 19
M  V30 19 1 19 20
M  V30 20 1 20 21
M  V30 21 1 21 22
M  V30 22 1 21 23
M  V30 23 2 23 24
M  V30 24 1 24 25
M  V30 25 2 25 26
M  V30 26 1 26 27
M  V30 27 2 27 28
M  V30 28 1 28 29
M  V30 29 1 19 30
M  V30 30 1 11 31
M  V30 31 2 31 32
M  V30 32 2 4 33
M  V30 33 1 33 34
M  V30 34 2 34 35
M  V30 35 1 35 2
M  V30 36 1 32 5
M  V30 37 1 32 8
M  V30 38 1 30 15
M  V30 39 1 28 23
M  V30 40 1 1 36
M  V30 41 1 1 37
M  V30 42 1 1 38
M  V30 43 1 3 39
M  V30 44 1 7 40
M  V30 45 1 9 41
M  V30 46 1 10 42
M  V30 47 1 14 43
M  V30 48 1 15 44 CFG=1
M  V30 49 1 16 45
M  V30 50 1 16 46
M  V30 51 1 17 47
M  V30 52 1 17 48
M  V30 53 1 18 49
M  V30 54 1 18 50
M  V30 55 1 20 51
M  V30 56 1 20 52
M  V30 57 1 21 53
M  V30 58 1 22 54
M  V30 59 1 24 55
M  V30 60 1 25 56
M  V30 61 1 26 57
M  V30 62 1 27 58
M  V30 63 1 30 59
M  V30 64 1 30 60
M  V30 65 1 31 61
M  V30 66 1 33 62
M  V30 67 1 34 63
M  V30 END BOND
M  V30 END CTAB
M  END
>  <Dataset>  (412) 
ChEMBL_Kinases

>  <Ligand_Instance>  (412) 
nan

>  <PDB_ID>  (412) 
nan

>  <Standardized_SMILES>  (412) 
Cc1cc(-c2n[nH]c3ccc(C(=O)N[C@@H]4CCCN(CC(O)c5ccccc5F)C4)cc23)ccn1

>  <Name>  (412) 
nan

>  <Pocket>  (412) 
nan

>  <ATP_Site>  (412) 
nan

>  <Peripheral>  (412) 
nan

>  <Num_H_Atoms_ProtBoundConf>  (412) 
nan

>  <Num_Resolved_Atoms>  (412) 
nan

>  <Num_Not_Resolved_Atoms>  (412) 
nan

$$$$
CHEMBL3654556
     RDKit          3D

  0  0  0  0  0  0  0  0  0  0999 V3000
M  V30 BEGIN CTAB
M  V30 COUNTS 65 69 0 0 0
M  V30 BEGIN ATOM
M  V30 1 O 0.148163 -0.434315 1.907044 0
M  V30 2 C 0.127429 -1.675838 1.613675 0
M  V30 3 N 1.204106 -2.222596 0.870627 0
M  V30 4 C 2.268252 -1.315531 0.491310 0
M  V30 5 C 3.568352 -1.885299 1.010527 0
M  V30 6 C 4.715794 -0.906231 0.762291 0
M  V30 7 C 4.913115 -0.839626 -0.737076 0
M  V30 8 C 4.125067 0.298449 -1.338089 0
M  V30 9 N 2.748021 0.016292 -1.521706 0
M  V30 10 C 2.363401 0.086346 -2.917319 0
M  V30 11 C 2.419761 1.490937 -3.457480 0
M  V30 12 C 1.502229 2.429484 -2.717092 0
M  V30 13 C 0.091183 2.005897 -2.796904 0
M  V30 14 C -0.789209 2.400767 -3.798888 0
M  V30 15 C -2.100947 1.996607 -3.854762 0
M  V30 16 C -2.614775 1.163255 -2.899163 0
M  V30 17 C -1.790206 0.735478 -1.876880 0
M  V30 18 C -0.460432 1.163805 -1.847134 0
M  V30 19 C 2.286364 -1.244850 -1.018634 0
M  V30 20 C -0.997312 -2.505624 2.045195 0
M  V30 21 C -1.122179 -3.872685 1.787875 0
M  V30 22 C -2.228249 -4.564259 2.241629 0
M  V30 23 C -3.246467 -3.951565 2.958397 0
M  V30 24 N -4.416494 -4.327629 3.524224 0
M  V30 25 N -5.000146 -3.268745 4.104713 0
M  V30 26 C -4.235355 -2.169415 3.939004 0
M  V30 27 C -4.558660 -0.835619 4.440667 0
M  V30 28 C -5.023074 -0.591539 5.725157 0
M  V30 29 C -5.311780 0.712446 6.128536 0
M  V30 30 N -5.144397 1.735812 5.284225 0
M  V30 31 C -4.696733 1.546408 4.030699 0
M  V30 32 C -4.404960 0.258081 3.613225 0
M  V30 33 C -3.136761 -2.601567 3.220036 0
M  V30 34 C -2.025543 -1.926360 2.759508 0
M  V30 35 H 1.251520 -3.226782 0.598085 0
M  V30 36 H 2.089939 -0.286053 0.861380 0
M  V30 37 H 3.501822 -2.153209 2.068191 0
M  V30 38 H 3.812559 -2.777440 0.365738 0
M  V30 39 H 5.605463 -1.358414 1.260998 0
M  V30 40 H 4.461055 0.068335 1.186413 0
M  V30 41 H 4.784148 -1.803956 -1.231706 0
M  V30 42 H 5.995499 -0.563386 -0.907078 0
M  V30 43 H 4.589996 0.531817 -2.332659 0
M  V30 44 H 4.339152 1.187744 -0.691945 0
M  V30 45 H 3.085750 -0.535328 -3.480431 0
M  V30 46 H 1.375462 -0.381999 -3.088219 0
M  V30 47 H 3.462061 1.859963 -3.486532 0
M  V30 48 H 2.084100 1.454556 -4.514500 0
M  V30 49 H 1.759099 2.486841 -1.636070 0
M  V30 50 H 1.593354 3.415086 -3.225195 0
M  V30 51 H -0.352024 3.068954 -4.552654 0
M  V30 52 H -2.760084 2.329096 -4.658062 0
M  V30 53 H -3.632813 0.810153 -2.884683 0
M  V30 54 H -2.187881 0.076014 -1.116499 0
M  V30 55 H 0.108572 0.780247 -1.013774 0
M  V30 56 H 1.226063 -1.323346 -1.350659 0
M  V30 57 H 2.785024 -2.132320 -1.459507 0
M  V30 58 H -0.333891 -4.340716 1.233941 0
M  V30 59 H -2.322256 -5.620081 2.041761 0
M  V30 60 H -4.782701 -5.305394 3.495718 0
M  V30 61 H -5.142615 -1.431416 6.365369 0
M  V30 62 H -5.675649 0.910244 7.132740 0
M  V30 63 H -4.578418 2.416426 3.382116 0
M  V30 64 H -4.054857 0.203872 2.596603 0
M  V30 65 H -1.946069 -0.868084 2.968472 0
M  V30 END ATOM
M  V30 BEGIN BOND
M  V30 1 2 1 2
M  V30 2 1 2 3
M  V30 3 1 3 4
M  V30 4 1 4 5
M  V30 5 1 5 6
M  V30 6 1 6 7
M  V30 7 1 7 8
M  V30 8 1 8 9
M  V30 9 1 9 10
M  V30 10 1 10 11
M  V30 11 1 11 12
M  V30 12 1 12 13
M  V30 13 2 13 14
M  V30 14 1 14 15
M  V30 15 2 15 16
M  V30 16 1 16 17
M  V30 17 2 17 18
M  V30 18 1 9 19
M  V30 19 1 2 20
M  V30 20 2 20 21
M  V30 21 1 21 22
M  V30 22 2 22 23
M  V30 23 1 23 24
M  V30 24 1 24 25
M  V30 25 2 25 26
M  V30 26 1 26 27
M  V30 27 2 27 28
M  V30 28 1 28 29
M  V30 29 2 29 30
M  V30 30 1 30 31
M  V30 31 2 31 32
M  V30 32 1 26 33
M  V30 33 2 33 34
M  V30 34 1 19 4
M  V30 35 1 34 20
M  V30 36 1 18 13
M  V30 37 1 33 23
M  V30 38 1 32 27
M  V30 39 1 3 35
M  V30 40 1 4 36
M  V30 41 1 5 37
M  V30 42 1 5 38
M  V30 43 1 6 39
M  V30 44 1 6 40
M  V30 45 1 7 41
M  V30 46 1 7 42
M  V30 47 1 8 43
M  V30 48 1 8 44
M  V30 49 1 10 45
M  V30 50 1 10 46
M  V30 51 1 11 47
M  V30 52 1 11 48
M  V30 53 1 12 49
M  V30 54 1 12 50
M  V30 55 1 14 51
M  V30 56 1 15 52
M  V30 57 1 16 53
M  V30 58 1 17 54
M  V30 59 1 18 55
M  V30 60 1 19 56
M  V30 61 1 19 57
M  V30 62 1 21 58
M  V30 63 1 22 59
M  V30 64 1 24 60
M  V30 65 1 28 61
M  V30 66 1 29 62
M  V30 67 1 31 63
M  V30 68 1 32 64
M  V30 69 1 34 65
M  V30 END BOND
M  V30 END CTAB
M  END
>  <Dataset>  (413) 
ChEMBL_Kinases

>  <Ligand_Instance>  (413) 
nan

>  <PDB_ID>  (413) 
nan

>  <Standardized_SMILES>  (413) 
O=C(NC1CCCCN(CCCc2ccccc2)C1)c1ccc2[nH]nc(-c3ccncc3)c2c1

>  <Name>  (413) 
nan

>  <Pocket>  (413) 
nan

>  <ATP_Site>  (413) 
nan

>  <Peripheral>  (413) 
nan

>  <Num_H_Atoms_ProtBoundConf>  (413) 
nan

>  <Num_Resolved_Atoms>  (413) 
nan

>  <Num_Not_Resolved_Atoms>  (413) 
nan

$$$$
CHEMBL3654555
     RDKit          3D

  0  0  0  0  0  0  0  0  0  0999 V3000
M  V30 BEGIN CTAB
M  V30 COUNTS 43 46 0 0 0
M  V30 BEGIN ATOM
M  V30 1 O 4.029311 -1.203107 0.371135 0
M  V30 2 C 2.808299 -0.958428 0.513346 0
M  V30 3 N 1.799896 -1.633418 -0.208352 0
M  V30 4 C 1.967294 -2.680697 -1.197777 0
M  V30 5 C 1.346932 -3.975767 -0.736530 0
M  V30 6 C -0.159560 -3.849684 -0.793184 0
M  V30 7 C -0.532949 -3.586712 -2.229391 0
M  V30 8 N 0.063754 -2.413891 -2.726995 0
M  V30 9 C 1.455090 -2.241175 -2.542841 0
M  V30 10 C 2.475850 0.081708 1.483488 0
M  V30 11 C 3.499738 0.714294 2.165667 0
M  V30 12 C 3.292416 1.721972 3.114108 0
M  V30 13 C 1.999087 2.113130 3.391072 0
M  V30 14 N 1.391485 3.002969 4.196683 0
M  V30 15 N 0.079327 2.945933 4.043452 0
M  V30 16 C -0.252346 2.016007 3.128860 0
M  V30 17 C -1.628643 1.721086 2.743248 0
M  V30 18 C -2.561629 2.699447 2.477951 0
M  V30 19 C -3.838661 2.350321 2.120434 0
M  V30 20 N -4.259829 1.075585 2.006377 0
M  V30 21 C -3.367073 0.080693 2.260430 0
M  V30 22 C -2.056950 0.400904 2.627338 0
M  V30 23 C 0.961843 1.494192 2.720945 0
M  V30 24 C 1.195791 0.498550 1.786020 0
M  V30 25 H 0.784374 -1.426481 -0.086765 0
M  V30 26 H 3.055382 -2.872659 -1.299693 0
M  V30 27 H 1.663095 -4.146054 0.301958 0
M  V30 28 H 1.644559 -4.780780 -1.426515 0
M  V30 29 H -0.516785 -3.066707 -0.116165 0
M  V30 30 H -0.576636 -4.850919 -0.531483 0
M  V30 31 H -1.644579 -3.438391 -2.260841 0
M  V30 32 H -0.348489 -4.504073 -2.822829 0
M  V30 33 H -0.511958 -1.567240 -2.783405 0
M  V30 34 H 1.685743 -1.153754 -2.623309 0
M  V30 35 H 2.014018 -2.729926 -3.377723 0
M  V30 36 H 4.545094 0.465845 2.006573 0
M  V30 37 H 4.100753 2.201778 3.633919 0
M  V30 38 H 1.962791 3.625546 4.835246 0
M  V30 39 H -2.277076 3.740580 2.554421 0
M  V30 40 H -4.608280 3.094255 1.901797 0
M  V30 41 H -3.681026 -0.946143 2.175674 0
M  V30 42 H -1.408977 -0.431922 2.812108 0
M  V30 43 H 0.384492 0.033753 1.280340 0
M  V30 END ATOM
M  V30 BEGIN BOND
M  V30 1 2 1 2
M  V30 2 1 2 3
M  V30 3 1 3 4
M  V30 4 1 4 5
M  V30 5 1 5 6
M  V30 6 1 6 7
M  V30 7 1 7 8
M  V30 8 1 8 9
M  V30 9 1 2 10
M  V30 10 2 10 11
M  V30 11 1 11 12
M  V30 12 2 12 13
M  V30 13 1 13 14
M  V30 14 1 14 15
M  V30 15 2 15 16
M  V30 16 1 16 17
M  V30 17 2 17 18
M  V30 18 1 18 19
M  V30 19 2 19 20
M  V30 20 1 20 21
M  V30 21 2 21 22
M  V30 22 1 16 23
M  V30 23 2 23 24
M  V30 24 1 9 4
M  V30 25 1 24 10
M  V30 26 1 23 13
M  V30 27 1 22 17
M  V30 28 1 3 25
M  V30 29 1 4 26
M  V30 30 1 5 27
M  V30 31 1 5 28
M  V30 32 1 6 29
M  V30 33 1 6 30
M  V30 34 1 7 31
M  V30 35 1 7 32
M  V30 36 1 8 33
M  V30 37 1 9 34
M  V30 38 1 9 35
M  V30 39 1 11 36
M  V30 40 1 12 37
M  V30 41 1 14 38
M  V30 42 1 18 39
M  V30 43 1 19 40
M  V30 44 1 21 41
M  V30 45 1 22 42
M  V30 46 1 24 43
M  V30 END BOND
M  V30 END CTAB
M  END
>  <Dataset>  (414) 
ChEMBL_Kinases

>  <Ligand_Instance>  (414) 
nan

>  <PDB_ID>  (414) 
nan

>  <Standardized_SMILES>  (414) 
O=C(NC1CCCNC1)c1ccc2[nH]nc(-c3ccncc3)c2c1

>  <Name>  (414) 
nan

>  <Pocket>  (414) 
nan

>  <ATP_Site>  (414) 
nan

>  <Peripheral>  (414) 
nan

>  <Num_H_Atoms_ProtBoundConf>  (414) 
nan

>  <Num_Resolved_Atoms>  (414) 
nan

>  <Num_Not_Resolved_Atoms>  (414) 
nan

$$$$
CHEMBL3654554
     RDKit          3D

  0  0  0  0  0  0  0  0  0  0999 V3000
M  V30 BEGIN CTAB
M  V30 COUNTS 56 60 0 0 0
M  V30 BEGIN ATOM
M  V30 1 O 0.716093 -3.885154 3.621676 0
M  V30 2 C 0.389389 -3.202258 2.617549 0
M  V30 3 N -0.068200 -1.862622 2.727097 0
M  V30 4 C -0.268235 -1.008238 3.846755 0
M  V30 5 C 0.439862 0.313509 3.757883 0
M  V30 6 N 0.134309 0.881775 2.463947 0
M  V30 7 C 0.958236 2.072460 2.359961 0
M  V30 8 C 0.806429 2.806748 1.103627 0
M  V30 9 C 1.464089 2.173960 0.045340 0
M  V30 10 F 2.172138 1.013188 0.123726 0
M  V30 11 C 1.443864 2.712367 -1.239864 0
M  V30 12 C 0.762785 3.900352 -1.496515 0
M  V30 13 C 0.118564 4.513498 -0.443135 0
M  V30 14 C 0.136117 3.981907 0.835793 0
M  V30 15 F -0.465608 4.518174 1.916321 0
M  V30 16 C -1.254123 1.236953 2.329528 0
M  V30 17 C -2.203526 0.170658 2.776505 0
M  V30 18 F -2.634783 -0.617967 1.722402 0
M  V30 19 F -3.354087 0.830831 3.233531 0
M  V30 20 C -1.741990 -0.679982 3.913288 0
M  V30 21 C 0.504127 -3.858522 1.321441 0
M  V30 22 C 0.969671 -5.155904 1.279836 0
M  V30 23 C 1.107795 -5.856220 0.077395 0
M  V30 24 C 0.776904 -5.260374 -1.124680 0
M  V30 25 N 0.800035 -5.666705 -2.411742 0
M  V30 26 N 0.363593 -4.656445 -3.146593 0
M  V30 27 C 0.053729 -3.598983 -2.390362 0
M  V30 28 C -0.455500 -2.330460 -2.897220 0
M  V30 29 C -1.459809 -2.496053 -3.848339 0
M  V30 30 C -2.046506 -1.390129 -4.425482 0
M  V30 31 N -1.649282 -0.156828 -4.070214 0
M  V30 32 C -0.672411 0.001261 -3.145039 0
M  V30 33 C -0.050142 -1.067582 -2.534787 0
M  V30 34 C 0.312377 -3.965656 -1.083082 0
M  V30 35 C 0.177005 -3.273788 0.115698 0
M  V30 36 H -0.338761 -1.294535 1.896590 0
M  V30 37 H -0.009501 -1.563111 4.769966 0
M  V30 38 H -0.040154 0.977945 4.520148 0
M  V30 39 H 1.510618 0.296724 3.928902 0
M  V30 40 H 0.804849 2.738421 3.256028 0
M  V30 41 H 2.017183 1.702626 2.489208 0
M  V30 42 H 1.936774 2.259317 -2.086363 0
M  V30 43 H 0.723881 4.353135 -2.488485 0
M  V30 44 H -0.439361 5.439611 -0.533901 0
M  V30 45 H -1.464009 2.197087 2.860879 0
M  V30 46 H -1.439743 1.422653 1.251060 0
M  V30 47 H -2.269728 -1.672296 3.802565 0
M  V30 48 H -2.034070 -0.295307 4.896909 0
M  V30 49 H 1.261876 -5.727275 2.170164 0
M  V30 50 H 1.473640 -6.873996 0.052622 0
M  V30 51 H 1.115514 -6.616439 -2.707013 0
M  V30 52 H -1.839210 -3.465890 -4.191288 0
M  V30 53 H -2.837316 -1.516746 -5.174474 0
M  V30 54 H -0.331278 0.989583 -2.838533 0
M  V30 55 H 0.724767 -1.022686 -1.799636 0
M  V30 56 H -0.185378 -2.272464 0.115255 0
M  V30 END ATOM
M  V30 BEGIN BOND
M  V30 1 2 1 2
M  V30 2 1 2 3
M  V30 3 1 3 4
M  V30 4 1 4 5
M  V30 5 1 5 6
M  V30 6 1 6 7
M  V30 7 1 7 8
M  V30 8 2 8 9
M  V30 9 1 9 10
M  V30 10 1 9 11
M  V30 11 2 11 12
M  V30 12 1 12 13
M  V30 13 2 13 14
M  V30 14 1 14 15
M  V30 15 1 6 16
M  V30 16 1 16 17
M  V30 17 1 17 18
M  V30 18 1 17 19
M  V30 19 1 17 20
M  V30 20 1 2 21
M  V30 21 2 21 22
M  V30 22 1 22 23
M  V30 23 2 23 24
M  V30 24 1 24 25
M  V30 25 1 25 26
M  V30 26 2 26 27
M  V30 27 1 27 28
M  V30 28 2 28 29
M  V30 29 1 29 30
M  V30 30 2 30 31
M  V30 31 1 31 32
M  V30 32 2 32 33
M  V30 33 1 27 34
M  V30 34 2 34 35
M  V30 35 1 20 4
M  V30 36 1 35 21
M  V30 37 1 14 8
M  V30 38 1 34 24
M  V30 39 1 33 28
M  V30 40 1 3 36
M  V30 41 1 4 37
M  V30 42 1 5 38
M  V30 43 1 5 39
M  V30 44 1 7 40
M  V30 45 1 7 41
M  V30 46 1 11 42
M  V30 47 1 12 43
M  V30 48 1 13 44
M  V30 49 1 16 45
M  V30 50 1 16 46
M  V30 51 1 20 47
M  V30 52 1 20 48
M  V30 53 1 22 49
M  V30 54 1 23 50
M  V30 55 1 25 51
M  V30 56 1 29 52
M  V30 57 1 30 53
M  V30 58 1 32 54
M  V30 59 1 33 55
M  V30 60 1 35 56
M  V30 END BOND
M  V30 END CTAB
M  END
>  <Dataset>  (415) 
ChEMBL_Kinases

>  <Ligand_Instance>  (415) 
nan

>  <PDB_ID>  (415) 
nan

>  <Standardized_SMILES>  (415) 
O=C(NC1CN(Cc2c(F)cccc2F)CC(F)(F)C1)c1ccc2[nH]nc(-c3ccncc3)c2c1

>  <Name>  (415) 
nan

>  <Pocket>  (415) 
nan

>  <ATP_Site>  (415) 
nan

>  <Peripheral>  (415) 
nan

>  <Num_H_Atoms_ProtBoundConf>  (415) 
nan

>  <Num_Resolved_Atoms>  (415) 
nan

>  <Num_Not_Resolved_Atoms>  (415) 
nan

$$$$
CHEMBL3654553
     RDKit          3D

  0  0  0  0  0  0  0  0  0  0999 V3000
M  V30 BEGIN CTAB
M  V30 COUNTS 60 64 0 0 0
M  V30 BEGIN ATOM
M  V30 1 C 3.399766 -0.080633 3.644047 0
M  V30 2 O 3.293797 0.921241 2.659827 0
M  V30 3 C 4.123432 0.950445 1.565688 0
M  V30 4 C 5.083974 -0.019207 1.429014 0
M  V30 5 C 5.930871 -0.012430 0.349000 0
M  V30 6 C 5.787634 0.989464 -0.585811 0
M  V30 7 C 4.810811 1.925838 -0.392631 0
M  V30 8 F 4.736420 2.882974 -1.365159 0
M  V30 9 C 3.916306 1.972337 0.686979 0
M  V30 10 C 2.917058 3.058423 0.671906 0
M  V30 11 N 1.691268 2.622566 0.122903 0
M  V30 12 C 1.059932 1.609559 0.857538 0
M  V30 13 C -0.386650 1.484507 0.315856 0
M  V30 14 N -0.930333 0.311690 0.967331 0
M  V30 15 C -1.483286 -0.769044 0.253448 0
M  V30 16 O -1.470422 -0.636181 -1.010685 0
M  V30 17 C -2.035101 -1.960185 0.891145 0
M  V30 18 C -2.047932 -2.160114 2.267604 0
M  V30 19 C -2.577092 -3.293893 2.850400 0
M  V30 20 C -3.108697 -4.251870 2.000731 0
M  V30 21 N -3.688794 -5.440884 2.217604 0
M  V30 22 N -4.039073 -5.997831 1.075944 0
M  V30 23 C -3.695022 -5.177584 0.040624 0
M  V30 24 C -3.938699 -5.484905 -1.364715 0
M  V30 25 C -4.455344 -4.487062 -2.153493 0
M  V30 26 C -4.726496 -4.666987 -3.500418 0
M  V30 27 N -4.467106 -5.885538 -4.056441 0
M  V30 28 C -3.960933 -6.880680 -3.307138 0
M  V30 29 C -3.680143 -6.726933 -1.955299 0
M  V30 30 C -3.102689 -4.066719 0.633255 0
M  V30 31 C -2.576492 -2.940109 0.062465 0
M  V30 32 C -1.051628 2.762816 0.810632 0
M  V30 33 C -0.393190 3.964568 0.164822 0
M  V30 34 F -0.134672 4.980657 1.040416 0
M  V30 35 F -1.267474 4.439469 -0.794798 0
M  V30 36 C 0.888938 3.587537 -0.537220 0
M  V30 37 H 3.415902 -1.087004 3.177150 0
M  V30 38 H 2.519414 -0.003429 4.343933 0
M  V30 39 H 4.350921 0.089465 4.208272 0
M  V30 40 H 5.164464 -0.784528 2.178250 0
M  V30 41 H 6.683416 -0.765017 0.234123 0
M  V30 42 H 6.448278 1.004514 -1.438254 0
M  V30 43 H 3.334629 3.897490 0.063579 0
M  V30 44 H 2.789001 3.385293 1.741573 0
M  V30 45 H 1.481778 0.612069 0.711240 0
M  V30 46 H 0.911158 1.899636 1.937689 0
M  V30 47 H -0.419186 1.456162 -0.772589 0
M  V30 48 H -0.898417 0.292309 2.010353 0
M  V30 49 H -1.625262 -1.392795 2.900895 0
M  V30 50 H -2.573760 -3.422818 3.924119 0
M  V30 51 H -3.818999 -5.826638 3.199264 0
M  V30 52 H -4.706928 -3.478377 -1.844852 0
M  V30 53 H -5.133547 -3.919424 -4.174933 0
M  V30 54 H -3.761712 -7.838890 -3.762867 0
M  V30 55 H -3.273500 -7.501283 -1.316720 0
M  V30 56 H -2.571061 -2.794517 -1.001548 0
M  V30 57 H -0.784799 2.829494 1.885027 0
M  V30 58 H -2.141835 2.744711 0.730401 0
M  V30 59 H 1.477069 4.524533 -0.667669 0
M  V30 60 H 0.666710 3.208781 -1.556939 0
M  V30 END ATOM
M  V30 BEGIN BOND
M  V30 1 1 1 2
M  V30 2 1 2 3
M  V30 3 2 3 4
M  V30 4 1 4 5
M  V30 5 2 5 6
M  V30 6 1 6 7
M  V30 7 1 7 8
M  V30 8 2 7 9
M  V30 9 1 9 10
M  V30 10 1 10 11
M  V30 11 1 11 12
M  V30 12 1 12 13
M  V30 13 1 13 14
M  V30 14 1 14 15
M  V30 15 2 15 16
M  V30 16 1 15 17
M  V30 17 2 17 18
M  V30 18 1 18 19
M  V30 19 2 19 20
M  V30 20 1 20 21
M  V30 21 1 21 22
M  V30 22 2 22 23
M  V30 23 1 23 24
M  V30 24 2 24 25
M  V30 25 1 25 26
M  V30 26 2 26 27
M  V30 27 1 27 28
M  V30 28 2 28 29
M  V30 29 1 23 30
M  V30 30 2 30 31
M  V30 31 1 13 32
M  V30 32 1 32 33
M  V30 33 1 33 34
M  V30 34 1 33 35
M  V30 35 1 33 36
M  V30 36 1 9 3
M  V30 37 1 36 11
M  V30 38 1 31 17
M  V30 39 1 30 20
M  V30 40 1 29 24
M  V30 41 1 1 37
M  V30 42 1 1 38
M  V30 43 1 1 39
M  V30 44 1 4 40
M  V30 45 1 5 41
M  V30 46 1 6 42
M  V30 47 1 10 43
M  V30 48 1 10 44
M  V30 49 1 12 45
M  V30 50 1 12 46
M  V30 51 1 13 47
M  V30 52 1 14 48
M  V30 53 1 18 49
M  V30 54 1 19 50
M  V30 55 1 21 51
M  V30 56 1 25 52
M  V30 57 1 26 53
M  V30 58 1 28 54
M  V30 59 1 29 55
M  V30 60 1 31 56
M  V30 61 1 32 57
M  V30 62 1 32 58
M  V30 63 1 36 59
M  V30 64 1 36 60
M  V30 END BOND
M  V30 END CTAB
M  END
>  <Dataset>  (416) 
ChEMBL_Kinases

>  <Ligand_Instance>  (416) 
nan

>  <PDB_ID>  (416) 
nan

>  <Standardized_SMILES>  (416) 
COc1cccc(F)c1CN1CC(NC(=O)c2ccc3[nH]nc(-c4ccncc4)c3c2)CC(F)(F)C1

>  <Name>  (416) 
nan

>  <Pocket>  (416) 
nan

>  <ATP_Site>  (416) 
nan

>  <Peripheral>  (416) 
nan

>  <Num_H_Atoms_ProtBoundConf>  (416) 
nan

>  <Num_Resolved_Atoms>  (416) 
nan

>  <Num_Not_Resolved_Atoms>  (416) 
nan

$$$$
CHEMBL3654552
     RDKit          3D

  0  0  0  0  0  0  0  0  0  0999 V3000
M  V30 BEGIN CTAB
M  V30 COUNTS 59 63 0 0 0
M  V30 BEGIN ATOM
M  V30 1 O 0.378079 -3.822323 3.570350 0
M  V30 2 C 0.016135 -3.371876 2.453397 0
M  V30 3 N -0.647798 -2.114909 2.419308 0
M  V30 4 C -0.914195 -1.355560 3.605155 0
M  V30 5 C -0.272775 0.012677 3.499889 0
M  V30 6 N -0.749392 0.576413 2.238606 0
M  V30 7 C 0.098765 1.255542 1.285720 0
M  V30 8 O -0.296629 1.744089 0.200181 0
M  V30 9 O 1.403093 1.341021 1.642479 0
M  V30 10 C 2.470455 1.935093 0.942704 0
M  V30 11 C 2.202040 3.381517 0.740500 0
M  V30 12 C 1.635572 4.056951 -0.316247 0
M  V30 13 C 1.487036 5.426116 -0.242214 0
M  V30 14 C 1.867711 6.179261 0.822699 0
M  V30 15 C 2.436778 5.505530 1.884818 0
M  V30 16 C 2.596578 4.140165 1.837171 0
M  V30 17 C -2.122526 0.486672 1.863384 0
M  V30 18 C -3.015895 -0.297616 2.740253 0
M  V30 19 F -3.669604 -1.224138 1.914514 0
M  V30 20 F -4.062712 0.465200 3.277313 0
M  V30 21 C -2.387092 -1.083494 3.832589 0
M  V30 22 C 0.304845 -4.174666 1.271085 0
M  V30 23 C 0.958624 -5.368204 1.463810 0
M  V30 24 C 1.279209 -6.208881 0.392143 0
M  V30 25 C 0.906934 -5.784667 -0.884427 0
M  V30 26 N 1.051798 -6.326761 -2.106840 0
M  V30 27 N 0.533715 -5.549154 -3.025702 0
M  V30 28 C 0.012424 -4.436853 -2.447624 0
M  V30 29 C -0.650020 -3.336803 -3.138478 0
M  V30 30 C -1.825991 -2.710461 -2.770362 0
M  V30 31 C -2.314985 -1.679065 -3.544896 0
M  V30 32 N -1.692630 -1.257440 -4.645847 0
M  V30 33 C -0.531054 -1.862146 -5.026252 0
M  V30 34 C 0.008114 -2.903609 -4.287422 0
M  V30 35 C 0.242004 -4.574244 -1.096027 0
M  V30 36 C -0.048356 -3.786237 -0.003999 0
M  V30 37 H -0.952326 -1.730777 1.498145 0
M  V30 38 H -0.541190 -1.877320 4.515558 0
M  V30 39 H 0.831313 -0.078105 3.496556 0
M  V30 40 H -0.641104 0.673386 4.301556 0
M  V30 41 H 2.596116 1.410933 -0.045195 0
M  V30 42 H 3.430861 1.766413 1.468593 0
M  V30 43 H 1.361029 3.407711 -1.134360 0
M  V30 44 H 1.029069 5.900408 -1.116184 0
M  V30 45 H 1.722730 7.258120 0.819260 0
M  V30 46 H 2.740617 6.120770 2.738411 0
M  V30 47 H 3.061312 3.744041 2.750021 0
M  V30 48 H -2.517727 1.545017 1.857181 0
M  V30 49 H -2.169304 0.204308 0.771140 0
M  V30 50 H -2.422452 -0.459720 4.772541 0
M  V30 51 H -2.942111 -2.012915 4.075535 0
M  V30 52 H 1.280048 -5.764017 2.429637 0
M  V30 53 H 1.797074 -7.157300 0.531809 0
M  V30 54 H 1.518721 -7.243590 -2.262431 0
M  V30 55 H -2.288731 -3.092157 -1.869555 0
M  V30 56 H -3.245706 -1.204549 -3.228032 0
M  V30 57 H -0.028653 -1.512661 -5.925780 0
M  V30 58 H 0.923855 -3.341380 -4.634375 0
M  V30 59 H -0.562826 -2.848693 -0.162213 0
M  V30 END ATOM
M  V30 BEGIN BOND
M  V30 1 2 1 2
M  V30 2 1 2 3
M  V30 3 1 3 4
M  V30 4 1 4 5
M  V30 5 1 5 6
M  V30 6 1 6 7
M  V30 7 2 7 8
M  V30 8 1 7 9
M  V30 9 1 9 10
M  V30 10 1 10 11
M  V30 11 2 11 12
M  V30 12 1 12 13
M  V30 13 2 13 14
M  V30 14 1 14 15
M  V30 15 2 15 16
M  V30 16 1 6 17
M  V30 17 1 17 18
M  V30 18 1 18 19
M  V30 19 1 18 20
M  V30 20 1 18 21
M  V30 21 1 2 22
M  V30 22 2 22 23
M  V30 23 1 23 24
M  V30 24 2 24 25
M  V30 25 1 25 26
M  V30 26 1 26 27
M  V30 27 2 27 28
M  V30 28 1 28 29
M  V30 29 2 29 30
M  V30 30 1 30 31
M  V30 31 2 31 32
M  V30 32 1 32 33
M  V30 33 2 33 34
M  V30 34 1 28 35
M  V30 35 2 35 36
M  V30 36 1 21 4
M  V30 37 1 36 22
M  V30 38 1 16 11
M  V30 39 1 35 25
M  V30 40 1 34 29
M  V30 41 1 3 37
M  V30 42 1 4 38
M  V30 43 1 5 39
M  V30 44 1 5 40
M  V30 45 1 10 41
M  V30 46 1 10 42
M  V30 47 1 12 43
M  V30 48 1 13 44
M  V30 49 1 14 45
M  V30 50 1 15 46
M  V30 51 1 16 47
M  V30 52 1 17 48
M  V30 53 1 17 49
M  V30 54 1 21 50
M  V30 55 1 21 51
M  V30 56 1 23 52
M  V30 57 1 24 53
M  V30 58 1 26 54
M  V30 59 1 30 55
M  V30 60 1 31 56
M  V30 61 1 33 57
M  V30 62 1 34 58
M  V30 63 1 36 59
M  V30 END BOND
M  V30 END CTAB
M  END
>  <Dataset>  (417) 
ChEMBL_Kinases

>  <Ligand_Instance>  (417) 
nan

>  <PDB_ID>  (417) 
nan

>  <Standardized_SMILES>  (417) 
O=C(NC1CN(C(=O)OCc2ccccc2)CC(F)(F)C1)c1ccc2[nH]nc(-c3ccncc3)c2c1

>  <Name>  (417) 
nan

>  <Pocket>  (417) 
nan

>  <ATP_Site>  (417) 
nan

>  <Peripheral>  (417) 
nan

>  <Num_H_Atoms_ProtBoundConf>  (417) 
nan

>  <Num_Resolved_Atoms>  (417) 
nan

>  <Num_Not_Resolved_Atoms>  (417) 
nan

$$$$
CHEMBL3654551
     RDKit          3D

  0  0  0  0  0  0  0  0  0  0999 V3000
M  V30 BEGIN CTAB
M  V30 COUNTS 59 63 0 0 0
M  V30 BEGIN ATOM
M  V30 1 O -1.975773 -0.657255 2.604662 0
M  V30 2 C -1.383586 -1.361817 1.740847 0
M  V30 3 N -0.021355 -1.125179 1.484230 0
M  V30 4 C 0.835096 -0.148814 2.094290 0
M  V30 5 C 2.065675 -0.689548 2.713684 0
M  V30 6 C 2.710206 0.418554 3.541494 0
M  V30 7 C 3.809018 1.109442 2.767421 0
M  V30 8 C 3.397038 1.347609 1.330215 0
M  V30 9 N 2.044524 1.876308 1.387044 0
M  V30 10 C 1.993023 3.010521 0.510379 0
M  V30 11 C 0.696293 3.685609 0.423909 0
M  V30 12 C 0.523341 4.696407 1.374820 0
M  V30 13 C -0.629357 5.450650 1.455504 0
M  V30 14 C -1.649567 5.205329 0.572155 0
M  V30 15 C -1.476996 4.206583 -0.366423 0
M  V30 16 C -0.332544 3.444061 -0.460909 0
M  V30 17 C 1.141198 0.856083 0.981096 0
M  V30 18 C -2.169603 -2.388666 1.059539 0
M  V30 19 C -3.499631 -2.506040 1.407330 0
M  V30 20 C -4.339412 -3.455818 0.816689 0
M  V30 21 C -3.779011 -4.282993 -0.140899 0
M  V30 22 N -4.234075 -5.297486 -0.923160 0
M  V30 23 N -3.279230 -5.767489 -1.685486 0
M  V30 24 C -2.154509 -5.097826 -1.451931 0
M  V30 25 C -0.901361 -5.392384 -2.153762 0
M  V30 26 C -0.587360 -6.752757 -2.258531 0
M  V30 27 C 0.561807 -7.137698 -2.895689 0
M  V30 28 N 1.398236 -6.234254 -3.424828 0
M  V30 29 C 1.120932 -4.920019 -3.338545 0
M  V30 30 C -0.033030 -4.470434 -2.702219 0
M  V30 31 C -2.461640 -4.150939 -0.470780 0
M  V30 32 C -1.617618 -3.216836 0.103816 0
M  V30 33 H 0.486383 -1.696696 0.773564 0
M  V30 34 H 0.292945 0.469555 2.868477 0
M  V30 35 H 2.796389 -1.083723 1.983499 0
M  V30 36 H 1.772050 -1.449540 3.470762 0
M  V30 37 H 3.165640 0.012073 4.473180 0
M  V30 38 H 1.968125 1.171798 3.854225 0
M  V30 39 H 4.742523 0.540521 2.856537 0
M  V30 40 H 3.956802 2.108694 3.227881 0
M  V30 41 H 3.480106 0.400596 0.766602 0
M  V30 42 H 4.104681 2.120959 0.916649 0
M  V30 43 H 2.257467 2.709276 -0.544656 0
M  V30 44 H 2.810308 3.730802 0.791127 0
M  V30 45 H 1.288313 4.960584 2.121191 0
M  V30 46 H -0.748452 6.232535 2.200022 0
M  V30 47 H -2.537092 5.802270 0.651226 0
M  V30 48 H -2.277169 4.007039 -1.066712 0
M  V30 49 H -0.156579 2.661904 -1.173773 0
M  V30 50 H 0.137051 1.338918 0.793153 0
M  V30 51 H 1.467954 0.318483 0.056280 0
M  V30 52 H -4.027497 -1.903663 2.145746 0
M  V30 53 H -5.382567 -3.582269 1.057563 0
M  V30 54 H -5.234653 -5.647967 -0.904058 0
M  V30 55 H -1.210782 -7.555814 -1.856892 0
M  V30 56 H 0.866919 -8.185058 -3.012683 0
M  V30 57 H 1.784982 -4.168007 -3.760396 0
M  V30 58 H -0.313425 -3.441328 -2.598345 0
M  V30 59 H -0.592282 -3.139783 -0.176585 0
M  V30 END ATOM
M  V30 BEGIN BOND
M  V30 1 2 1 2
M  V30 2 1 2 3
M  V30 3 1 3 4
M  V30 4 1 4 5
M  V30 5 1 5 6
M  V30 6 1 6 7
M  V30 7 1 7 8
M  V30 8 1 8 9
M  V30 9 1 9 10
M  V30 10 1 10 11
M  V30 11 2 11 12
M  V30 12 1 12 13
M  V30 13 2 13 14
M  V30 14 1 14 15
M  V30 15 2 15 16
M  V30 16 1 9 17
M  V30 17 1 2 18
M  V30 18 2 18 19
M  V30 19 1 19 20
M  V30 20 2 20 21
M  V30 21 1 21 22
M  V30 22 1 22 23
M  V30 23 2 23 24
M  V30 24 1 24 25
M  V30 25 2 25 26
M  V30 26 1 26 27
M  V30 27 2 27 28
M  V30 28 1 28 29
M  V30 29 2 29 30
M  V30 30 1 24 31
M  V30 31 2 31 32
M  V30 32 1 17 4
M  V30 33 1 32 18
M  V30 34 1 16 11
M  V30 35 1 31 21
M  V30 36 1 30 25
M  V30 37 1 3 33
M  V30 38 1 4 34
M  V30 39 1 5 35
M  V30 40 1 5 36
M  V30 41 1 6 37
M  V30 42 1 6 38
M  V30 43 1 7 39
M  V30 44 1 7 40
M  V30 45 1 8 41
M  V30 46 1 8 42
M  V30 47 1 10 43
M  V30 48 1 10 44
M  V30 49 1 12 45
M  V30 50 1 13 46
M  V30 51 1 14 47
M  V30 52 1 15 48
M  V30 53 1 16 49
M  V30 54 1 17 50
M  V30 55 1 17 51
M  V30 56 1 19 52
M  V30 57 1 20 53
M  V30 58 1 22 54
M  V30 59 1 26 55
M  V30 60 1 27 56
M  V30 61 1 29 57
M  V30 62 1 30 58
M  V30 63 1 32 59
M  V30 END BOND
M  V30 END CTAB
M  END
>  <Dataset>  (418) 
ChEMBL_Kinases

>  <Ligand_Instance>  (418) 
nan

>  <PDB_ID>  (418) 
nan

>  <Standardized_SMILES>  (418) 
O=C(NC1CCCCN(Cc2ccccc2)C1)c1ccc2[nH]nc(-c3ccncc3)c2c1

>  <Name>  (418) 
nan

>  <Pocket>  (418) 
nan

>  <ATP_Site>  (418) 
nan

>  <Peripheral>  (418) 
nan

>  <Num_H_Atoms_ProtBoundConf>  (418) 
nan

>  <Num_Resolved_Atoms>  (418) 
nan

>  <Num_Not_Resolved_Atoms>  (418) 
nan

$$$$
CHEMBL3654550
     RDKit          3D

  0  0  0  0  0  0  0  0  0  0999 V3000
M  V30 BEGIN CTAB
M  V30 COUNTS 56 60 0 0 0
M  V30 BEGIN ATOM
M  V30 1 O 0.539642 -1.834039 -0.014329 0
M  V30 2 C -0.235880 -1.708140 0.994851 0
M  V30 3 N 0.315731 -1.220681 2.227123 0
M  V30 4 C 1.693707 -0.885603 2.320191 0 CFG=2
M  V30 5 C 2.516734 -1.677532 3.274846 0
M  V30 6 C 3.976809 -1.368313 2.956903 0
M  V30 7 C 4.259499 0.082266 2.817534 0
M  V30 8 N 3.277413 0.837009 2.122413 0
M  V30 9 C 3.581504 2.207107 1.881041 0
M  V30 10 C 2.491890 2.931376 1.171108 0
M  V30 11 C 2.272248 2.761396 -0.196889 0
M  V30 12 F 3.085427 1.911456 -0.865928 0
M  V30 13 C 1.229397 3.475454 -0.796633 0
M  V30 14 C 0.428741 4.334335 -0.053283 0
M  V30 15 C 0.634887 4.512480 1.302890 0
M  V30 16 C 1.667248 3.802399 1.883874 0
M  V30 17 F 1.901454 3.949887 3.209938 0
M  V30 18 C 1.947364 0.577522 2.612284 0
M  V30 19 C -1.662582 -2.052126 0.905356 0
M  V30 20 C -2.587416 -1.960702 1.923994 0
M  V30 21 C -3.901274 -2.314721 1.709251 0
M  V30 22 C -4.357610 -2.770754 0.490834 0
M  V30 23 N -5.506752 -3.186961 -0.063104 0
M  V30 24 N -5.345132 -3.521283 -1.334639 0
M  V30 25 C -4.046904 -3.337166 -1.691487 0
M  V30 26 C -3.509728 -3.604285 -3.020155 0
M  V30 27 C -2.313499 -4.275619 -3.262878 0
M  V30 28 C -1.843923 -4.506449 -4.538846 0
M  V30 29 N -2.530966 -4.087787 -5.591389 0
M  V30 30 C -3.700892 -3.428506 -5.454108 0
M  V30 31 Cl -4.653195 -2.851458 -6.811732 0
M  V30 32 C -4.192565 -3.185475 -4.168385 0
M  V30 33 C -3.446367 -2.866730 -0.533076 0
M  V30 34 C -2.131241 -2.511456 -0.314986 0
M  V30 35 H -0.264761 -1.097024 3.084964 0
M  V30 36 H 2.141827 -1.091053 1.303582 0
M  V30 37 H 2.287991 -1.480507 4.339891 0
M  V30 38 H 2.401075 -2.776987 3.079028 0
M  V30 39 H 4.203780 -1.912513 2.005620 0
M  V30 40 H 4.581923 -1.763873 3.802619 0
M  V30 41 H 4.450104 0.529732 3.834881 0
M  V30 42 H 5.232795 0.193593 2.294978 0
M  V30 43 H 4.502070 2.349393 1.266357 0
M  V30 44 H 3.768451 2.717286 2.848058 0
M  V30 45 H 1.066622 3.334706 -1.867224 0
M  V30 46 H -0.374972 4.882045 -0.524467 0
M  V30 47 H 0.049712 5.163536 1.936592 0
M  V30 48 H 1.185919 1.237999 2.188256 0
M  V30 49 H 1.992493 0.676797 3.725095 0
M  V30 50 H -2.225443 -1.607026 2.863176 0
M  V30 51 H -4.623084 -2.241489 2.510885 0
M  V30 52 H -6.413648 -3.229249 0.482112 0
M  V30 53 H -1.752760 -4.617074 -2.407367 0
M  V30 54 H -0.904267 -5.037269 -4.611918 0
M  V30 55 H -5.116973 -2.666734 -3.973722 0
M  V30 56 H -1.419120 -2.597054 -1.151134 0
M  V30 END ATOM
M  V30 BEGIN BOND
M  V30 1 2 1 2
M  V30 2 1 2 3
M  V30 3 1 3 4
M  V30 4 1 4 5
M  V30 5 1 5 6
M  V30 6 1 6 7
M  V30 7 1 7 8
M  V30 8 1 8 9
M  V30 9 1 9 10
M  V30 10 2 10 11
M  V30 11 1 11 12
M  V30 12 1 11 13
M  V30 13 2 13 14
M  V30 14 1 14 15
M  V30 15 2 15 16
M  V30 16 1 16 17
M  V30 17 1 8 18
M  V30 18 1 2 19
M  V30 19 2 19 20
M  V30 20 1 20 21
M  V30 21 2 21 22
M  V30 22 1 22 23
M  V30 23 1 23 24
M  V30 24 2 24 25
M  V30 25 1 25 26
M  V30 26 2 26 27
M  V30 27 1 27 28
M  V30 28 2 28 29
M  V30 29 1 29 30
M  V30 30 1 30 31
M  V30 31 2 30 32
M  V30 32 1 25 33
M  V30 33 2 33 34
M  V30 34 1 18 4
M  V30 35 1 34 19
M  V30 36 1 16 10
M  V30 37 1 33 22
M  V30 38 1 32 26
M  V30 39 1 3 35
M  V30 40 1 4 36 CFG=3
M  V30 41 1 5 37
M  V30 42 1 5 38
M  V30 43 1 6 39
M  V30 44 1 6 40
M  V30 45 1 7 41
M  V30 46 1 7 42
M  V30 47 1 9 43
M  V30 48 1 9 44
M  V30 49 1 13 45
M  V30 50 1 14 46
M  V30 51 1 15 47
M  V30 52 1 18 48
M  V30 53 1 18 49
M  V30 54 1 20 50
M  V30 55 1 21 51
M  V30 56 1 23 52
M  V30 57 1 27 53
M  V30 58 1 28 54
M  V30 59 1 32 55
M  V30 60 1 34 56
M  V30 END BOND
M  V30 END CTAB
M  END
>  <Dataset>  (419) 
ChEMBL_Kinases

>  <Ligand_Instance>  (419) 
nan

>  <PDB_ID>  (419) 
nan

>  <Standardized_SMILES>  (419) 
O=C(N[C@@H]1CCCN(Cc2c(F)cccc2F)C1)c1ccc2[nH]nc(-c3ccnc(Cl)c3)c2c1

>  <Name>  (419) 
nan

>  <Pocket>  (419) 
nan

>  <ATP_Site>  (419) 
nan

>  <Peripheral>  (419) 
nan

>  <Num_H_Atoms_ProtBoundConf>  (419) 
nan

>  <Num_Resolved_Atoms>  (419) 
nan

>  <Num_Not_Resolved_Atoms>  (419) 
nan

$$$$
CHEMBL3654549
     RDKit          3D

  0  0  0  0  0  0  0  0  0  0999 V3000
M  V30 BEGIN CTAB
M  V30 COUNTS 62 66 0 0 0
M  V30 BEGIN ATOM
M  V30 1 O -2.154032 0.292845 1.123297 0
M  V30 2 C -1.793561 -0.907898 0.999524 0
M  V30 3 N -0.445190 -1.292531 1.164761 0
M  V30 4 C 0.562136 -0.278472 1.488582 0
M  V30 5 C 1.236392 -0.587321 2.782682 0
M  V30 6 C 2.045349 0.582683 3.283238 0
M  V30 7 C 3.053450 1.097085 2.299496 0
M  V30 8 C 2.342091 1.895560 1.194146 0
M  V30 9 N 2.140941 1.012608 0.118012 0
M  V30 10 C 2.533464 1.375355 -1.175181 0
M  V30 11 C 1.800812 2.461447 -1.869957 0
M  V30 12 C 1.801368 3.773448 -1.233951 0
M  V30 13 C 2.806432 4.699762 -1.501274 0
M  V30 14 C 2.860897 5.955670 -0.941063 0
M  V30 15 C 1.880558 6.351089 -0.061009 0
M  V30 16 C 0.840673 5.485195 0.259594 0
M  V30 17 C 0.850549 4.244835 -0.338736 0
M  V30 18 C 1.570722 -0.246497 0.361411 0
M  V30 19 C -2.877117 -1.828682 0.678434 0
M  V30 20 C -4.161891 -1.357345 0.505786 0
M  V30 21 C -5.227063 -2.212213 0.199075 0
M  V30 22 C -4.996921 -3.566852 0.063292 0
M  V30 23 N -5.748346 -4.648378 -0.215723 0
M  V30 24 N -5.022323 -5.753592 -0.227643 0
M  V30 25 C -3.736469 -5.466584 0.045001 0
M  V30 26 C -2.609628 -6.387491 0.130453 0
M  V30 27 C -1.349574 -6.231321 -0.407280 0
M  V30 28 C -0.390659 -7.212078 -0.229494 0
M  V30 29 N -0.667754 -8.341202 0.473054 0
M  V30 30 C -1.868146 -8.531281 1.007331 0
M  V30 31 C -2.835222 -7.564704 0.840190 0
M  V30 32 C -3.726803 -4.081235 0.227892 0
M  V30 33 C -2.718018 -3.191148 0.528809 0
M  V30 34 H -0.185867 -2.295361 1.053621 0
M  V30 35 H 0.004034 0.675377 1.569405 0
M  V30 36 H 1.939033 -1.449660 2.698591 0
M  V30 37 H 0.456201 -0.774821 3.556482 0
M  V30 38 H 1.427691 1.428109 3.650000 0
M  V30 39 H 2.642491 0.182026 4.149688 0
M  V30 40 H 3.827384 1.676484 2.804990 0
M  V30 41 H 3.593107 0.227832 1.830146 0
M  V30 42 H 2.985735 2.733258 0.898886 0
M  V30 43 H 1.420042 2.275761 1.681371 0
M  V30 44 H 3.624300 1.593895 -1.168271 0
M  V30 45 H 2.446230 0.464388 -1.831002 0
M  V30 46 H 0.758972 2.157723 -2.110846 0
M  V30 47 H 2.286052 2.572871 -2.884487 0
M  V30 48 H 3.592182 4.428583 -2.184986 0
M  V30 49 H 3.632162 6.664427 -1.146936 0
M  V30 50 H 1.814885 7.312446 0.444114 0
M  V30 51 H 0.034155 5.735457 0.947060 0
M  V30 52 H 0.039960 3.565644 -0.091085 0
M  V30 53 H 1.107287 -0.667021 -0.539454 0
M  V30 54 H 2.372391 -0.972692 0.653658 0
M  V30 55 H -4.420751 -0.303393 0.596987 0
M  V30 56 H -6.236526 -1.831639 0.064379 0
M  V30 57 H -6.791545 -4.638329 -0.404962 0
M  V30 58 H -1.209816 -5.303430 -0.952985 0
M  V30 59 H 0.585444 -7.031774 -0.677875 0
M  V30 60 H -2.028149 -9.441770 1.551459 0
M  V30 61 H -3.799140 -7.762052 1.293329 0
M  V30 62 H -1.716242 -3.585330 0.659684 0
M  V30 END ATOM
M  V30 BEGIN BOND
M  V30 1 2 1 2
M  V30 2 1 2 3
M  V30 3 1 3 4
M  V30 4 1 4 5
M  V30 5 1 5 6
M  V30 6 1 6 7
M  V30 7 1 7 8
M  V30 8 1 8 9
M  V30 9 1 9 10
M  V30 10 1 10 11
M  V30 11 1 11 12
M  V30 12 2 12 13
M  V30 13 1 13 14
M  V30 14 2 14 15
M  V30 15 1 15 16
M  V30 16 2 16 17
M  V30 17 1 9 18
M  V30 18 1 2 19
M  V30 19 2 19 20
M  V30 20 1 20 21
M  V30 21 2 21 22
M  V30 22 1 22 23
M  V30 23 1 23 24
M  V30 24 2 24 25
M  V30 25 1 25 26
M  V30 26 2 26 27
M  V30 27 1 27 28
M  V30 28 2 28 29
M  V30 29 1 29 30
M  V30 30 2 30 31
M  V30 31 1 25 32
M  V30 32 2 32 33
M  V30 33 1 18 4
M  V30 34 1 33 19
M  V30 35 1 17 12
M  V30 36 1 32 22
M  V30 37 1 31 26
M  V30 38 1 3 34
M  V30 39 1 4 35
M  V30 40 1 5 36
M  V30 41 1 5 37
M  V30 42 1 6 38
M  V30 43 1 6 39
M  V30 44 1 7 40
M  V30 45 1 7 41
M  V30 46 1 8 42
M  V30 47 1 8 43
M  V30 48 1 10 44
M  V30 49 1 10 45
M  V30 50 1 11 46
M  V30 51 1 11 47
M  V30 52 1 13 48
M  V30 53 1 14 49
M  V30 54 1 15 50
M  V30 55 1 16 51
M  V30 56 1 17 52
M  V30 57 1 18 53
M  V30 58 1 18 54
M  V30 59 1 20 55
M  V30 60 1 21 56
M  V30 61 1 23 57
M  V30 62 1 27 58
M  V30 63 1 28 59
M  V30 64 1 30 60
M  V30 65 1 31 61
M  V30 66 1 33 62
M  V30 END BOND
M  V30 END CTAB
M  END
>  <Dataset>  (420) 
ChEMBL_Kinases

>  <Ligand_Instance>  (420) 
nan

>  <PDB_ID>  (420) 
nan

>  <Standardized_SMILES>  (420) 
O=C(NC1CCCCN(CCc2ccccc2)C1)c1ccc2[nH]nc(-c3ccncc3)c2c1

>  <Name>  (420) 
nan

>  <Pocket>  (420) 
nan

>  <ATP_Site>  (420) 
nan

>  <Peripheral>  (420) 
nan

>  <Num_H_Atoms_ProtBoundConf>  (420) 
nan

>  <Num_Resolved_Atoms>  (420) 
nan

>  <Num_Not_Resolved_Atoms>  (420) 
nan

$$$$
CHEMBL3654548
     RDKit          3D

  0  0  0  0  0  0  0  0  0  0999 V3000
M  V30 BEGIN CTAB
M  V30 COUNTS 58 62 0 0 0
M  V30 BEGIN ATOM
M  V30 1 O 0.907714 -3.137605 2.770919 0
M  V30 2 C 0.074262 -2.580984 2.031099 0
M  V30 3 N 0.403219 -1.242860 1.683220 0
M  V30 4 C 1.598571 -0.569165 2.140548 0
M  V30 5 C 1.195473 0.585628 3.015179 0
M  V30 6 C 2.340243 1.420030 3.487087 0
M  V30 7 C 3.640017 0.685556 3.541627 0
M  V30 8 C 4.296723 0.618162 2.189299 0
M  V30 9 N 3.297463 0.934282 1.186473 0
M  V30 10 C 4.000200 1.275082 -0.020158 0
M  V30 11 C 3.085106 1.605360 -1.134164 0
M  V30 12 C 2.561247 0.763400 -2.097500 0
M  V30 13 C 1.715523 1.241756 -3.069720 0
M  V30 14 C 1.362839 2.569677 -3.117280 0
M  V30 15 C 1.895152 3.388405 -2.149933 0
M  V30 16 N 2.727840 2.902176 -1.197538 0
M  V30 17 C 2.472665 -0.199713 0.979594 0
M  V30 18 C -1.118529 -3.296170 1.593586 0
M  V30 19 C -1.231614 -4.599488 2.058484 0
M  V30 20 C -2.355873 -5.310885 1.662504 0
M  V30 21 C -3.341331 -4.791129 0.847113 0
M  V30 22 N -4.490423 -5.229925 0.324449 0
M  V30 23 N -5.010215 -4.265241 -0.388696 0
M  V30 24 C -4.226163 -3.151016 -0.365712 0
M  V30 25 C -4.576528 -1.926658 -1.081442 0
M  V30 26 C -4.492058 -0.649295 -0.565726 0
M  V30 27 C -4.867294 0.421527 -1.383553 0
M  V30 28 N -5.304420 0.261158 -2.643601 0
M  V30 29 C -5.377069 -0.993271 -3.121203 0
M  V30 30 C -5.027692 -2.110242 -2.386071 0
M  V30 31 C -3.133531 -3.487274 0.439971 0
M  V30 32 C -2.057774 -2.700975 0.775437 0
M  V30 33 H -0.273020 -0.720838 1.052657 0
M  V30 34 H 2.169874 -1.274363 2.779575 0
M  V30 35 H 0.431860 1.249322 2.574605 0
M  V30 36 H 0.737550 0.139860 3.925692 0
M  V30 37 H 2.143664 1.841725 4.505228 0
M  V30 38 H 2.475245 2.261433 2.760237 0
M  V30 39 H 4.347029 1.225566 4.226516 0
M  V30 40 H 3.506438 -0.317844 3.998087 0
M  V30 41 H 5.151683 1.337433 2.102246 0
M  V30 42 H 4.741047 -0.390333 2.000590 0
M  V30 43 H 4.765596 2.065019 0.135258 0
M  V30 44 H 4.576687 0.360903 -0.338992 0
M  V30 45 H 2.886376 -0.272144 -1.996471 0
M  V30 46 H 1.403104 0.438410 -3.740657 0
M  V30 47 H 0.693501 2.846474 -3.919890 0
M  V30 48 H 1.606074 4.433274 -2.203367 0
M  V30 49 H 1.792652 0.007366 0.110321 0
M  V30 50 H 3.106439 -1.057133 0.673664 0
M  V30 51 H -0.494474 -5.066544 2.700182 0
M  V30 52 H -2.444682 -6.328369 2.025144 0
M  V30 53 H -4.846491 -6.195629 0.502187 0
M  V30 54 H -4.138011 -0.546813 0.450256 0
M  V30 55 H -4.770682 1.407042 -0.900407 0
M  V30 56 H -5.731689 -1.115195 -4.141846 0
M  V30 57 H -5.104706 -3.112398 -2.823126 0
M  V30 58 H -1.950199 -1.684380 0.425282 0
M  V30 END ATOM
M  V30 BEGIN BOND
M  V30 1 2 1 2
M  V30 2 1 2 3
M  V30 3 1 3 4
M  V30 4 1 4 5
M  V30 5 1 5 6
M  V30 6 1 6 7
M  V30 7 1 7 8
M  V30 8 1 8 9
M  V30 9 1 9 10
M  V30 10 1 10 11
M  V30 11 2 11 12
M  V30 12 1 12 13
M  V30 13 2 13 14
M  V30 14 1 14 15
M  V30 15 2 15 16
M  V30 16 1 9 17
M  V30 17 1 2 18
M  V30 18 2 18 19
M  V30 19 1 19 20
M  V30 20 2 20 21
M  V30 21 1 21 22
M  V30 22 1 22 23
M  V30 23 2 23 24
M  V30 24 1 24 25
M  V30 25 2 25 26
M  V30 26 1 26 27
M  V30 27 2 27 28
M  V30 28 1 28 29
M  V30 29 2 29 30
M  V30 30 1 24 31
M  V30 31 2 31 32
M  V30 32 1 17 4
M  V30 33 1 32 18
M  V30 34 1 16 11
M  V30 35 1 31 21
M  V30 36 1 30 25
M  V30 37 1 3 33
M  V30 38 1 4 34
M  V30 39 1 5 35
M  V30 40 1 5 36
M  V30 41 1 6 37
M  V30 42 1 6 38
M  V30 43 1 7 39
M  V30 44 1 7 40
M  V30 45 1 8 41
M  V30 46 1 8 42
M  V30 47 1 10 43
M  V30 48 1 10 44
M  V30 49 1 12 45
M  V30 50 1 13 46
M  V30 51 1 14 47
M  V30 52 1 15 48
M  V30 53 1 17 49
M  V30 54 1 17 50
M  V30 55 1 19 51
M  V30 56 1 20 52
M  V30 57 1 22 53
M  V30 58 1 26 54
M  V30 59 1 27 55
M  V30 60 1 29 56
M  V30 61 1 30 57
M  V30 62 1 32 58
M  V30 END BOND
M  V30 END CTAB
M  END
>  <Dataset>  (421) 
ChEMBL_Kinases

>  <Ligand_Instance>  (421) 
nan

>  <PDB_ID>  (421) 
nan

>  <Standardized_SMILES>  (421) 
O=C(NC1CCCCN(Cc2ccccn2)C1)c1ccc2[nH]nc(-c3ccncc3)c2c1

>  <Name>  (421) 
nan

>  <Pocket>  (421) 
nan

>  <ATP_Site>  (421) 
nan

>  <Peripheral>  (421) 
nan

>  <Num_H_Atoms_ProtBoundConf>  (421) 
nan

>  <Num_Resolved_Atoms>  (421) 
nan

>  <Num_Not_Resolved_Atoms>  (421) 
nan

$$$$
CHEMBL3654547
     RDKit          3D

  0  0  0  0  0  0  0  0  0  0999 V3000
M  V30 BEGIN CTAB
M  V30 COUNTS 59 63 0 0 0
M  V30 BEGIN ATOM
M  V30 1 O -1.442098 -0.429366 2.149547 0
M  V30 2 C -0.956462 -1.216098 1.312602 0
M  V30 3 N 0.451070 -1.175773 1.122669 0
M  V30 4 C 1.347429 -0.284892 1.835964 0
M  V30 5 C 2.301679 -1.054592 2.724559 0
M  V30 6 C 2.783021 -0.104020 3.772757 0
M  V30 7 C 3.521796 1.073790 3.230619 0
M  V30 8 C 2.618065 2.165430 2.687769 0
M  V30 9 N 2.343967 1.902032 1.331012 0
M  V30 10 C 1.807212 2.912353 0.513168 0
M  V30 11 C 0.510249 3.476758 0.878152 0
M  V30 12 C -0.649847 3.071953 0.203130 0
M  V30 13 C -1.932546 3.515179 0.450143 0
M  V30 14 C -2.092402 4.444388 1.455343 0
M  V30 15 C -1.005305 4.896582 2.168916 0
M  V30 16 C 0.239918 4.401238 1.856255 0
M  V30 17 F 1.276321 4.880795 2.574965 0
M  V30 18 C 2.203291 0.554741 0.919821 0
M  V30 19 C -1.835680 -2.123184 0.581582 0
M  V30 20 C -3.188445 -2.027978 0.896196 0
M  V30 21 C -4.115739 -2.851412 0.252935 0
M  V30 22 C -3.683994 -3.758057 -0.694629 0
M  V30 23 N -4.324773 -4.658023 -1.459058 0
M  V30 24 N -3.424261 -5.277954 -2.206152 0
M  V30 25 C -2.211599 -4.788683 -1.932706 0
M  V30 26 C -0.992615 -5.258167 -2.586817 0
M  V30 27 C 0.214688 -5.560282 -1.996243 0
M  V30 28 C 1.274776 -5.992268 -2.741952 0
M  V30 29 N 1.138023 -6.124232 -4.068579 0
M  V30 30 C 0.016396 -5.858201 -4.727569 0
M  V30 31 C -1.052868 -5.422000 -3.971842 0
M  V30 32 C -2.336987 -3.808094 -0.964642 0
M  V30 33 C -1.359207 -3.013601 -0.357596 0
M  V30 34 H 0.904403 -1.814215 0.433438 0
M  V30 35 H 0.693458 0.307688 2.508481 0
M  V30 36 H 3.133309 -1.401201 2.090223 0
M  V30 37 H 1.832952 -1.904638 3.218143 0
M  V30 38 H 3.530000 -0.680796 4.387918 0
M  V30 39 H 1.966362 0.233880 4.413944 0
M  V30 40 H 4.097132 1.504639 4.093677 0
M  V30 41 H 4.263561 0.839756 2.466209 0
M  V30 42 H 1.764263 2.364304 3.350618 0
M  V30 43 H 3.261382 3.092746 2.725391 0
M  V30 44 H 1.703710 2.471810 -0.524315 0
M  V30 45 H 2.591795 3.695978 0.376875 0
M  V30 46 H -0.536098 2.330177 -0.601351 0
M  V30 47 H -2.749684 3.131635 -0.135875 0
M  V30 48 H -3.077011 4.818438 1.683300 0
M  V30 49 H -1.138810 5.626501 2.957057 0
M  V30 50 H 1.831343 0.524738 -0.125849 0
M  V30 51 H 3.248597 0.132927 0.842727 0
M  V30 52 H -3.599320 -1.348233 1.620545 0
M  V30 53 H -5.167432 -2.779442 0.496206 0
M  V30 54 H -5.361887 -4.786364 -1.412344 0
M  V30 55 H 0.237441 -5.426256 -0.924649 0
M  V30 56 H 2.220811 -6.225604 -2.254863 0
M  V30 57 H -0.113250 -5.957926 -5.796481 0
M  V30 58 H -1.987421 -5.198034 -4.501385 0
M  V30 59 H -0.323808 -3.075808 -0.588410 0
M  V30 END ATOM
M  V30 BEGIN BOND
M  V30 1 2 1 2
M  V30 2 1 2 3
M  V30 3 1 3 4
M  V30 4 1 4 5
M  V30 5 1 5 6
M  V30 6 1 6 7
M  V30 7 1 7 8
M  V30 8 1 8 9
M  V30 9 1 9 10
M  V30 10 1 10 11
M  V30 11 2 11 12
M  V30 12 1 12 13
M  V30 13 2 13 14
M  V30 14 1 14 15
M  V30 15 2 15 16
M  V30 16 1 16 17
M  V30 17 1 9 18
M  V30 18 1 2 19
M  V30 19 2 19 20
M  V30 20 1 20 21
M  V30 21 2 21 22
M  V30 22 1 22 23
M  V30 23 1 23 24
M  V30 24 2 24 25
M  V30 25 1 25 26
M  V30 26 2 26 27
M  V30 27 1 27 28
M  V30 28 2 28 29
M  V30 29 1 29 30
M  V30 30 2 30 31
M  V30 31 1 25 32
M  V30 32 2 32 33
M  V30 33 1 18 4
M  V30 34 1 33 19
M  V30 35 1 16 11
M  V30 36 1 32 22
M  V30 37 1 31 26
M  V30 38 1 3 34
M  V30 39 1 4 35
M  V30 40 1 5 36
M  V30 41 1 5 37
M  V30 42 1 6 38
M  V30 43 1 6 39
M  V30 44 1 7 40
M  V30 45 1 7 41
M  V30 46 1 8 42
M  V30 47 1 8 43
M  V30 48 1 10 44
M  V30 49 1 10 45
M  V30 50 1 12 46
M  V30 51 1 13 47
M  V30 52 1 14 48
M  V30 53 1 15 49
M  V30 54 1 18 50
M  V30 55 1 18 51
M  V30 56 1 20 52
M  V30 57 1 21 53
M  V30 58 1 23 54
M  V30 59 1 27 55
M  V30 60 1 28 56
M  V30 61 1 30 57
M  V30 62 1 31 58
M  V30 63 1 33 59
M  V30 END BOND
M  V30 END CTAB
M  END
>  <Dataset>  (422) 
ChEMBL_Kinases

>  <Ligand_Instance>  (422) 
nan

>  <PDB_ID>  (422) 
nan

>  <Standardized_SMILES>  (422) 
O=C(NC1CCCCN(Cc2ccccc2F)C1)c1ccc2[nH]nc(-c3ccncc3)c2c1

>  <Name>  (422) 
nan

>  <Pocket>  (422) 
nan

>  <ATP_Site>  (422) 
nan

>  <Peripheral>  (422) 
nan

>  <Num_H_Atoms_ProtBoundConf>  (422) 
nan

>  <Num_Resolved_Atoms>  (422) 
nan

>  <Num_Not_Resolved_Atoms>  (422) 
nan

$$$$
CHEMBL3654546
     RDKit          3D

  0  0  0  0  0  0  0  0  0  0999 V3000
M  V30 BEGIN CTAB
M  V30 COUNTS 59 63 0 0 0
M  V30 BEGIN ATOM
M  V30 1 O 1.447520 -2.726889 -0.054639 0
M  V30 2 C 0.460451 -1.982439 0.171344 0
M  V30 3 N 0.748190 -0.804218 0.931575 0
M  V30 4 C 2.023266 -0.407250 1.446125 0
M  V30 5 C 2.031301 -0.253875 2.941048 0
M  V30 6 C 3.471268 -0.037322 3.344665 0
M  V30 7 C 3.968356 1.338950 3.093167 0
M  V30 8 C 2.899975 2.344752 2.707608 0
M  V30 9 N 2.121450 1.957577 1.600897 0
M  V30 10 C 1.464506 2.947040 0.835205 0
M  V30 11 C 0.408223 3.632358 1.603861 0
M  V30 12 C 0.442663 4.623937 2.545488 0
M  V30 13 F 1.670724 5.104847 2.830525 0
M  V30 14 C -0.662109 5.145247 3.178569 0
M  V30 15 C -1.938144 4.658910 2.870752 0
M  V30 16 C -2.005267 3.661569 1.926948 0
M  V30 17 C -0.875743 3.164773 1.314478 0
M  V30 18 F -1.168349 2.180447 0.406586 0
M  V30 19 C 2.566264 0.860521 0.816865 0
M  V30 20 C -0.917686 -2.197594 -0.255672 0
M  V30 21 C -2.017721 -1.418913 -0.011567 0
M  V30 22 C -3.267363 -1.753667 -0.484210 0
M  V30 23 C -3.469136 -2.909066 -1.237363 0
M  V30 24 N -4.554584 -3.475536 -1.819271 0
M  V30 25 N -4.124681 -4.572543 -2.403223 0
M  V30 26 C -2.796110 -4.741204 -2.222255 0
M  V30 27 C -2.068103 -5.884136 -2.772384 0
M  V30 28 C -1.144870 -6.622212 -2.056918 0
M  V30 29 C -0.459097 -7.699434 -2.580495 0
M  V30 30 N -0.713570 -8.044964 -3.872147 0
M  V30 31 C -1.593105 -7.386050 -4.641950 0
M  V30 32 C -2.268620 -6.300156 -4.076574 0
M  V30 33 C -2.346480 -3.672373 -1.467136 0
M  V30 34 C -1.077436 -3.368878 -1.010038 0
M  V30 35 H 0.058907 -0.073874 1.213668 0
M  V30 36 H 2.760782 -1.200326 1.181668 0
M  V30 37 H 1.712399 -1.203366 3.419646 0
M  V30 38 H 1.440665 0.618943 3.242123 0
M  V30 39 H 3.669308 -0.411137 4.371419 0
M  V30 40 H 4.073114 -0.719662 2.674512 0
M  V30 41 H 4.375296 1.714938 4.075766 0
M  V30 42 H 4.803723 1.398941 2.384712 0
M  V30 43 H 2.288501 2.606478 3.572629 0
M  V30 44 H 3.500606 3.261604 2.417595 0
M  V30 45 H 2.215443 3.724780 0.536372 0
M  V30 46 H 1.085000 2.564034 -0.145134 0
M  V30 47 H -0.497871 5.918643 3.896576 0
M  V30 48 H -2.761454 5.098652 3.391603 0
M  V30 49 H -3.011655 3.327586 1.732557 0
M  V30 50 H 3.662161 0.813226 0.670359 0
M  V30 51 H 2.114623 0.942269 -0.194040 0
M  V30 52 H -1.821894 -0.532573 0.576454 0
M  V30 53 H -4.094141 -1.095638 -0.255794 0
M  V30 54 H -5.476119 -3.001947 -1.725638 0
M  V30 55 H -0.942601 -6.339579 -1.012173 0
M  V30 56 H 0.256858 -8.248350 -1.978707 0
M  V30 57 H -1.756108 -7.704377 -5.662091 0
M  V30 58 H -2.972718 -5.785109 -4.716296 0
M  V30 59 H -0.269941 -4.051300 -1.258104 0
M  V30 END ATOM
M  V30 BEGIN BOND
M  V30 1 2 1 2
M  V30 2 1 2 3
M  V30 3 1 3 4
M  V30 4 1 4 5
M  V30 5 1 5 6
M  V30 6 1 6 7
M  V30 7 1 7 8
M  V30 8 1 8 9
M  V30 9 1 9 10
M  V30 10 1 10 11
M  V30 11 2 11 12
M  V30 12 1 12 13
M  V30 13 1 12 14
M  V30 14 2 14 15
M  V30 15 1 15 16
M  V30 16 2 16 17
M  V30 17 1 17 18
M  V30 18 1 9 19
M  V30 19 1 2 20
M  V30 20 2 20 21
M  V30 21 1 21 22
M  V30 22 2 22 23
M  V30 23 1 23 24
M  V30 24 1 24 25
M  V30 25 2 25 26
M  V30 26 1 26 27
M  V30 27 2 27 28
M  V30 28 1 28 29
M  V30 29 2 29 30
M  V30 30 1 30 31
M  V30 31 2 31 32
M  V30 32 1 26 33
M  V30 33 2 33 34
M  V30 34 1 19 4
M  V30 35 1 34 20
M  V30 36 1 17 11
M  V30 37 1 33 23
M  V30 38 1 32 27
M  V30 39 1 3 35
M  V30 40 1 4 36
M  V30 41 1 5 37
M  V30 42 1 5 38
M  V30 43 1 6 39
M  V30 44 1 6 40
M  V30 45 1 7 41
M  V30 46 1 7 42
M  V30 47 1 8 43
M  V30 48 1 8 44
M  V30 49 1 10 45
M  V30 50 1 10 46
M  V30 51 1 14 47
M  V30 52 1 15 48
M  V30 53 1 16 49
M  V30 54 1 19 50
M  V30 55 1 19 51
M  V30 56 1 21 52
M  V30 57 1 22 53
M  V30 58 1 24 54
M  V30 59 1 28 55
M  V30 60 1 29 56
M  V30 61 1 31 57
M  V30 62 1 32 58
M  V30 63 1 34 59
M  V30 END BOND
M  V30 END CTAB
M  END
>  <Dataset>  (423) 
ChEMBL_Kinases

>  <Ligand_Instance>  (423) 
nan

>  <PDB_ID>  (423) 
nan

>  <Standardized_SMILES>  (423) 
O=C(NC1CCCCN(Cc2c(F)cccc2F)C1)c1ccc2[nH]nc(-c3ccncc3)c2c1

>  <Name>  (423) 
nan

>  <Pocket>  (423) 
nan

>  <ATP_Site>  (423) 
nan

>  <Peripheral>  (423) 
nan

>  <Num_H_Atoms_ProtBoundConf>  (423) 
nan

>  <Num_Resolved_Atoms>  (423) 
nan

>  <Num_Not_Resolved_Atoms>  (423) 
nan

$$$$
CHEMBL3654545
     RDKit          3D

  0  0  0  0  0  0  0  0  0  0999 V3000
M  V30 BEGIN CTAB
M  V30 COUNTS 63 67 0 0 0
M  V30 BEGIN ATOM
M  V30 1 C 2.241278 -0.658153 3.751533 0
M  V30 2 O 2.450684 0.314892 2.751223 0
M  V30 3 C 3.325757 1.359056 2.851802 0
M  V30 4 C 4.126501 1.629105 3.914937 0
M  V30 5 C 5.019263 2.686542 4.029537 0
M  V30 6 C 5.069944 3.535155 2.919655 0
M  V30 7 C 4.270844 3.291228 1.822206 0
M  V30 8 F 4.352196 4.148668 0.756162 0
M  V30 9 C 3.390414 2.212796 1.759361 0
M  V30 10 C 2.557314 1.987169 0.572590 0
M  V30 11 N 1.186174 2.345716 0.705660 0
M  V30 12 C 1.004040 3.721601 0.986712 0
M  V30 13 C -0.338716 4.106519 1.489328 0
M  V30 14 C -1.475333 3.400558 0.801177 0
M  V30 15 C -1.582666 1.959344 1.133926 0
M  V30 16 C -0.738068 1.023275 0.346868 0
M  V30 17 N -1.538203 0.258415 -0.576065 0
M  V30 18 C -1.567844 -1.169318 -0.464518 0
M  V30 19 O -0.881108 -1.659930 0.446854 0
M  V30 20 C -2.365600 -1.966726 -1.380677 0
M  V30 21 C -3.155276 -1.472429 -2.397219 0
M  V30 22 C -3.890288 -2.282913 -3.237629 0
M  V30 23 C -3.856690 -3.667542 -3.080958 0
M  V30 24 N -4.423320 -4.743070 -3.692583 0
M  V30 25 N -3.999927 -5.847389 -3.078960 0
M  V30 26 C -3.161723 -5.528437 -2.069630 0
M  V30 27 C -2.549775 -6.555082 -1.231313 0
M  V30 28 C -1.187401 -6.493581 -0.918160 0
M  V30 29 C -0.540145 -7.430161 -0.129067 0
M  V30 30 N -1.286125 -8.425387 0.336795 0
M  V30 31 C -2.601499 -8.583113 0.099439 0
M  V30 32 C -3.214790 -7.634696 -0.688600 0
M  V30 33 C -3.063025 -4.150072 -2.060541 0
M  V30 34 C -2.321178 -3.356117 -1.210206 0
M  V30 35 C 0.374797 1.776445 -0.320473 0
M  V30 36 H 2.947746 -1.518943 3.588077 0
M  V30 37 H 2.459629 -0.222589 4.744244 0
M  V30 38 H 1.192612 -1.038913 3.701162 0
M  V30 39 H 4.096666 0.980162 4.779034 0
M  V30 40 H 5.622338 2.833138 4.910181 0
M  V30 41 H 5.752803 4.384308 2.951601 0
M  V30 42 H 2.662200 0.909280 0.278715 0
M  V30 43 H 3.024444 2.565989 -0.275901 0
M  V30 44 H 1.149911 4.289843 0.021844 0
M  V30 45 H 1.804627 4.100308 1.644745 0
M  V30 46 H -0.398088 3.820419 2.561804 0
M  V30 47 H -0.458761 5.208411 1.487558 0
M  V30 48 H -2.461684 3.893789 1.052022 0
M  V30 49 H -1.388680 3.525895 -0.293348 0
M  V30 50 H -1.466225 1.850355 2.234184 0
M  V30 51 H -2.662949 1.671837 0.958884 0
M  V30 52 H -0.226139 0.345732 1.093228 0
M  V30 53 H -2.074151 0.782132 -1.301287 0
M  V30 54 H -3.188246 -0.401286 -2.527774 0
M  V30 55 H -4.505783 -1.880059 -4.030638 0
M  V30 56 H -5.075754 -4.663622 -4.506110 0
M  V30 57 H -0.550286 -5.679967 -1.293426 0
M  V30 58 H 0.519074 -7.341555 0.087927 0
M  V30 59 H -3.175085 -9.416039 0.502479 0
M  V30 60 H -4.274291 -7.718427 -0.908348 0
M  V30 61 H -1.707698 -3.773795 -0.416037 0
M  V30 62 H 0.076759 2.438536 -1.138205 0
M  V30 63 H 1.019041 0.990123 -0.825489 0
M  V30 END ATOM
M  V30 BEGIN BOND
M  V30 1 1 1 2
M  V30 2 1 2 3
M  V30 3 2 3 4
M  V30 4 1 4 5
M  V30 5 2 5 6
M  V30 6 1 6 7
M  V30 7 1 7 8
M  V30 8 2 7 9
M  V30 9 1 9 10
M  V30 10 1 10 11
M  V30 11 1 11 12
M  V30 12 1 12 13
M  V30 13 1 13 14
M  V30 14 1 14 15
M  V30 15 1 15 16
M  V30 16 1 16 17
M  V30 17 1 17 18
M  V30 18 2 18 19
M  V30 19 1 18 20
M  V30 20 2 20 21
M  V30 21 1 21 22
M  V30 22 2 22 23
M  V30 23 1 23 24
M  V30 24 1 24 25
M  V30 25 2 25 26
M  V30 26 1 26 27
M  V30 27 2 27 28
M  V30 28 1 28 29
M  V30 29 2 29 30
M  V30 30 1 30 31
M  V30 31 2 31 32
M  V30 32 1 26 33
M  V30 33 2 33 34
M  V30 34 1 16 35
M  V30 35 1 9 3
M  V30 36 1 35 11
M  V30 37 1 34 20
M  V30 38 1 33 23
M  V30 39 1 32 27
M  V30 40 1 1 36
M  V30 41 1 1 37
M  V30 42 1 1 38
M  V30 43 1 4 39
M  V30 44 1 5 40
M  V30 45 1 6 41
M  V30 46 1 10 42
M  V30 47 1 10 43
M  V30 48 1 12 44
M  V30 49 1 12 45
M  V30 50 1 13 46
M  V30 51 1 13 47
M  V30 52 1 14 48
M  V30 53 1 14 49
M  V30 54 1 15 50
M  V30 55 1 15 51
M  V30 56 1 16 52
M  V30 57 1 17 53
M  V30 58 1 21 54
M  V30 59 1 22 55
M  V30 60 1 24 56
M  V30 61 1 28 57
M  V30 62 1 29 58
M  V30 63 1 31 59
M  V30 64 1 32 60
M  V30 65 1 34 61
M  V30 66 1 35 62
M  V30 67 1 35 63
M  V30 END BOND
M  V30 END CTAB
M  END
>  <Dataset>  (424) 
ChEMBL_Kinases

>  <Ligand_Instance>  (424) 
nan

>  <PDB_ID>  (424) 
nan

>  <Standardized_SMILES>  (424) 
COc1cccc(F)c1CN1CCCCC(NC(=O)c2ccc3[nH]nc(-c4ccncc4)c3c2)C1

>  <Name>  (424) 
nan

>  <Pocket>  (424) 
nan

>  <ATP_Site>  (424) 
nan

>  <Peripheral>  (424) 
nan

>  <Num_H_Atoms_ProtBoundConf>  (424) 
nan

>  <Num_Resolved_Atoms>  (424) 
nan

>  <Num_Not_Resolved_Atoms>  (424) 
nan

$$$$
CHEMBL3654544
     RDKit          3D

  0  0  0  0  0  0  0  0  0  0999 V3000
M  V30 BEGIN CTAB
M  V30 COUNTS 53 57 0 0 0
M  V30 BEGIN ATOM
M  V30 1 O 0.178608 -1.381469 -0.154399 0
M  V30 2 C -0.688268 -1.286185 0.752637 0
M  V30 3 N -0.309645 -0.862683 2.079029 0
M  V30 4 C 1.060113 -0.541839 2.395998 0 CFG=2
M  V30 5 C 1.676159 -1.512348 3.371356 0
M  V30 6 C 2.695700 -0.764508 4.200623 0
M  V30 7 C 3.554049 0.111923 3.294297 0
M  V30 8 N 2.667591 1.160587 2.817181 0
M  V30 9 C 3.384607 2.294506 2.337028 0
M  V30 10 C 3.354707 2.765280 1.044001 0
M  V30 11 C 4.081101 3.877558 0.630150 0
M  V30 12 C 4.875465 4.542718 1.575572 0
M  V30 13 C 4.871465 4.034322 2.852273 0
M  V30 14 C 4.168053 2.937128 3.303478 0
M  V30 15 F 4.318669 2.621529 4.609448 0
M  V30 16 C 1.253927 0.852949 2.922159 0
M  V30 17 C -2.102583 -1.590627 0.537653 0
M  V30 18 C -3.124902 -1.418294 1.468689 0
M  V30 19 C -4.425440 -1.752002 1.159558 0
M  V30 20 C -4.773317 -2.272421 -0.088007 0
M  V30 21 N -5.919817 -2.684725 -0.677073 0
M  V30 22 N -5.653224 -3.097686 -1.907932 0
M  V30 23 C -4.353996 -2.978559 -2.178075 0
M  V30 24 C -3.687264 -3.329417 -3.424455 0
M  V30 25 C -4.099713 -3.013845 -4.719600 0
M  V30 26 C -3.352388 -3.432129 -5.799726 0
M  V30 27 N -2.201717 -4.155791 -5.676841 0
M  V30 28 C -1.802465 -4.461770 -4.407731 0
M  V30 29 C -2.507472 -4.072097 -3.292366 0
M  V30 30 C -3.775048 -2.456639 -1.038809 0
M  V30 31 C -2.495946 -2.108535 -0.681391 0
M  V30 32 H -0.930765 -0.745541 2.904340 0
M  V30 33 H 1.619164 -0.639622 1.441106 0
M  V30 34 H 0.959199 -1.955198 4.087767 0
M  V30 35 H 2.197524 -2.309183 2.817678 0
M  V30 36 H 2.241167 -0.191483 5.034279 0
M  V30 37 H 3.410283 -1.464106 4.697817 0
M  V30 38 H 4.428511 0.484204 3.825679 0
M  V30 39 H 3.830572 -0.587409 2.451050 0
M  V30 40 H 2.727089 2.221670 0.339316 0
M  V30 41 H 4.005067 4.186131 -0.404296 0
M  V30 42 H 5.441778 5.403322 1.273779 0
M  V30 43 H 5.507653 4.606913 3.515438 0
M  V30 44 H 0.628906 1.616922 2.386894 0
M  V30 45 H 0.901278 0.943269 3.989282 0
M  V30 46 H -2.863849 -1.025075 2.415431 0
M  V30 47 H -5.195857 -1.607965 1.899617 0
M  V30 48 H -6.847497 -2.657438 -0.181552 0
M  V30 49 H -5.008411 -2.446261 -4.769522 0
M  V30 50 H -3.710397 -3.164801 -6.804094 0
M  V30 51 H -0.872301 -5.044754 -4.366684 0
M  V30 52 H -2.031320 -4.412831 -2.366899 0
M  V30 53 H -1.718737 -2.249675 -1.423547 0
M  V30 END ATOM
M  V30 BEGIN BOND
M  V30 1 2 1 2
M  V30 2 1 2 3
M  V30 3 1 3 4
M  V30 4 1 4 5
M  V30 5 1 5 6
M  V30 6 1 6 7
M  V30 7 1 7 8
M  V30 8 1 8 9
M  V30 9 2 9 10
M  V30 10 1 10 11
M  V30 11 2 11 12
M  V30 12 1 12 13
M  V30 13 2 13 14
M  V30 14 1 14 15
M  V30 15 1 8 16
M  V30 16 1 2 17
M  V30 17 2 17 18
M  V30 18 1 18 19
M  V30 19 2 19 20
M  V30 20 1 20 21
M  V30 21 1 21 22
M  V30 22 2 22 23
M  V30 23 1 23 24
M  V30 24 2 24 25
M  V30 25 1 25 26
M  V30 26 2 26 27
M  V30 27 1 27 28
M  V30 28 2 28 29
M  V30 29 1 23 30
M  V30 30 2 30 31
M  V30 31 1 16 4
M  V30 32 1 31 17
M  V30 33 1 14 9
M  V30 34 1 30 20
M  V30 35 1 29 24
M  V30 36 1 3 32
M  V30 37 1 4 33 CFG=3
M  V30 38 1 5 34
M  V30 39 1 5 35
M  V30 40 1 6 36
M  V30 41 1 6 37
M  V30 42 1 7 38
M  V30 43 1 7 39
M  V30 44 1 10 40
M  V30 45 1 11 41
M  V30 46 1 12 42
M  V30 47 1 13 43
M  V30 48 1 16 44
M  V30 49 1 16 45
M  V30 50 1 18 46
M  V30 51 1 19 47
M  V30 52 1 21 48
M  V30 53 1 25 49
M  V30 54 1 26 50
M  V30 55 1 28 51
M  V30 56 1 29 52
M  V30 57 1 31 53
M  V30 END BOND
M  V30 END CTAB
M  END
>  <Dataset>  (425) 
ChEMBL_Kinases

>  <Ligand_Instance>  (425) 
nan

>  <PDB_ID>  (425) 
nan

>  <Standardized_SMILES>  (425) 
O=C(N[C@@H]1CCCN(c2ccccc2F)C1)c1ccc2[nH]nc(-c3ccncc3)c2c1

>  <Name>  (425) 
nan

>  <Pocket>  (425) 
nan

>  <ATP_Site>  (425) 
nan

>  <Peripheral>  (425) 
nan

>  <Num_H_Atoms_ProtBoundConf>  (425) 
nan

>  <Num_Resolved_Atoms>  (425) 
nan

>  <Num_Not_Resolved_Atoms>  (425) 
nan

$$$$
CHEMBL3654543
     RDKit          3D

  0  0  0  0  0  0  0  0  0  0999 V3000
M  V30 BEGIN CTAB
M  V30 COUNTS 60 64 0 0 0
M  V30 BEGIN ATOM
M  V30 1 C -1.563818 -0.744345 3.918993 0
M  V30 2 N -0.443294 -1.688648 3.794514 0
M  V30 3 C 0.767193 -1.241478 3.411874 0
M  V30 4 C 1.885678 -2.041954 3.263647 0
M  V30 5 C 3.185782 -1.529899 2.844089 0
M  V30 6 N 4.381637 -1.823791 3.401263 0
M  V30 7 N 5.350092 -1.185374 2.768761 0
M  V30 8 C 4.877425 -0.432965 1.761637 0
M  V30 9 C 5.389733 0.413805 0.796310 0
M  V30 10 C 4.582053 1.063456 -0.138967 0
M  V30 11 C 3.229461 0.817779 -0.053958 0
M  V30 12 C 2.412263 1.506327 -1.039622 0
M  V30 13 O 2.872442 2.275259 -1.908367 0
M  V30 14 N 1.003919 1.339413 -1.072733 0
M  V30 15 C -0.064135 1.855987 -1.890132 0 CFG=2
M  V30 16 C -1.066401 2.667568 -1.087326 0
M  V30 17 C -2.428317 2.000002 -1.144413 0
M  V30 18 C -2.365500 0.539815 -0.889503 0
M  V30 19 N -1.506274 -0.144553 -1.798198 0
M  V30 20 C -2.157992 -1.141409 -2.595585 0
M  V30 21 C -2.787844 -2.227494 -1.825486 0
M  V30 22 C -4.140635 -2.361176 -1.595372 0
M  V30 23 C -4.640240 -3.417832 -0.859453 0
M  V30 24 C -3.758923 -4.356046 -0.346768 0
M  V30 25 C -2.392401 -4.267208 -0.549290 0
M  V30 26 C -1.936892 -3.191207 -1.293056 0
M  V30 27 F -0.573790 -3.155662 -1.460998 0
M  V30 28 C -0.778303 0.738230 -2.626883 0
M  V30 29 C 2.672105 -0.016725 0.888523 0
M  V30 30 C 3.516392 -0.648203 1.807323 0
M  V30 31 C 1.662022 -3.374194 3.545953 0
M  V30 32 C 0.428589 -3.857953 3.940721 0
M  V30 33 C -0.647232 -2.993683 4.067213 0
M  V30 34 O -1.814232 -3.325421 4.419458 0
M  V30 35 H -1.527215 -0.169009 4.853381 0
M  V30 36 H -2.521887 -1.321569 3.900295 0
M  V30 37 H -1.602126 -0.084072 3.016159 0
M  V30 38 H 0.841528 -0.180703 3.215586 0
M  V30 39 H 6.377782 -1.244045 3.007431 0
M  V30 40 H 6.471300 0.551172 0.801763 0
M  V30 41 H 5.015448 1.724977 -0.887596 0
M  V30 42 H 0.472643 0.731893 -0.414125 0
M  V30 43 H 0.373603 2.532330 -2.641511 0
M  V30 44 H -0.735822 2.640280 -0.034374 0
M  V30 45 H -1.085651 3.717660 -1.416675 0
M  V30 46 H -3.137029 2.462319 -0.431437 0
M  V30 47 H -2.842037 2.182463 -2.157739 0
M  V30 48 H -3.424505 0.140941 -0.954578 0
M  V30 49 H -1.974232 0.323521 0.135841 0
M  V30 50 H -1.430954 -1.557616 -3.341813 0
M  V30 51 H -2.970349 -0.660236 -3.199063 0
M  V30 52 H -4.797223 -1.597385 -2.019148 0
M  V30 53 H -5.709443 -3.514071 -0.683878 0
M  V30 54 H -4.129365 -5.182640 0.226067 0
M  V30 55 H -1.759891 -5.016842 -0.131673 0
M  V30 56 H 0.005754 0.159880 -3.180746 0
M  V30 57 H -1.430022 1.148064 -3.427803 0
M  V30 58 H 1.612316 -0.209535 0.952987 0
M  V30 59 H 2.488256 -4.090719 3.457507 0
M  V30 60 H 0.225232 -4.882441 4.165842 0
M  V30 END ATOM
M  V30 BEGIN BOND
M  V30 1 1 1 2
M  V30 2 1 2 3
M  V30 3 2 3 4
M  V30 4 1 4 5
M  V30 5 2 5 6
M  V30 6 1 6 7
M  V30 7 1 7 8
M  V30 8 2 8 9
M  V30 9 1 9 10
M  V30 10 2 10 11
M  V30 11 1 11 12
M  V30 12 2 12 13
M  V30 13 1 12 14
M  V30 14 1 14 15
M  V30 15 1 15 16
M  V30 16 1 16 17
M  V30 17 1 17 18
M  V30 18 1 18 19
M  V30 19 1 19 20
M  V30 20 1 20 21
M  V30 21 2 21 22
M  V30 22 1 22 23
M  V30 23 2 23 24
M  V30 24 1 24 25
M  V30 25 2 25 26
M  V30 26 1 26 27
M  V30 27 1 19 28
M  V30 28 1 11 29
M  V30 29 2 29 30
M  V30 30 1 4 31
M  V30 31 2 31 32
M  V30 32 1 32 33
M  V30 33 2 33 34
M  V30 34 1 33 2
M  V30 35 1 30 5
M  V30 36 1 30 8
M  V30 37 1 28 15
M  V30 38 1 26 21
M  V30 39 1 1 35
M  V30 40 1 1 36
M  V30 41 1 1 37
M  V30 42 1 3 38
M  V30 43 1 7 39
M  V30 44 1 9 40
M  V30 45 1 10 41
M  V30 46 1 14 42
M  V30 47 1 15 43 CFG=3
M  V30 48 1 16 44
M  V30 49 1 16 45
M  V30 50 1 17 46
M  V30 51 1 17 47
M  V30 52 1 18 48
M  V30 53 1 18 49
M  V30 54 1 20 50
M  V30 55 1 20 51
M  V30 56 1 22 52
M  V30 57 1 23 53
M  V30 58 1 24 54
M  V30 59 1 25 55
M  V30 60 1 28 56
M  V30 61 1 28 57
M  V30 62 1 29 58
M  V30 63 1 31 59
M  V30 64 1 32 60
M  V30 END BOND
M  V30 END CTAB
M  END
>  <Dataset>  (426) 
ChEMBL_Kinases

>  <Ligand_Instance>  (426) 
nan

>  <PDB_ID>  (426) 
nan

>  <Standardized_SMILES>  (426) 
Cn1cc(-c2n[nH]c3ccc(C(=O)N[C@@H]4CCCN(Cc5ccccc5F)C4)cc23)ccc1=O

>  <Name>  (426) 
nan

>  <Pocket>  (426) 
nan

>  <ATP_Site>  (426) 
nan

>  <Peripheral>  (426) 
nan

>  <Num_H_Atoms_ProtBoundConf>  (426) 
nan

>  <Num_Resolved_Atoms>  (426) 
nan

>  <Num_Not_Resolved_Atoms>  (426) 
nan

$$$$
CHEMBL3654525
     RDKit          3D

  0  0  0  0  0  0  0  0  0  0999 V3000
M  V30 BEGIN CTAB
M  V30 COUNTS 67 71 0 0 0
M  V30 BEGIN ATOM
M  V30 1 C 2.113548 0.580940 5.977048 0
M  V30 2 O 1.925104 0.429622 4.600448 0
M  V30 3 C 2.926291 0.182499 3.669361 0
M  V30 4 C 4.247018 0.069090 4.109269 0
M  V30 5 C 5.239116 -0.179709 3.156252 0
M  V30 6 C 4.904622 -0.305179 1.835426 0
M  V30 7 C 3.598828 -0.193805 1.394611 0
M  V30 8 F 3.216896 -0.312244 0.081013 0
M  V30 9 C 2.599811 0.051748 2.315041 0
M  V30 10 C 1.151307 0.192986 1.959587 0
M  V30 11 N 0.689759 1.551056 1.968787 0
M  V30 12 C -0.684706 1.680443 1.630903 0
M  V30 13 C -1.006883 1.785004 0.177762 0
M  V30 14 N -1.738381 0.608136 -0.280288 0
M  V30 15 C -3.090170 0.587371 -0.704854 0
M  V30 16 O -3.804829 1.631482 -0.722382 0
M  V30 17 C -3.741938 -0.639349 -1.148218 0
M  V30 18 C -5.066757 -0.584738 -1.535225 0
M  V30 19 C -5.770158 -1.711296 -1.974625 0
M  V30 20 C -5.117077 -2.923160 -2.023705 0
M  V30 21 N -5.451396 -4.176504 -2.377875 0
M  V30 22 N -4.403401 -4.996983 -2.229186 0
M  V30 23 C -3.351323 -4.292021 -1.770460 0
M  V30 24 C -2.051804 -4.896058 -1.503049 0
M  V30 25 C -1.623559 -5.762144 -2.515367 0
M  V30 26 C -0.396231 -6.405761 -2.383825 0
M  V30 27 N 0.349868 -6.176214 -1.279873 0
M  V30 28 C -0.035706 -5.349447 -0.291081 0
M  V30 29 C 0.820584 -5.138017 0.890413 0
M  V30 30 C -1.247432 -4.712831 -0.418898 0
M  V30 31 C -3.779395 -2.990360 -1.635444 0
M  V30 32 C -3.115373 -1.867002 -1.208496 0
M  V30 33 C 0.123210 2.147565 -0.717037 0
M  V30 34 C 1.107403 3.000841 0.006882 0
M  V30 35 O 2.276364 3.219405 -0.748557 0
M  V30 36 C 2.429369 4.540411 -1.106302 0
M  V30 37 C 1.559031 2.489092 1.331484 0
M  V30 38 H 1.104752 0.386304 6.445786 0
M  V30 39 H 2.802312 -0.194900 6.332537 0
M  V30 40 H 2.394880 1.618150 6.281398 0
M  V30 41 H 4.443012 0.180299 5.179309 0
M  V30 42 H 6.262390 -0.267079 3.501942 0
M  V30 43 H 5.659702 -0.497702 1.084692 0
M  V30 44 H 0.924690 -0.320038 1.002683 0
M  V30 45 H 0.588752 -0.349032 2.749481 0
M  V30 46 H -1.084092 2.536985 2.243260 0
M  V30 47 H -1.214466 0.786718 2.075035 0
M  V30 48 H -1.762100 2.614094 0.096612 0
M  V30 49 H -1.154855 -0.257164 -0.267720 0
M  V30 50 H -5.651511 0.334136 -1.524841 0
M  V30 51 H -6.822180 -1.645582 -2.277617 0
M  V30 52 H -6.440161 -4.358861 -2.711801 0
M  V30 53 H -2.198059 -5.964202 -3.406624 0
M  V30 54 H -0.059043 -7.082071 -3.171776 0
M  V30 55 H 0.283134 -4.806904 1.786139 0
M  V30 56 H 1.645851 -4.415187 0.662528 0
M  V30 57 H 1.274407 -6.127564 1.162718 0
M  V30 58 H -1.629544 -4.036984 0.324218 0
M  V30 59 H -2.090468 -1.946436 -0.916499 0
M  V30 60 H -0.262102 2.729025 -1.578610 0
M  V30 61 H 0.668489 1.286497 -1.139998 0
M  V30 62 H 0.648262 4.030381 0.080885 0
M  V30 63 H 2.499817 5.251346 -0.261361 0
M  V30 64 H 1.716016 4.864532 -1.901825 0
M  V30 65 H 3.431383 4.598516 -1.611765 0
M  V30 66 H 2.583105 2.052175 1.312187 0
M  V30 67 H 1.646783 3.365462 2.024261 0
M  V30 END ATOM
M  V30 BEGIN BOND
M  V30 1 1 1 2
M  V30 2 1 2 3
M  V30 3 2 3 4
M  V30 4 1 4 5
M  V30 5 2 5 6
M  V30 6 1 6 7
M  V30 7 1 7 8
M  V30 8 2 7 9
M  V30 9 1 9 10
M  V30 10 1 10 11
M  V30 11 1 11 12
M  V30 12 1 12 13
M  V30 13 1 13 14
M  V30 14 1 14 15
M  V30 15 2 15 16
M  V30 16 1 15 17
M  V30 17 2 17 18
M  V30 18 1 18 19
M  V30 19 2 19 20
M  V30 20 1 20 21
M  V30 21 1 21 22
M  V30 22 2 22 23
M  V30 23 1 23 24
M  V30 24 2 24 25
M  V30 25 1 25 26
M  V30 26 2 26 27
M  V30 27 1 27 28
M  V30 28 1 28 29
M  V30 29 2 28 30
M  V30 30 1 23 31
M  V30 31 2 31 32
M  V30 32 1 13 33
M  V30 33 1 33 34
M  V30 34 1 34 35
M  V30 35 1 35 36
M  V30 36 1 34 37
M  V30 37 1 9 3
M  V30 38 1 37 11
M  V30 39 1 32 17
M  V30 40 1 31 20
M  V30 41 1 30 24
M  V30 42 1 1 38
M  V30 43 1 1 39
M  V30 44 1 1 40
M  V30 45 1 4 41
M  V30 46 1 5 42
M  V30 47 1 6 43
M  V30 48 1 10 44
M  V30 49 1 10 45
M  V30 50 1 12 46
M  V30 51 1 12 47
M  V30 52 1 13 48
M  V30 53 1 14 49
M  V30 54 1 18 50
M  V30 55 1 19 51
M  V30 56 1 21 52
M  V30 57 1 25 53
M  V30 58 1 26 54
M  V30 59 1 29 55
M  V30 60 1 29 56
M  V30 61 1 29 57
M  V30 62 1 30 58
M  V30 63 1 32 59
M  V30 64 1 33 60
M  V30 65 1 33 61
M  V30 66 1 34 62
M  V30 67 1 36 63
M  V30 68 1 36 64
M  V30 69 1 36 65
M  V30 70 1 37 66
M  V30 71 1 37 67
M  V30 END BOND
M  V30 END CTAB
M  END
>  <Dataset>  (427) 
ChEMBL_Kinases

>  <Ligand_Instance>  (427) 
nan

>  <PDB_ID>  (427) 
nan

>  <Standardized_SMILES>  (427) 
COc1cccc(F)c1CN1CC(NC(=O)c2ccc3[nH]nc(-c4ccnc(C)c4)c3c2)CC(OC)C1

>  <Name>  (427) 
nan

>  <Pocket>  (427) 
nan

>  <ATP_Site>  (427) 
nan

>  <Peripheral>  (427) 
nan

>  <Num_H_Atoms_ProtBoundConf>  (427) 
nan

>  <Num_Resolved_Atoms>  (427) 
nan

>  <Num_Not_Resolved_Atoms>  (427) 
nan

$$$$
CHEMBL3654526
     RDKit          3D

  0  0  0  0  0  0  0  0  0  0999 V3000
M  V30 BEGIN CTAB
M  V30 COUNTS 66 71 0 0 0
M  V30 BEGIN ATOM
M  V30 1 C -3.893784 2.932288 4.667277 0
M  V30 2 O -2.656722 2.901206 3.983210 0
M  V30 3 C -1.798440 1.787406 4.073100 0
M  V30 4 C -2.140493 0.682651 4.836759 0
M  V30 5 C -1.276456 -0.388458 4.900817 0
M  V30 6 C -0.075906 -0.360556 4.207632 0
M  V30 7 C 0.249552 0.762663 3.443686 0
M  V30 8 F 1.454038 0.698423 2.800732 0
M  V30 9 C -0.606834 1.867039 3.357956 0
M  V30 10 C -0.205232 3.041222 2.543429 0
M  V30 11 N -0.911486 3.152689 1.314216 0
M  V30 12 C -0.453757 4.274458 0.567056 0
M  V30 13 C 0.908284 4.121414 -0.052639 0
M  V30 14 C 1.171609 2.676059 -0.384277 0
M  V30 15 C -0.156088 2.015481 -0.670001 0 CFG=1
M  V30 16 N -0.024480 0.743578 -1.351719 0
M  V30 17 C -0.456573 0.556590 -2.689656 0
M  V30 18 O -0.980205 1.505285 -3.352436 0
M  V30 19 C -0.341432 -0.711149 -3.406080 0
M  V30 20 C -0.725502 -0.764710 -4.729415 0
M  V30 21 C -0.653048 -1.946403 -5.481605 0
M  V30 22 C -0.172906 -3.112082 -4.862932 0
M  V30 23 N 0.007790 -4.362943 -5.319560 0
M  V30 24 N 0.490320 -5.080819 -4.317038 0
M  V30 25 C 0.634380 -4.333636 -3.203289 0
M  V30 26 C 1.136854 -4.797190 -1.918748 0
M  V30 27 C 2.242105 -5.570407 -1.634485 0
M  V30 28 C 2.611689 -5.948469 -0.385213 0
M  V30 29 C 1.887534 -5.576300 0.726164 0
M  V30 30 N 2.055756 -5.824635 2.005202 0
M  V30 31 C 1.453741 -5.516076 2.924157 0
M  V30 32 C 1.266094 -5.546599 4.398196 0
M  V30 33 S 0.044948 -4.483160 2.122317 0
M  V30 34 C 0.740524 -4.771733 0.411880 0
M  V30 35 C 0.352052 -4.377830 -0.871609 0
M  V30 36 C 0.207536 -3.047372 -3.540601 0
M  V30 37 C 0.129340 -1.873910 -2.815588 0
M  V30 38 C -0.963925 1.926013 0.606667 0
M  V30 39 H -4.327700 3.941047 4.501926 0
M  V30 40 H -3.691260 2.717501 5.744898 0
M  V30 41 H -4.629893 2.214235 4.303666 0
M  V30 42 H -3.086970 0.665665 5.380562 0
M  V30 43 H -1.504271 -1.283401 5.492290 0
M  V30 44 H 0.614762 -1.203286 4.252136 0
M  V30 45 H 0.899503 2.999153 2.433433 0
M  V30 46 H -0.391450 3.995660 3.134318 0
M  V30 47 H -0.355208 5.145153 1.278404 0
M  V30 48 H -1.191331 4.613964 -0.206677 0
M  V30 49 H 1.714899 4.575184 0.569529 0
M  V30 50 H 0.940532 4.709232 -1.019759 0
M  V30 51 H 1.783600 2.656672 -1.324246 0
M  V30 52 H 1.730472 2.122742 0.382039 0
M  V30 53 H -0.705197 2.693942 -1.360711 0
M  V30 54 H 0.407877 -0.052237 -0.820174 0
M  V30 55 H -1.111119 0.112166 -5.276857 0
M  V30 56 H -0.966122 -1.937365 -6.518538 0
M  V30 57 H -0.202969 -4.670738 -6.280298 0
M  V30 58 H 2.797637 -5.851544 -2.535120 0
M  V30 59 H 3.496778 -6.546416 -0.350585 0
M  V30 60 H 0.297046 -6.047677 4.648511 0
M  V30 61 H 2.149779 -6.012593 4.832298 0
M  V30 62 H 1.163363 -4.520393 4.841470 0
M  V30 63 H -0.549847 -3.781354 -0.797708 0
M  V30 64 H 0.437192 -1.844940 -1.780285 0
M  V30 65 H -2.032460 1.726622 0.280733 0
M  V30 66 H -0.681742 1.038676 1.208423 0
M  V30 END ATOM
M  V30 BEGIN BOND
M  V30 1 1 1 2
M  V30 2 1 2 3
M  V30 3 2 3 4
M  V30 4 1 4 5
M  V30 5 2 5 6
M  V30 6 1 6 7
M  V30 7 1 7 8
M  V30 8 2 7 9
M  V30 9 1 9 10
M  V30 10 1 10 11
M  V30 11 1 11 12
M  V30 12 1 12 13
M  V30 13 1 13 14
M  V30 14 1 14 15
M  V30 15 1 15 16
M  V30 16 1 16 17
M  V30 17 2 17 18
M  V30 18 1 17 19
M  V30 19 2 19 20
M  V30 20 1 20 21
M  V30 21 2 21 22
M  V30 22 1 22 23
M  V30 23 1 23 24
M  V30 24 2 24 25
M  V30 25 1 25 26
M  V30 26 2 26 27
M  V30 27 1 27 28
M  V30 28 2 28 29
M  V30 29 1 29 30
M  V30 30 2 30 31
M  V30 31 1 31 32
M  V30 32 1 31 33
M  V30 33 1 33 34
M  V30 34 2 34 35
M  V30 35 1 25 36
M  V30 36 2 36 37
M  V30 37 1 15 38
M  V30 38 1 9 3
M  V30 39 1 38 11
M  V30 40 1 37 19
M  V30 41 1 36 22
M  V30 42 1 35 26
M  V30 43 1 34 29
M  V30 44 1 1 39
M  V30 45 1 1 40
M  V30 46 1 1 41
M  V30 47 1 4 42
M  V30 48 1 5 43
M  V30 49 1 6 44
M  V30 50 1 10 45
M  V30 51 1 10 46
M  V30 52 1 12 47
M  V30 53 1 12 48
M  V30 54 1 13 49
M  V30 55 1 13 50
M  V30 56 1 14 51
M  V30 57 1 14 52
M  V30 58 1 15 53 CFG=3
M  V30 59 1 16 54
M  V30 60 1 20 55
M  V30 61 1 21 56
M  V30 62 1 23 57
M  V30 63 1 27 58
M  V30 64 1 28 59
M  V30 65 1 32 60
M  V30 66 1 32 61
M  V30 67 1 32 62
M  V30 68 1 35 63
M  V30 69 1 37 64
M  V30 70 1 38 65
M  V30 71 1 38 66
M  V30 END BOND
M  V30 END CTAB
M  END
>  <Dataset>  (428) 
ChEMBL_Kinases

>  <Ligand_Instance>  (428) 
nan

>  <PDB_ID>  (428) 
nan

>  <Standardized_SMILES>  (428) 
COc1cccc(F)c1CN1CCC[C@@H](NC(=O)c2ccc3[nH]nc(-c4ccc5nc(C)sc5c4)c3c2)C1

>  <Name>  (428) 
nan

>  <Pocket>  (428) 
nan

>  <ATP_Site>  (428) 
nan

>  <Peripheral>  (428) 
nan

>  <Num_H_Atoms_ProtBoundConf>  (428) 
nan

>  <Num_Resolved_Atoms>  (428) 
nan

>  <Num_Not_Resolved_Atoms>  (428) 
nan

$$$$
CHEMBL3654527
     RDKit          3D

  0  0  0  0  0  0  0  0  0  0999 V3000
M  V30 BEGIN CTAB
M  V30 COUNTS 62 66 0 0 0
M  V30 BEGIN ATOM
M  V30 1 C 2.655987 0.077922 4.417221 0
M  V30 2 O 3.003209 0.640963 3.175895 0
M  V30 3 C 4.006743 1.585321 3.014379 0
M  V30 4 C 4.724811 2.020137 4.108364 0
M  V30 5 C 5.724414 2.958745 3.957432 0
M  V30 6 C 5.989485 3.450739 2.696339 0
M  V30 7 C 5.250571 2.993020 1.621724 0
M  V30 8 F 5.606159 3.554641 0.422554 0
M  V30 9 C 4.233640 2.046420 1.734110 0
M  V30 10 C 3.497211 1.620411 0.515900 0
M  V30 11 N 2.187421 2.188137 0.395660 0
M  V30 12 C 0.968307 1.598525 0.920236 0
M  V30 13 C -0.016161 1.593561 -0.257759 0 CFG=1
M  V30 14 N -1.122162 0.762731 0.142296 0
M  V30 15 C -1.505059 -0.508898 -0.369534 0
M  V30 16 O -0.752690 -0.930756 -1.294218 0
M  V30 17 C -2.647124 -1.232237 0.132943 0
M  V30 18 C -3.491306 -0.802970 1.135348 0
M  V30 19 C -4.576719 -1.547420 1.577074 0
M  V30 20 C -4.828598 -2.783736 0.984663 0
M  V30 21 N -5.798798 -3.675800 1.231774 0
M  V30 22 N -5.593263 -4.681470 0.399169 0
M  V30 23 C -4.533371 -4.470834 -0.369620 0
M  V30 24 C -3.993879 -5.348324 -1.403814 0
M  V30 25 C -4.877978 -5.936170 -2.302794 0
M  V30 26 C -4.406440 -6.772111 -3.294776 0
M  V30 27 N -3.074917 -7.026268 -3.399533 0
M  V30 28 C -2.203537 -6.458851 -2.528801 0
M  V30 29 C -0.756406 -6.756430 -2.669895 0
M  V30 30 C -2.644326 -5.622749 -1.531516 0
M  V30 31 C -3.998705 -3.237590 -0.021464 0
M  V30 32 C -2.933312 -2.464219 -0.427236 0
M  V30 33 C -0.419733 2.998595 -0.632879 0
M  V30 34 C 0.607934 4.018359 -0.181726 0
M  V30 35 C 1.996599 3.443851 -0.290999 0
M  V30 36 O 2.904885 4.001191 -0.918963 0
M  V30 37 H 3.332136 -0.808108 4.571833 0
M  V30 38 H 1.584562 -0.258759 4.332795 0
M  V30 39 H 2.713895 0.767685 5.266130 0
M  V30 40 H 4.541317 1.656253 5.095958 0
M  V30 41 H 6.301693 3.315765 4.800574 0
M  V30 42 H 6.776045 4.186091 2.595247 0
M  V30 43 H 3.468026 0.490517 0.523996 0
M  V30 44 H 4.146293 1.845308 -0.368104 0
M  V30 45 H 1.085178 0.533349 1.210784 0
M  V30 46 H 0.562924 2.232197 1.717632 0
M  V30 47 H 0.521672 1.063637 -1.076226 0
M  V30 48 H -1.672671 1.210527 0.910577 0
M  V30 49 H -3.284961 0.160554 1.588612 0
M  V30 50 H -5.169436 -1.110840 2.368979 0
M  V30 51 H -6.541166 -3.545243 1.952156 0
M  V30 52 H -5.965608 -5.783373 -2.286896 0
M  V30 53 H -5.023375 -7.275481 -4.041263 0
M  V30 54 H -0.564053 -7.814355 -2.936403 0
M  V30 55 H -0.244191 -6.464971 -1.714531 0
M  V30 56 H -0.349601 -6.071501 -3.450680 0
M  V30 57 H -1.946083 -5.188141 -0.859286 0
M  V30 58 H -2.294274 -2.843765 -1.222125 0
M  V30 59 H -1.411316 3.249096 -0.205600 0
M  V30 60 H -0.519947 3.065862 -1.744429 0
M  V30 61 H 0.386229 4.376718 0.830729 0
M  V30 62 H 0.582641 4.892305 -0.864301 0
M  V30 END ATOM
M  V30 BEGIN BOND
M  V30 1 1 1 2
M  V30 2 1 2 3
M  V30 3 2 3 4
M  V30 4 1 4 5
M  V30 5 2 5 6
M  V30 6 1 6 7
M  V30 7 1 7 8
M  V30 8 2 7 9
M  V30 9 1 9 10
M  V30 10 1 10 11
M  V30 11 1 11 12
M  V30 12 1 12 13
M  V30 13 1 13 14
M  V30 14 1 14 15
M  V30 15 2 15 16
M  V30 16 1 15 17
M  V30 17 2 17 18
M  V30 18 1 18 19
M  V30 19 2 19 20
M  V30 20 1 20 21
M  V30 21 1 21 22
M  V30 22 2 22 23
M  V30 23 1 23 24
M  V30 24 2 24 25
M  V30 25 1 25 26
M  V30 26 2 26 27
M  V30 27 1 27 28
M  V30 28 1 28 29
M  V30 29 2 28 30
M  V30 30 1 23 31
M  V30 31 2 31 32
M  V30 32 1 13 33
M  V30 33 1 33 34
M  V30 34 1 34 35
M  V30 35 2 35 36
M  V30 36 1 9 3
M  V30 37 1 35 11
M  V30 38 1 32 17
M  V30 39 1 31 20
M  V30 40 1 30 24
M  V30 41 1 1 37
M  V30 42 1 1 38
M  V30 43 1 1 39
M  V30 44 1 4 40
M  V30 45 1 5 41
M  V30 46 1 6 42
M  V30 47 1 10 43
M  V30 48 1 10 44
M  V30 49 1 12 45
M  V30 50 1 12 46
M  V30 51 1 13 47 CFG=3
M  V30 52 1 14 48
M  V30 53 1 18 49
M  V30 54 1 19 50
M  V30 55 1 21 51
M  V30 56 1 25 52
M  V30 57 1 26 53
M  V30 58 1 29 54
M  V30 59 1 29 55
M  V30 60 1 29 56
M  V30 61 1 30 57
M  V30 62 1 32 58
M  V30 63 1 33 59
M  V30 64 1 33 60
M  V30 65 1 34 61
M  V30 66 1 34 62
M  V30 END BOND
M  V30 END CTAB
M  END
>  <Dataset>  (429) 
ChEMBL_Kinases

>  <Ligand_Instance>  (429) 
nan

>  <PDB_ID>  (429) 
nan

>  <Standardized_SMILES>  (429) 
COc1cccc(F)c1CN1C[C@@H](NC(=O)c2ccc3[nH]nc(-c4ccnc(C)c4)c3c2)CCC1=O

>  <Name>  (429) 
nan

>  <Pocket>  (429) 
nan

>  <ATP_Site>  (429) 
nan

>  <Peripheral>  (429) 
nan

>  <Num_H_Atoms_ProtBoundConf>  (429) 
nan

>  <Num_Resolved_Atoms>  (429) 
nan

>  <Num_Not_Resolved_Atoms>  (429) 
nan

$$$$
CHEMBL3654528
     RDKit          3D

  0  0  0  0  0  0  0  0  0  0999 V3000
M  V30 BEGIN CTAB
M  V30 COUNTS 63 68 0 0 0
M  V30 BEGIN ATOM
M  V30 1 C 2.748358 -1.316794 3.230929 0
M  V30 2 O 2.370346 -0.005598 3.574769 0
M  V30 3 C 3.334875 0.989373 3.502552 0
M  V30 4 C 4.632126 0.718950 3.107105 0
M  V30 5 C 5.608463 1.688631 3.027163 0
M  V30 6 C 5.267369 2.984416 3.358304 0
M  V30 7 C 3.961110 3.266040 3.758174 0
M  V30 8 F 3.792137 4.578426 4.047775 0
M  V30 9 C 2.984886 2.279362 3.834935 0
M  V30 10 C 1.647440 2.692142 4.268276 0
M  V30 11 N 0.677451 2.784286 3.183677 0
M  V30 12 C -0.232414 1.820051 2.620870 0
M  V30 13 C -0.072275 1.648979 1.138321 0 CFG=1
M  V30 14 N -1.260524 1.122218 0.507964 0
M  V30 15 C -1.324301 -0.134387 -0.152808 0
M  V30 16 O -0.239921 -0.775777 -0.150853 0
M  V30 17 C -2.560209 -0.610423 -0.770933 0
M  V30 18 C -3.756649 0.078127 -0.786219 0
M  V30 19 C -4.862805 -0.477287 -1.403559 0
M  V30 20 C -4.800263 -1.721667 -2.014314 0
M  V30 21 N -5.726835 -2.447175 -2.663108 0
M  V30 22 N -5.173963 -3.564273 -3.060351 0
M  V30 23 C -3.891775 -3.573840 -2.675457 0
M  V30 24 C -2.949855 -4.654332 -2.935932 0
M  V30 25 C -2.876658 -5.245130 -4.197781 0
M  V30 26 C -1.996239 -6.278658 -4.499029 0
M  V30 27 C -1.193670 -6.692292 -3.479139 0
M  V30 28 N -0.260978 -7.668407 -3.507636 0
M  V30 29 C 0.280748 -7.727174 -2.279361 0
M  V30 30 C -0.305252 -6.785258 -1.456658 0
M  V30 31 N -1.211726 -6.164594 -2.232292 0
M  V30 32 C -2.079680 -5.169584 -1.993651 0
M  V30 33 C -3.599288 -2.408846 -1.996981 0
M  V30 34 C -2.486861 -1.866310 -1.384219 0
M  V30 35 C 0.351839 2.884957 0.426804 0
M  V30 36 C -0.049652 4.151675 1.153566 0
M  V30 37 C 0.574098 4.063532 2.522052 0
M  V30 38 O 0.981326 5.146582 3.023530 0
M  V30 39 H 3.248587 -1.327299 2.238963 0
M  V30 40 H 1.820720 -1.928953 3.130938 0
M  V30 41 H 3.342302 -1.804685 4.018021 0
M  V30 42 H 4.902075 -0.300766 2.846591 0
M  V30 43 H 6.606930 1.382386 2.704654 0
M  V30 44 H 6.058023 3.701856 3.280968 0
M  V30 45 H 1.245606 1.951671 5.014753 0
M  V30 46 H 1.649067 3.653980 4.816973 0
M  V30 47 H -0.199119 0.862486 3.174808 0
M  V30 48 H -1.267548 2.206041 2.780401 0
M  V30 49 H 0.726322 0.865925 0.977888 0
M  V30 50 H -2.089192 1.749802 0.576332 0
M  V30 51 H -3.784044 1.040802 -0.307506 0
M  V30 52 H -5.805293 0.073985 -1.411090 0
M  V30 53 H -6.721038 -2.153403 -2.816501 0
M  V30 54 H -3.564349 -4.840391 -4.948442 0
M  V30 55 H -1.981068 -6.698201 -5.487996 0
M  V30 56 H 1.068200 -8.399674 -1.931724 0
M  V30 57 H -0.128634 -6.542366 -0.414643 0
M  V30 58 H -2.098417 -4.747394 -1.007331 0
M  V30 59 H -1.561223 -2.437690 -1.392061 0
M  V30 60 H 1.442756 2.978848 0.245560 0
M  V30 61 H -0.125960 2.919891 -0.573402 0
M  V30 62 H -1.148790 4.267185 1.237881 0
M  V30 63 H 0.407843 4.983456 0.619775 0
M  V30 END ATOM
M  V30 BEGIN BOND
M  V30 1 1 1 2
M  V30 2 1 2 3
M  V30 3 2 3 4
M  V30 4 1 4 5
M  V30 5 2 5 6
M  V30 6 1 6 7
M  V30 7 1 7 8
M  V30 8 2 7 9
M  V30 9 1 9 10
M  V30 10 1 10 11
M  V30 11 1 11 12
M  V30 12 1 12 13
M  V30 13 1 13 14
M  V30 14 1 14 15
M  V30 15 2 15 16
M  V30 16 1 15 17
M  V30 17 2 17 18
M  V30 18 1 18 19
M  V30 19 2 19 20
M  V30 20 1 20 21
M  V30 21 1 21 22
M  V30 22 2 22 23
M  V30 23 1 23 24
M  V30 24 1 24 25
M  V30 25 2 25 26
M  V30 26 1 26 27
M  V30 27 2 27 28
M  V30 28 1 28 29
M  V30 29 2 29 30
M  V30 30 1 30 31
M  V30 31 1 31 32
M  V30 32 1 23 33
M  V30 33 2 33 34
M  V30 34 1 13 35
M  V30 35 1 35 36
M  V30 36 1 36 37
M  V30 37 2 37 38
M  V30 38 1 9 3
M  V30 39 1 37 11
M  V30 40 1 34 17
M  V30 41 1 33 20
M  V30 42 2 32 24
M  V30 43 1 31 27
M  V30 44 1 1 39
M  V30 45 1 1 40
M  V30 46 1 1 41
M  V30 47 1 4 42
M  V30 48 1 5 43
M  V30 49 1 6 44
M  V30 50 1 10 45
M  V30 51 1 10 46
M  V30 52 1 12 47
M  V30 53 1 12 48
M  V30 54 1 13 49 CFG=1
M  V30 55 1 14 50
M  V30 56 1 18 51
M  V30 57 1 19 52
M  V30 58 1 21 53
M  V30 59 1 25 54
M  V30 60 1 26 55
M  V30 61 1 29 56
M  V30 62 1 30 57
M  V30 63 1 32 58
M  V30 64 1 34 59
M  V30 65 1 35 60
M  V30 66 1 35 61
M  V30 67 1 36 62
M  V30 68 1 36 63
M  V30 END BOND
M  V30 END CTAB
M  END
>  <Dataset>  (430) 
ChEMBL_Kinases

>  <Ligand_Instance>  (430) 
nan

>  <PDB_ID>  (430) 
nan

>  <Standardized_SMILES>  (430) 
COc1cccc(F)c1CN1C[C@@H](NC(=O)c2ccc3[nH]nc(-c4ccc5nccn5c4)c3c2)CCC1=O

>  <Name>  (430) 
nan

>  <Pocket>  (430) 
nan

>  <ATP_Site>  (430) 
nan

>  <Peripheral>  (430) 
nan

>  <Num_H_Atoms_ProtBoundConf>  (430) 
nan

>  <Num_Resolved_Atoms>  (430) 
nan

>  <Num_Not_Resolved_Atoms>  (430) 
nan

$$$$
CHEMBL3654529
     RDKit          3D

  0  0  0  0  0  0  0  0  0  0999 V3000
M  V30 BEGIN CTAB
M  V30 COUNTS 69 73 0 0 0
M  V30 BEGIN ATOM
M  V30 1 C 5.911963 -3.626582 2.751018 0
M  V30 2 O 4.701732 -2.872810 2.682475 0
M  V30 3 C 3.585102 -3.317917 3.402063 0
M  V30 4 O 3.772890 -4.378642 4.059772 0
M  V30 5 C 2.309969 -2.529083 3.334174 0
M  V30 6 C 1.846545 -2.473077 1.934325 0
M  V30 7 C 1.254542 -1.148954 1.493112 0
M  V30 8 N 1.037625 -1.148675 0.084540 0
M  V30 9 C -0.214422 -1.171577 -0.574652 0
M  V30 10 O -1.214303 -1.196099 0.190714 0
M  V30 11 C -0.384813 -1.168921 -2.024204 0
M  V30 12 C 0.710413 -1.074890 -2.867191 0
M  V30 13 C 0.585346 -1.075672 -4.246133 0
M  V30 14 C -0.687323 -1.174750 -4.780749 0
M  V30 15 N -1.099802 -1.200711 -6.059163 0
M  V30 16 N -2.416247 -1.308222 -6.069500 0
M  V30 17 C -2.877258 -1.353579 -4.788851 0
M  V30 18 C -4.280312 -1.473882 -4.408283 0
M  V30 19 C -4.960058 -0.764951 -3.443300 0
M  V30 20 C -6.296990 -1.042320 -3.244876 0
M  V30 21 N -6.955064 -1.977334 -3.958962 0
M  V30 22 C -6.309803 -2.675208 -4.900356 0
M  V30 23 C -7.100527 -3.680181 -5.638777 0
M  V30 24 C -4.961447 -2.428655 -5.134087 0
M  V30 25 C -1.777784 -1.268613 -3.927487 0
M  V30 26 C -1.657324 -1.268025 -2.540750 0
M  V30 27 C 2.175432 -0.094837 2.015972 0
M  V30 28 N 2.023419 -0.061914 3.417817 0
M  V30 29 C 0.839691 0.467680 3.983953 0
M  V30 30 C 0.487567 1.848722 3.678981 0
M  V30 31 C -0.138555 2.348753 2.561351 0
M  V30 32 F -0.546141 1.478456 1.612024 0
M  V30 33 C -0.420017 3.669377 2.317365 0
M  V30 34 C -0.063701 4.608161 3.244133 0
M  V30 35 C 0.561252 4.211148 4.386194 0
M  V30 36 C 0.829163 2.855782 4.593822 0
M  V30 37 O 1.466696 2.461911 5.760860 0
M  V30 38 C 1.834112 3.408920 6.712671 0
M  V30 39 C 2.452759 -1.259939 4.092620 0
M  V30 40 H 6.798383 -2.987791 2.913224 0
M  V30 41 H 6.034459 -4.170181 1.785659 0
M  V30 42 H 5.875821 -4.400003 3.561410 0
M  V30 43 H 1.566190 -3.166306 3.889109 0
M  V30 44 H 2.687807 -2.681663 1.214651 0
M  V30 45 H 1.070448 -3.245890 1.676393 0
M  V30 46 H 0.256967 -1.097644 1.999493 0
M  V30 47 H 1.910376 -1.129276 -0.485769 0
M  V30 48 H 1.710552 -0.996171 -2.507582 0
M  V30 49 H 1.414912 -1.003547 -4.938698 0
M  V30 50 H -0.505900 -1.147105 -6.920574 0
M  V30 51 H -4.368682 -0.040740 -2.919727 0
M  V30 52 H -6.769805 -0.457351 -2.479820 0
M  V30 53 H -7.531771 -4.459441 -4.980174 0
M  V30 54 H -6.499446 -4.212100 -6.416390 0
M  V30 55 H -7.960923 -3.202067 -6.189174 0
M  V30 56 H -4.564248 -3.068059 -5.926599 0
M  V30 57 H -2.554079 -1.344320 -1.956834 0
M  V30 58 H 1.990601 0.861991 1.547903 0
M  V30 59 H 3.231159 -0.456719 1.820563 0
M  V30 60 H 0.968927 0.388013 5.108120 0
M  V30 61 H -0.066469 -0.159976 3.801670 0
M  V30 62 H -0.909292 4.003999 1.428753 0
M  V30 63 H -0.253437 5.650865 3.114956 0
M  V30 64 H 0.861447 4.917244 5.147270 0
M  V30 65 H 2.445730 4.199082 6.210386 0
M  V30 66 H 0.918329 3.883711 7.116975 0
M  V30 67 H 2.389474 2.962012 7.564791 0
M  V30 68 H 1.914168 -1.278475 5.075583 0
M  V30 69 H 3.522812 -1.110760 4.346122 0
M  V30 END ATOM
M  V30 BEGIN BOND
M  V30 1 1 1 2
M  V30 2 1 2 3
M  V30 3 2 3 4
M  V30 4 1 3 5
M  V30 5 1 5 6
M  V30 6 1 6 7
M  V30 7 1 7 8
M  V30 8 1 8 9
M  V30 9 2 9 10
M  V30 10 1 9 11
M  V30 11 2 11 12
M  V30 12 1 12 13
M  V30 13 2 13 14
M  V30 14 1 14 15
M  V30 15 1 15 16
M  V30 16 2 16 17
M  V30 17 1 17 18
M  V30 18 2 18 19
M  V30 19 1 19 20
M  V30 20 2 20 21
M  V30 21 1 21 22
M  V30 22 1 22 23
M  V30 23 2 22 24
M  V30 24 1 17 25
M  V30 25 2 25 26
M  V30 26 1 7 27
M  V30 27 1 27 28
M  V30 28 1 28 29
M  V30 29 1 29 30
M  V30 30 2 30 31
M  V30 31 1 31 32
M  V30 32 1 31 33
M  V30 33 2 33 34
M  V30 34 1 34 35
M  V30 35 2 35 36
M  V30 36 1 36 37
M  V30 37 1 37 38
M  V30 38 1 28 39
M  V30 39 1 39 5
M  V30 40 1 26 11
M  V30 41 1 36 30
M  V30 42 1 25 14
M  V30 43 1 24 18
M  V30 44 1 1 40
M  V30 45 1 1 41
M  V30 46 1 1 42
M  V30 47 1 5 43
M  V30 48 1 6 44
M  V30 49 1 6 45
M  V30 50 1 7 46
M  V30 51 1 8 47
M  V30 52 1 12 48
M  V30 53 1 13 49
M  V30 54 1 15 50
M  V30 55 1 19 51
M  V30 56 1 20 52
M  V30 57 1 23 53
M  V30 58 1 23 54
M  V30 59 1 23 55
M  V30 60 1 24 56
M  V30 61 1 26 57
M  V30 62 1 27 58
M  V30 63 1 27 59
M  V30 64 1 29 60
M  V30 65 1 29 61
M  V30 66 1 33 62
M  V30 67 1 34 63
M  V30 68 1 35 64
M  V30 69 1 38 65
M  V30 70 1 38 66
M  V30 71 1 38 67
M  V30 72 1 39 68
M  V30 73 1 39 69
M  V30 END BOND
M  V30 END CTAB
M  END
>  <Dataset>  (431) 
ChEMBL_Kinases

>  <Ligand_Instance>  (431) 
nan

>  <PDB_ID>  (431) 
nan

>  <Standardized_SMILES>  (431) 
COC(=O)C1CC(NC(=O)c2ccc3[nH]nc(-c4ccnc(C)c4)c3c2)CN(Cc2c(F)cccc2OC)C1

>  <Name>  (431) 
nan

>  <Pocket>  (431) 
nan

>  <ATP_Site>  (431) 
nan

>  <Peripheral>  (431) 
nan

>  <Num_H_Atoms_ProtBoundConf>  (431) 
nan

>  <Num_Resolved_Atoms>  (431) 
nan

>  <Num_Not_Resolved_Atoms>  (431) 
nan

$$$$
CHEMBL3654530
     RDKit          3D

  0  0  0  0  0  0  0  0  0  0999 V3000
M  V30 BEGIN CTAB
M  V30 COUNTS 58 62 0 0 0
M  V30 BEGIN ATOM
M  V30 1 C 2.229489 -3.651958 5.363981 0
M  V30 2 C 2.170709 -3.279011 3.920068 0
M  V30 3 C 3.095582 -2.348855 3.479436 0
M  V30 4 C 3.117351 -1.941161 2.159274 0
M  V30 5 C 4.039856 -0.975069 1.570973 0
M  V30 6 N 5.393731 -0.893843 1.719411 0
M  V30 7 N 5.884691 0.116325 1.035264 0
M  V30 8 C 4.900919 0.771710 0.390042 0
M  V30 9 C 4.845557 1.886303 -0.455679 0
M  V30 10 C 3.614109 2.309248 -0.962479 0
M  V30 11 C 2.440191 1.642936 -0.642271 0
M  V30 12 C 1.186354 2.130434 -1.201111 0
M  V30 13 O 1.247043 3.133408 -1.955243 0
M  V30 14 N -0.049650 1.499112 -0.905713 0
M  V30 15 C -1.371975 1.862562 -1.380097 0 CFG=2
M  V30 16 C -2.117447 2.393689 -0.181692 0
M  V30 17 C -2.646319 1.217931 0.649248 0
M  V30 18 C -3.660005 0.557472 -0.261955 0
M  V30 19 N -2.998622 0.004568 -1.366820 0
M  V30 20 C -3.708801 -0.988048 -2.108054 0
M  V30 21 C -4.027399 -2.124533 -1.204112 0
M  V30 22 N -5.231302 -2.425480 -0.640200 0
M  V30 23 C -5.309156 -3.505723 0.153815 0
M  V30 24 C -4.241941 -4.330800 0.433725 0
M  V30 25 C -3.006410 -4.054308 -0.121842 0
M  V30 26 C -2.940415 -2.925776 -0.946976 0
M  V30 27 F -1.685120 -2.720478 -1.457423 0
M  V30 28 C -2.001098 0.705477 -2.039438 0
M  V30 29 C 2.560940 0.555336 0.192988 0
M  V30 30 C 3.746722 0.093943 0.721436 0
M  V30 31 C 2.174248 -2.513301 1.330031 0
M  V30 32 C 1.243953 -3.448943 1.773570 0
M  V30 33 N 1.266843 -3.812104 3.074054 0
M  V30 34 H 2.034060 -2.693372 5.920156 0
M  V30 35 H 1.394541 -4.327743 5.579535 0
M  V30 36 H 3.216916 -4.008692 5.656620 0
M  V30 37 H 3.838584 -1.897602 4.129901 0
M  V30 38 H 6.900144 0.377926 0.995713 0
M  V30 39 H 5.763859 2.406575 -0.705475 0
M  V30 40 H 3.665588 3.185854 -1.613110 0
M  V30 41 H -0.126824 0.670472 -0.286846 0
M  V30 42 H -1.210425 2.762049 -2.043852 0
M  V30 43 H -1.482539 3.003543 0.479499 0
M  V30 44 H -2.998469 3.002276 -0.471507 0
M  V30 45 H -3.132839 1.628967 1.557366 0
M  V30 46 H -1.794545 0.574405 0.885238 0
M  V30 47 H -4.143825 -0.246118 0.349569 0
M  V30 48 H -4.418797 1.352956 -0.491645 0
M  V30 49 H -3.093846 -1.346188 -2.945065 0
M  V30 50 H -4.672779 -0.607501 -2.530699 0
M  V30 51 H -6.253654 -3.756704 0.606773 0
M  V30 52 H -4.339110 -5.189552 1.075285 0
M  V30 53 H -2.166854 -4.695737 0.093040 0
M  V30 54 H -2.391592 1.060227 -3.037345 0
M  V30 55 H -1.197997 -0.034331 -2.330229 0
M  V30 56 H 1.652114 0.031051 0.449933 0
M  V30 57 H 2.044885 -2.315767 0.268079 0
M  V30 58 H 0.495386 -3.915908 1.160120 0
M  V30 END ATOM
M  V30 BEGIN BOND
M  V30 1 1 1 2
M  V30 2 2 2 3
M  V30 3 1 3 4
M  V30 4 1 4 5
M  V30 5 2 5 6
M  V30 6 1 6 7
M  V30 7 1 7 8
M  V30 8 2 8 9
M  V30 9 1 9 10
M  V30 10 2 10 11
M  V30 11 1 11 12
M  V30 12 2 12 13
M  V30 13 1 12 14
M  V30 14 1 14 15
M  V30 15 1 15 16
M  V30 16 1 16 17
M  V30 17 1 17 18
M  V30 18 1 18 19
M  V30 19 1 19 20
M  V30 20 1 20 21
M  V30 21 2 21 22
M  V30 22 1 22 23
M  V30 23 2 23 24
M  V30 24 1 24 25
M  V30 25 2 25 26
M  V30 26 1 26 27
M  V30 27 1 19 28
M  V30 28 1 11 29
M  V30 29 2 29 30
M  V30 30 2 4 31
M  V30 31 1 31 32
M  V30 32 2 32 33
M  V30 33 1 33 2
M  V30 34 1 30 5
M  V30 35 1 30 8
M  V30 36 1 28 15
M  V30 37 1 26 21
M  V30 38 1 1 34
M  V30 39 1 1 35
M  V30 40 1 1 36
M  V30 41 1 3 37
M  V30 42 1 7 38
M  V30 43 1 9 39
M  V30 44 1 10 40
M  V30 45 1 14 41
M  V30 46 1 15 42 CFG=3
M  V30 47 1 16 43
M  V30 48 1 16 44
M  V30 49 1 17 45
M  V30 50 1 17 46
M  V30 51 1 18 47
M  V30 52 1 18 48
M  V30 53 1 20 49
M  V30 54 1 20 50
M  V30 55 1 23 51
M  V30 56 1 24 52
M  V30 57 1 25 53
M  V30 58 1 28 54
M  V30 59 1 28 55
M  V30 60 1 29 56
M  V30 61 1 31 57
M  V30 62 1 32 58
M  V30 END BOND
M  V30 END CTAB
M  END
>  <Dataset>  (432) 
ChEMBL_Kinases

>  <Ligand_Instance>  (432) 
nan

>  <PDB_ID>  (432) 
nan

>  <Standardized_SMILES>  (432) 
Cc1cc(-c2n[nH]c3ccc(C(=O)N[C@@H]4CCCN(Cc5ncccc5F)C4)cc23)ccn1

>  <Name>  (432) 
nan

>  <Pocket>  (432) 
nan

>  <ATP_Site>  (432) 
nan

>  <Peripheral>  (432) 
nan

>  <Num_H_Atoms_ProtBoundConf>  (432) 
nan

>  <Num_Resolved_Atoms>  (432) 
nan

>  <Num_Not_Resolved_Atoms>  (432) 
nan

$$$$
CHEMBL3654531
     RDKit          3D

  0  0  0  0  0  0  0  0  0  0999 V3000
M  V30 BEGIN CTAB
M  V30 COUNTS 58 62 0 0 0
M  V30 BEGIN ATOM
M  V30 1 C 2.381860 -5.549805 6.341782 0
M  V30 2 C 2.101734 -5.213493 4.929535 0
M  V30 3 C 3.018583 -4.488086 4.191398 0
M  V30 4 C 2.864391 -4.111580 2.853176 0
M  V30 5 C 3.952624 -3.345704 2.256731 0
M  V30 6 N 5.256272 -3.688651 2.428515 0
M  V30 7 N 6.023872 -2.823371 1.781655 0
M  V30 8 C 5.249272 -1.906163 1.179477 0
M  V30 9 C 5.465617 -0.795905 0.390784 0
M  V30 10 C 4.426081 -0.019042 -0.098323 0
M  V30 11 C 3.145040 -0.399834 0.235547 0
M  V30 12 C 2.077819 0.446456 -0.298119 0
M  V30 13 O 2.362919 1.456712 -0.992924 0
M  V30 14 N 0.696352 0.223373 -0.095829 0
M  V30 15 C -0.322471 1.065483 -0.626910 0 CFG=2
M  V30 16 C -1.004431 1.691716 0.601365 0
M  V30 17 C -1.959023 2.698877 0.067393 0
M  V30 18 C -2.988097 2.099616 -0.875019 0
M  V30 19 N -2.469719 1.191347 -1.820098 0
M  V30 20 C -3.489241 0.472241 -2.507662 0
M  V30 21 C -4.479948 1.200930 -3.239508 0
M  V30 22 S -4.358261 1.460748 -4.995425 0
M  V30 23 C -5.932434 2.464342 -5.095529 0
M  V30 24 N -6.347391 2.496137 -3.908088 0
M  V30 25 C -5.656335 1.879589 -2.947307 0
M  V30 26 C -6.222838 1.934672 -1.555621 0
M  V30 27 C -1.381888 0.382902 -1.397911 0
M  V30 28 C 2.811739 -1.487308 1.014511 0
M  V30 29 C 3.929539 -2.197461 1.453024 0
M  V30 30 C 1.687126 -4.518416 2.262138 0
M  V30 31 C 0.769292 -5.241865 2.993175 0
M  V30 32 N 0.987329 -5.567698 4.279316 0
M  V30 33 H 2.570197 -6.629371 6.521583 0
M  V30 34 H 1.531348 -5.287882 7.011975 0
M  V30 35 H 3.239736 -4.923086 6.691361 0
M  V30 36 H 3.938195 -4.193701 4.721948 0
M  V30 37 H 7.062131 -2.859867 1.753216 0
M  V30 38 H 6.502026 -0.555407 0.167410 0
M  V30 39 H 4.650089 0.841773 -0.712668 0
M  V30 40 H 0.389768 -0.596677 0.469371 0
M  V30 41 H 0.071157 1.924018 -1.213729 0
M  V30 42 H -1.451869 0.886857 1.187397 0
M  V30 43 H -0.204975 2.248937 1.147513 0
M  V30 44 H -1.356876 3.417456 -0.558690 0
M  V30 45 H -2.424103 3.239012 0.892646 0
M  V30 46 H -3.572463 2.939693 -1.357742 0
M  V30 47 H -3.711076 1.581081 -0.215835 0
M  V30 48 H -3.034196 -0.309357 -3.192347 0
M  V30 49 H -4.017511 -0.153518 -1.744439 0
M  V30 50 H -6.390947 2.916545 -5.957410 0
M  V30 51 H -5.939566 2.848174 -1.015331 0
M  V30 52 H -5.896874 1.009907 -1.021735 0
M  V30 53 H -7.339348 1.926309 -1.551465 0
M  V30 54 H -0.898136 -0.162173 -2.233124 0
M  V30 55 H -1.827737 -0.403548 -0.720914 0
M  V30 56 H 1.820894 -1.784955 1.274646 0
M  V30 57 H 1.578168 -4.221959 1.227945 0
M  V30 58 H -0.138811 -5.546874 2.510433 0
M  V30 END ATOM
M  V30 BEGIN BOND
M  V30 1 1 1 2
M  V30 2 2 2 3
M  V30 3 1 3 4
M  V30 4 1 4 5
M  V30 5 2 5 6
M  V30 6 1 6 7
M  V30 7 1 7 8
M  V30 8 2 8 9
M  V30 9 1 9 10
M  V30 10 2 10 11
M  V30 11 1 11 12
M  V30 12 2 12 13
M  V30 13 1 12 14
M  V30 14 1 14 15
M  V30 15 1 15 16
M  V30 16 1 16 17
M  V30 17 1 17 18
M  V30 18 1 18 19
M  V30 19 1 19 20
M  V30 20 1 20 21
M  V30 21 1 21 22
M  V30 22 1 22 23
M  V30 23 2 23 24
M  V30 24 1 24 25
M  V30 25 1 25 26
M  V30 26 1 19 27
M  V30 27 1 11 28
M  V30 28 2 28 29
M  V30 29 2 4 30
M  V30 30 1 30 31
M  V30 31 2 31 32
M  V30 32 1 32 2
M  V30 33 1 29 5
M  V30 34 1 29 8
M  V30 35 1 27 15
M  V30 36 2 25 21
M  V30 37 1 1 33
M  V30 38 1 1 34
M  V30 39 1 1 35
M  V30 40 1 3 36
M  V30 41 1 7 37
M  V30 42 1 9 38
M  V30 43 1 10 39
M  V30 44 1 14 40
M  V30 45 1 15 41 CFG=3
M  V30 46 1 16 42
M  V30 47 1 16 43
M  V30 48 1 17 44
M  V30 49 1 17 45
M  V30 50 1 18 46
M  V30 51 1 18 47
M  V30 52 1 20 48
M  V30 53 1 20 49
M  V30 54 1 23 50
M  V30 55 1 26 51
M  V30 56 1 26 52
M  V30 57 1 26 53
M  V30 58 1 27 54
M  V30 59 1 27 55
M  V30 60 1 28 56
M  V30 61 1 30 57
M  V30 62 1 31 58
M  V30 END BOND
M  V30 END CTAB
M  END
>  <Dataset>  (433) 
ChEMBL_Kinases

>  <Ligand_Instance>  (433) 
nan

>  <PDB_ID>  (433) 
nan

>  <Standardized_SMILES>  (433) 
Cc1cc(-c2n[nH]c3ccc(C(=O)N[C@@H]4CCCN(Cc5scnc5C)C4)cc23)ccn1

>  <Name>  (433) 
nan

>  <Pocket>  (433) 
nan

>  <ATP_Site>  (433) 
nan

>  <Peripheral>  (433) 
nan

>  <Num_H_Atoms_ProtBoundConf>  (433) 
nan

>  <Num_Resolved_Atoms>  (433) 
nan

>  <Num_Not_Resolved_Atoms>  (433) 
nan

$$$$
CHEMBL3654532
     RDKit          3D

  0  0  0  0  0  0  0  0  0  0999 V3000
M  V30 BEGIN CTAB
M  V30 COUNTS 60 64 0 0 0
M  V30 BEGIN ATOM
M  V30 1 C 4.405822 -2.303723 0.331096 0
M  V30 2 O 3.600155 -1.319654 0.937944 0
M  V30 3 C 4.006287 -0.486982 1.972401 0
M  V30 4 C 5.262900 -0.580053 2.482667 0
M  V30 5 C 5.570642 0.329761 3.551873 0
M  V30 6 S 4.001312 1.265040 3.743942 0
M  V30 7 C 3.112714 0.428501 2.468702 0
M  V30 8 C 1.742004 0.798292 2.151734 0
M  V30 9 N 1.651183 1.652155 1.029964 0
M  V30 10 C 2.096341 1.182467 -0.205686 0
M  V30 11 C 1.725569 1.998852 -1.404819 0
M  V30 12 C 0.395203 2.673146 -1.318023 0
M  V30 13 C -0.284647 2.604546 0.000437 0 CFG=1
M  V30 14 N -1.096203 1.427215 0.113709 0
M  V30 15 C -2.501314 1.533684 0.360119 0
M  V30 16 O -3.007904 2.673666 0.475145 0
M  V30 17 C -3.371433 0.395780 0.484260 0
M  V30 18 C -4.706264 0.618762 0.748866 0
M  V30 19 C -5.642233 -0.409024 0.888733 0
M  V30 20 C -5.253973 -1.721189 0.763480 0
M  V30 21 N -5.887028 -2.903202 0.839855 0
M  V30 22 N -4.998377 -3.858404 0.632569 0
M  V30 23 C -3.765732 -3.310703 0.416578 0
M  V30 24 C -2.575230 -4.115384 0.156837 0
M  V30 25 C -2.223973 -5.239614 0.879736 0
M  V30 26 C -1.057395 -5.902037 0.503604 0
M  V30 27 N -0.284081 -5.479835 -0.524592 0
M  V30 28 C -0.596899 -4.381847 -1.255914 0
M  V30 29 C 0.264036 -3.932612 -2.382466 0
M  V30 30 C -1.764454 -3.704838 -0.892013 0
M  V30 31 C -3.918442 -1.944025 0.498585 0
M  V30 32 C -2.992942 -0.923927 0.360596 0
M  V30 33 C 0.748787 2.736406 1.089809 0
M  V30 34 H 4.309884 -3.237004 0.957649 0
M  V30 35 H 5.477213 -1.998683 0.343140 0
M  V30 36 H 4.095736 -2.520826 -0.691851 0
M  V30 37 H 6.034921 -1.264402 2.161200 0
M  V30 38 H 6.602652 0.343527 4.062341 0
M  V30 39 H 1.175441 -0.162610 2.027428 0
M  V30 40 H 1.285110 1.293376 3.053223 0
M  V30 41 H 1.712149 0.139806 -0.347545 0
M  V30 42 H 3.202659 1.107055 -0.208256 0
M  V30 43 H 2.523091 2.749582 -1.620402 0
M  V30 44 H 1.706226 1.316905 -2.281352 0
M  V30 45 H 0.500602 3.763527 -1.586766 0
M  V30 46 H -0.340118 2.272021 -2.073785 0
M  V30 47 H -0.984359 3.484352 0.112673 0
M  V30 48 H -0.710066 0.473815 0.024639 0
M  V30 49 H -5.131773 1.610722 0.868641 0
M  V30 50 H -6.686273 -0.232097 1.095882 0
M  V30 51 H -6.915434 -2.964182 1.034842 0
M  V30 52 H -2.860259 -5.547721 1.690009 0
M  V30 53 H -0.765897 -6.798779 1.071727 0
M  V30 54 H 1.230724 -4.466146 -2.285151 0
M  V30 55 H 0.395475 -2.824909 -2.336103 0
M  V30 56 H -0.220757 -4.170735 -3.370729 0
M  V30 57 H -1.955215 -2.837091 -1.520355 0
M  V30 58 H -1.963203 -1.133659 0.156064 0
M  V30 59 H 1.285206 3.682589 0.930300 0
M  V30 60 H 0.298508 2.775383 2.097678 0
M  V30 END ATOM
M  V30 BEGIN BOND
M  V30 1 1 1 2
M  V30 2 1 2 3
M  V30 3 1 3 4
M  V30 4 2 4 5
M  V30 5 1 5 6
M  V30 6 1 6 7
M  V30 7 1 7 8
M  V30 8 1 8 9
M  V30 9 1 9 10
M  V30 10 1 10 11
M  V30 11 1 11 12
M  V30 12 1 12 13
M  V30 13 1 13 14
M  V30 14 1 14 15
M  V30 15 2 15 16
M  V30 16 1 15 17
M  V30 17 2 17 18
M  V30 18 1 18 19
M  V30 19 2 19 20
M  V30 20 1 20 21
M  V30 21 1 21 22
M  V30 22 2 22 23
M  V30 23 1 23 24
M  V30 24 2 24 25
M  V30 25 1 25 26
M  V30 26 2 26 27
M  V30 27 1 27 28
M  V30 28 1 28 29
M  V30 29 2 28 30
M  V30 30 1 23 31
M  V30 31 2 31 32
M  V30 32 1 13 33
M  V30 33 2 7 3
M  V30 34 1 33 9
M  V30 35 1 32 17
M  V30 36 1 31 20
M  V30 37 1 30 24
M  V30 38 1 1 34
M  V30 39 1 1 35
M  V30 40 1 1 36
M  V30 41 1 4 37
M  V30 42 1 5 38
M  V30 43 1 8 39
M  V30 44 1 8 40
M  V30 45 1 10 41
M  V30 46 1 10 42
M  V30 47 1 11 43
M  V30 48 1 11 44
M  V30 49 1 12 45
M  V30 50 1 12 46
M  V30 51 1 13 47 CFG=3
M  V30 52 1 14 48
M  V30 53 1 18 49
M  V30 54 1 19 50
M  V30 55 1 21 51
M  V30 56 1 25 52
M  V30 57 1 26 53
M  V30 58 1 29 54
M  V30 59 1 29 55
M  V30 60 1 29 56
M  V30 61 1 30 57
M  V30 62 1 32 58
M  V30 63 1 33 59
M  V30 64 1 33 60
M  V30 END BOND
M  V30 END CTAB
M  END
>  <Dataset>  (434) 
ChEMBL_Kinases

>  <Ligand_Instance>  (434) 
nan

>  <PDB_ID>  (434) 
nan

>  <Standardized_SMILES>  (434) 
COc1ccsc1CN1CCC[C@@H](NC(=O)c2ccc3[nH]nc(-c4ccnc(C)c4)c3c2)C1

>  <Name>  (434) 
nan

>  <Pocket>  (434) 
nan

>  <ATP_Site>  (434) 
nan

>  <Peripheral>  (434) 
nan

>  <Num_H_Atoms_ProtBoundConf>  (434) 
nan

>  <Num_Resolved_Atoms>  (434) 
nan

>  <Num_Not_Resolved_Atoms>  (434) 
nan

$$$$
CHEMBL3654542
     RDKit          3D

  0  0  0  0  0  0  0  0  0  0999 V3000
M  V30 BEGIN CTAB
M  V30 COUNTS 64 68 0 0 0
M  V30 BEGIN ATOM
M  V30 1 C 7.100982 -0.462443 1.980406 0
M  V30 2 C 5.725278 -0.058364 2.499342 0
M  V30 3 C 5.380224 -1.018904 3.618097 0
M  V30 4 O 4.720554 -0.183818 1.520099 0
M  V30 5 C 3.914063 0.849191 1.065530 0
M  V30 6 C 3.031767 0.364810 0.091733 0
M  V30 7 C 2.114442 1.232568 -0.515614 0
M  V30 8 C 2.090129 2.581202 -0.139947 0
M  V30 9 C 1.143587 3.535989 -0.744783 0
M  V30 10 N 1.427869 4.788868 -1.198648 0
M  V30 11 N 0.343964 5.356055 -1.673765 0
M  V30 12 C -0.707477 4.518152 -1.561732 0
M  V30 13 C -2.053750 4.560732 -1.878874 0
M  V30 14 C -2.901750 3.476874 -1.620002 0
M  V30 15 C -2.417698 2.324204 -1.036328 0
M  V30 16 C -3.354701 1.233983 -0.797112 0
M  V30 17 O -4.537842 1.416729 -1.153788 0
M  V30 18 N -2.896965 0.035917 -0.183002 0
M  V30 19 C -3.615033 -1.175997 0.158362 0 CFG=2
M  V30 20 C -3.571452 -1.433102 1.670681 0
M  V30 21 N -3.844727 -2.816887 1.917581 0
M  V30 22 C -4.638989 -3.422650 0.889771 0
M  V30 23 C -3.775761 -3.609751 -0.318212 0 CFG=2
M  V30 24 C -2.945076 -4.829764 -0.205864 0
M  V30 25 C -2.991694 -5.882377 -1.125918 0
M  V30 26 C -2.178330 -6.981901 -0.938210 0
M  V30 27 C -1.309002 -7.097994 0.125710 0
M  V30 28 C -1.258077 -6.054350 1.044278 0
M  V30 29 C -2.079266 -4.936947 0.860574 0
M  V30 30 C -2.943604 -2.365091 -0.492321 0
M  V30 31 C -1.071540 2.324040 -0.736675 0
M  V30 32 C -0.227551 3.363546 -0.978323 0
M  V30 33 C 2.973115 3.027378 0.823047 0
M  V30 34 C 3.879701 2.180341 1.426329 0
M  V30 35 H 7.632401 0.415813 1.568508 0
M  V30 36 H 7.076753 -1.329901 1.309708 0
M  V30 37 H 7.678834 -0.778665 2.893122 0
M  V30 38 H 5.836986 0.954552 2.901061 0
M  V30 39 H 5.157969 -0.442680 4.559060 0
M  V30 40 H 4.437851 -1.580202 3.417974 0
M  V30 41 H 6.158407 -1.795885 3.779694 0
M  V30 42 H 2.959141 -0.654105 -0.277476 0
M  V30 43 H 1.414348 0.874046 -1.283326 0
M  V30 44 H 0.267454 6.327442 -2.091673 0
M  V30 45 H -2.440878 5.468945 -2.339864 0
M  V30 46 H -3.942183 3.635158 -1.916789 0
M  V30 47 H -1.914344 -0.135262 0.122119 0
M  V30 48 H -4.658077 -1.012147 -0.177297 0
M  V30 49 H -2.568821 -1.096775 2.004373 0
M  V30 50 H -4.301603 -0.753882 2.183259 0
M  V30 51 H -4.198988 -3.006959 2.878071 0
M  V30 52 H -5.058819 -4.384902 1.197096 0
M  V30 53 H -5.525543 -2.787809 0.610354 0
M  V30 54 H -4.428515 -3.674214 -1.235185 0
M  V30 55 H -3.683101 -5.761970 -1.949455 0
M  V30 56 H -2.276470 -7.758044 -1.701683 0
M  V30 57 H -0.683097 -7.984208 0.237667 0
M  V30 58 H -0.567911 -6.168254 1.871248 0
M  V30 59 H -1.940307 -4.212734 1.635852 0
M  V30 60 H -2.711313 -2.175623 -1.559246 0
M  V30 61 H -1.977263 -2.510480 0.033378 0
M  V30 62 H -0.680937 1.428502 -0.277909 0
M  V30 63 H 3.013342 4.055723 1.164570 0
M  V30 64 H 4.609759 2.418903 2.184081 0
M  V30 END ATOM
M  V30 BEGIN BOND
M  V30 1 1 1 2
M  V30 2 1 2 3
M  V30 3 1 2 4
M  V30 4 1 4 5
M  V30 5 2 5 6
M  V30 6 1 6 7
M  V30 7 2 7 8
M  V30 8 1 8 9
M  V30 9 2 9 10
M  V30 10 1 10 11
M  V30 11 1 11 12
M  V30 12 2 12 13
M  V30 13 1 13 14
M  V30 14 2 14 15
M  V30 15 1 15 16
M  V30 16 2 16 17
M  V30 17 1 16 18
M  V30 18 1 18 19
M  V30 19 1 19 20
M  V30 20 1 20 21
M  V30 21 1 21 22
M  V30 22 1 22 23
M  V30 23 1 23 24
M  V30 24 2 24 25
M  V30 25 1 25 26
M  V30 26 2 26 27
M  V30 27 1 27 28
M  V30 28 2 28 29
M  V30 29 1 23 30
M  V30 30 1 15 31
M  V30 31 2 31 32
M  V30 32 1 8 33
M  V30 33 2 33 34
M  V30 34 1 34 5
M  V30 35 1 32 9
M  V30 36 1 32 12
M  V30 37 1 30 19
M  V30 38 1 29 24
M  V30 39 1 1 35
M  V30 40 1 1 36
M  V30 41 1 1 37
M  V30 42 1 2 38
M  V30 43 1 3 39
M  V30 44 1 3 40
M  V30 45 1 3 41
M  V30 46 1 6 42
M  V30 47 1 7 43
M  V30 48 1 11 44
M  V30 49 1 13 45
M  V30 50 1 14 46
M  V30 51 1 18 47
M  V30 52 1 19 48 CFG=3
M  V30 53 1 20 49
M  V30 54 1 20 50
M  V30 55 1 21 51
M  V30 56 1 22 52
M  V30 57 1 22 53
M  V30 58 1 23 54 CFG=3
M  V30 59 1 25 55
M  V30 60 1 26 56
M  V30 61 1 27 57
M  V30 62 1 28 58
M  V30 63 1 29 59
M  V30 64 1 30 60
M  V30 65 1 30 61
M  V30 66 1 31 62
M  V30 67 1 33 63
M  V30 68 1 34 64
M  V30 END BOND
M  V30 END CTAB
M  END
>  <Dataset>  (435) 
ChEMBL_Kinases

>  <Ligand_Instance>  (435) 
nan

>  <PDB_ID>  (435) 
nan

>  <Standardized_SMILES>  (435) 
CC(C)Oc1ccc(-c2n[nH]c3ccc(C(=O)N[C@@H]4CNC[C@H](c5ccccc5)C4)cc23)cc1

>  <Name>  (435) 
nan

>  <Pocket>  (435) 
nan

>  <ATP_Site>  (435) 
nan

>  <Peripheral>  (435) 
nan

>  <Num_H_Atoms_ProtBoundConf>  (435) 
nan

>  <Num_Resolved_Atoms>  (435) 
nan

>  <Num_Not_Resolved_Atoms>  (435) 
nan

$$$$
CHEMBL3654534
     RDKit          3D

  0  0  0  0  0  0  0  0  0  0999 V3000
M  V30 BEGIN CTAB
M  V30 COUNTS 62 66 0 0 0
M  V30 BEGIN ATOM
M  V30 1 C 1.489996 -2.416724 4.872718 0
M  V30 2 C 1.724203 -1.015057 5.312918 0
M  V30 3 C 2.275721 -0.031869 4.487974 0
M  V30 4 C 2.467501 1.252566 4.958231 0
M  V30 5 C 3.049609 2.223265 4.033588 0
M  V30 6 N 4.031025 3.071029 4.378844 0
M  V30 7 N 4.389601 3.850343 3.371518 0
M  V30 8 C 3.644203 3.542492 2.298160 0
M  V30 9 C 3.536924 3.975109 0.992544 0
M  V30 10 C 2.596365 3.373466 0.152847 0
M  V30 11 C 1.754659 2.356633 0.556167 0
M  V30 12 C 0.814393 1.810100 -0.415782 0
M  V30 13 O 0.831766 2.300586 -1.557188 0
M  V30 14 N -0.072720 0.772078 -0.072059 0
M  V30 15 C -1.061277 0.122202 -0.912260 0 CFG=2
M  V30 16 C -2.400413 0.322640 -0.249957 0
M  V30 17 C -3.437170 -0.671438 -0.674200 0
M  V30 18 C -2.870577 -2.055811 -0.888972 0
M  V30 19 N -1.702110 -2.015805 -1.751017 0
M  V30 20 C -1.356493 -3.384240 -2.084049 0
M  V30 21 C -0.132817 -3.339281 -2.986653 0
M  V30 22 C -2.475395 -3.923350 -2.904190 0
M  V30 23 C -2.999701 -3.148799 -3.922897 0
M  V30 24 C -4.034016 -3.641765 -4.684344 0
M  V30 25 C -4.507836 -4.911125 -4.388651 0
M  V30 26 C -3.992733 -5.703758 -3.368262 0
M  V30 27 C -2.943046 -5.189578 -2.604077 0
M  V30 28 C -0.666372 -1.323322 -1.039775 0
M  V30 29 C 1.872420 1.933419 1.864620 0
M  V30 30 C 2.806382 2.526529 2.708841 0
M  V30 31 C 2.111872 1.575818 6.259079 0
M  V30 32 C 1.565350 0.558136 7.041684 0
M  V30 33 N 1.375081 -0.699237 6.588740 0
M  V30 34 H 2.277552 -3.092455 5.252247 0
M  V30 35 H 1.632726 -2.421099 3.755764 0
M  V30 36 H 0.472181 -2.725563 5.147564 0
M  V30 37 H 2.506912 -0.400554 3.515040 0
M  V30 38 H 5.124744 4.589701 3.378290 0
M  V30 39 H 4.185394 4.770887 0.651938 0
M  V30 40 H 2.590810 3.785776 -0.855889 0
M  V30 41 H -0.105043 0.346637 0.875932 0
M  V30 42 H -1.046923 0.564988 -1.945756 0
M  V30 43 H -2.277220 0.336278 0.860380 0
M  V30 44 H -2.769616 1.334152 -0.522302 0
M  V30 45 H -4.187594 -0.751142 0.141815 0
M  V30 46 H -3.996227 -0.346672 -1.576593 0
M  V30 47 H -3.668404 -2.656406 -1.350490 0
M  V30 48 H -2.632139 -2.499308 0.090869 0
M  V30 49 H -1.184736 -4.001832 -1.188277 0
M  V30 50 H -0.059300 -4.284526 -3.576959 0
M  V30 51 H 0.804784 -3.297334 -2.390197 0
M  V30 52 H -0.218462 -2.496569 -3.690011 0
M  V30 53 H -2.610909 -2.159672 -4.133139 0
M  V30 54 H -4.502387 -3.096120 -5.504031 0
M  V30 55 H -5.322086 -5.300705 -4.987154 0
M  V30 56 H -4.387722 -6.689570 -3.166454 0
M  V30 57 H -2.537063 -5.803509 -1.806516 0
M  V30 58 H -0.650081 -1.748878 -0.006932 0
M  V30 59 H 0.310047 -1.357234 -1.535550 0
M  V30 60 H 1.228034 1.144907 2.197711 0
M  V30 61 H 2.264067 2.571547 6.613311 0
M  V30 62 H 1.273083 0.766782 8.064957 0
M  V30 END ATOM
M  V30 BEGIN BOND
M  V30 1 1 1 2
M  V30 2 2 2 3
M  V30 3 1 3 4
M  V30 4 1 4 5
M  V30 5 2 5 6
M  V30 6 1 6 7
M  V30 7 1 7 8
M  V30 8 2 8 9
M  V30 9 1 9 10
M  V30 10 2 10 11
M  V30 11 1 11 12
M  V30 12 2 12 13
M  V30 13 1 12 14
M  V30 14 1 14 15
M  V30 15 1 15 16
M  V30 16 1 16 17
M  V30 17 1 17 18
M  V30 18 1 18 19
M  V30 19 1 19 20
M  V30 20 1 20 21
M  V30 21 1 20 22
M  V30 22 2 22 23
M  V30 23 1 23 24
M  V30 24 2 24 25
M  V30 25 1 25 26
M  V30 26 2 26 27
M  V30 27 1 19 28
M  V30 28 1 11 29
M  V30 29 2 29 30
M  V30 30 2 4 31
M  V30 31 1 31 32
M  V30 32 2 32 33
M  V30 33 1 33 2
M  V30 34 1 30 5
M  V30 35 1 30 8
M  V30 36 1 28 15
M  V30 37 1 27 22
M  V30 38 1 1 34
M  V30 39 1 1 35
M  V30 40 1 1 36
M  V30 41 1 3 37
M  V30 42 1 7 38
M  V30 43 1 9 39
M  V30 44 1 10 40
M  V30 45 1 14 41
M  V30 46 1 15 42 CFG=3
M  V30 47 1 16 43
M  V30 48 1 16 44
M  V30 49 1 17 45
M  V30 50 1 17 46
M  V30 51 1 18 47
M  V30 52 1 18 48
M  V30 53 1 20 49
M  V30 54 1 21 50
M  V30 55 1 21 51
M  V30 56 1 21 52
M  V30 57 1 23 53
M  V30 58 1 24 54
M  V30 59 1 25 55
M  V30 60 1 26 56
M  V30 61 1 27 57
M  V30 62 1 28 58
M  V30 63 1 28 59
M  V30 64 1 29 60
M  V30 65 1 31 61
M  V30 66 1 32 62
M  V30 END BOND
M  V30 END CTAB
M  END
>  <Dataset>  (436) 
ChEMBL_Kinases

>  <Ligand_Instance>  (436) 
nan

>  <PDB_ID>  (436) 
nan

>  <Standardized_SMILES>  (436) 
Cc1cc(-c2n[nH]c3ccc(C(=O)N[C@@H]4CCCN(C(C)c5ccccc5)C4)cc23)ccn1

>  <Name>  (436) 
nan

>  <Pocket>  (436) 
nan

>  <ATP_Site>  (436) 
nan

>  <Peripheral>  (436) 
nan

>  <Num_H_Atoms_ProtBoundConf>  (436) 
nan

>  <Num_Resolved_Atoms>  (436) 
nan

>  <Num_Not_Resolved_Atoms>  (436) 
nan

$$$$
CHEMBL3654535
     RDKit          3D

  0  0  0  0  0  0  0  0  0  0999 V3000
M  V30 BEGIN CTAB
M  V30 COUNTS 57 61 0 0 0
M  V30 BEGIN ATOM
M  V30 1 C 1.635185 -5.093156 5.100623 0
M  V30 2 C 1.710776 -4.333607 3.824951 0
M  V30 3 C 2.610071 -3.326278 3.577935 0
M  V30 4 C 2.615124 -2.659939 2.348874 0
M  V30 5 C 3.564514 -1.587521 2.071342 0
M  V30 6 N 4.881649 -1.620637 2.352518 0
M  V30 7 N 5.464870 -0.478011 1.970590 0
M  V30 8 C 4.558844 0.352540 1.423705 0
M  V30 9 C 4.541680 1.617258 0.866904 0
M  V30 10 C 3.361319 2.183734 0.380190 0
M  V30 11 C 2.161916 1.494043 0.439220 0
M  V30 12 C 0.960046 2.131439 -0.083189 0
M  V30 13 O 1.107929 3.286417 -0.561721 0
M  V30 14 N -0.276457 1.471344 -0.041631 0
M  V30 15 C -1.573991 1.964911 -0.520097 0
M  V30 16 C -2.475374 2.131950 0.633946 0
M  V30 17 C -3.797432 1.460652 0.567930 0
M  V30 18 C -3.877699 0.386259 -0.495497 0
M  V30 19 N -3.518438 1.097507 -1.732115 0
M  V30 20 C -3.968238 0.296254 -2.819970 0
M  V30 21 C -3.348400 -1.051486 -2.843382 0
M  V30 22 N -2.204308 -1.312043 -3.498834 0
M  V30 23 C -1.677015 -2.542711 -3.495040 0
M  V30 24 C -2.266179 -3.594661 -2.830815 0
M  V30 25 C -3.437468 -3.311021 -2.164433 0
M  V30 26 N -3.956442 -2.070667 -2.176184 0
M  V30 27 C -2.072309 1.183612 -1.686484 0
M  V30 28 C 2.210525 0.238218 0.998440 0
M  V30 29 C 3.357008 -0.344596 1.485436 0
M  V30 30 C 1.667304 -3.096578 1.447778 0
M  V30 31 C 0.762481 -4.104171 1.685395 0
M  V30 32 N 0.802019 -4.713758 2.889463 0
M  V30 33 H 2.621322 -5.018651 5.603467 0
M  V30 34 H 0.911095 -4.517788 5.735643 0
M  V30 35 H 1.312483 -6.137755 4.954898 0
M  V30 36 H 3.303866 -3.062950 4.342083 0
M  V30 37 H 6.466657 -0.226916 2.063524 0
M  V30 38 H 5.489704 2.105826 0.845003 0
M  V30 39 H 3.454133 3.175340 -0.034881 0
M  V30 40 H -0.416808 0.514408 0.351373 0
M  V30 41 H -1.311331 2.989578 -0.920884 0
M  V30 42 H -1.994986 1.766633 1.590480 0
M  V30 43 H -2.668892 3.214562 0.864599 0
M  V30 44 H -4.637730 2.156273 0.351561 0
M  V30 45 H -4.100286 0.951510 1.521452 0
M  V30 46 H -4.879511 -0.036301 -0.529075 0
M  V30 47 H -3.085865 -0.372290 -0.283749 0
M  V30 48 H -5.075659 0.146685 -2.663847 0
M  V30 49 H -3.881198 0.783214 -3.810875 0
M  V30 50 H -0.749502 -2.657198 -4.053020 0
M  V30 51 H -1.770120 -4.556581 -2.881110 0
M  V30 52 H -3.910796 -4.137526 -1.635975 0
M  V30 53 H -1.726348 0.108554 -1.653063 0
M  V30 54 H -1.755783 1.608224 -2.661627 0
M  V30 55 H 1.297431 -0.326276 1.060490 0
M  V30 56 H 1.608280 -2.634228 0.481887 0
M  V30 57 H 0.038349 -4.405399 0.936888 0
M  V30 END ATOM
M  V30 BEGIN BOND
M  V30 1 1 1 2
M  V30 2 2 2 3
M  V30 3 1 3 4
M  V30 4 1 4 5
M  V30 5 2 5 6
M  V30 6 1 6 7
M  V30 7 1 7 8
M  V30 8 2 8 9
M  V30 9 1 9 10
M  V30 10 2 10 11
M  V30 11 1 11 12
M  V30 12 2 12 13
M  V30 13 1 12 14
M  V30 14 1 14 15
M  V30 15 1 15 16
M  V30 16 1 16 17
M  V30 17 1 17 18
M  V30 18 1 18 19
M  V30 19 1 19 20
M  V30 20 1 20 21
M  V30 21 2 21 22
M  V30 22 1 22 23
M  V30 23 2 23 24
M  V30 24 1 24 25
M  V30 25 2 25 26
M  V30 26 1 19 27
M  V30 27 1 11 28
M  V30 28 2 28 29
M  V30 29 2 4 30
M  V30 30 1 30 31
M  V30 31 2 31 32
M  V30 32 1 32 2
M  V30 33 1 29 5
M  V30 34 1 29 8
M  V30 35 1 27 15
M  V30 36 1 26 21
M  V30 37 1 1 33
M  V30 38 1 1 34
M  V30 39 1 1 35
M  V30 40 1 3 36
M  V30 41 1 7 37
M  V30 42 1 9 38
M  V30 43 1 10 39
M  V30 44 1 14 40
M  V30 45 1 15 41
M  V30 46 1 16 42
M  V30 47 1 16 43
M  V30 48 1 17 44
M  V30 49 1 17 45
M  V30 50 1 18 46
M  V30 51 1 18 47
M  V30 52 1 20 48
M  V30 53 1 20 49
M  V30 54 1 23 50
M  V30 55 1 24 51
M  V30 56 1 25 52
M  V30 57 1 27 53
M  V30 58 1 27 54
M  V30 59 1 28 55
M  V30 60 1 30 56
M  V30 61 1 31 57
M  V30 END BOND
M  V30 END CTAB
M  END
>  <Dataset>  (437) 
ChEMBL_Kinases

>  <Ligand_Instance>  (437) 
nan

>  <PDB_ID>  (437) 
nan

>  <Standardized_SMILES>  (437) 
Cc1cc(-c2n[nH]c3ccc(C(=O)NC4CCCN(Cc5ncccn5)C4)cc23)ccn1

>  <Name>  (437) 
nan

>  <Pocket>  (437) 
nan

>  <ATP_Site>  (437) 
nan

>  <Peripheral>  (437) 
nan

>  <Num_H_Atoms_ProtBoundConf>  (437) 
nan

>  <Num_Resolved_Atoms>  (437) 
nan

>  <Num_Not_Resolved_Atoms>  (437) 
nan

$$$$
CHEMBL3654536
     RDKit          3D

  0  0  0  0  0  0  0  0  0  0999 V3000
M  V30 BEGIN CTAB
M  V30 COUNTS 68 73 0 0 0
M  V30 BEGIN ATOM
M  V30 1 C 2.155457 -0.398439 1.333773 0
M  V30 2 O 2.513007 -0.637724 0.006485 0
M  V30 3 C 2.956091 0.347940 -0.833843 0
M  V30 4 C 3.058916 1.633079 -0.363717 0
M  V30 5 C 3.501892 2.650909 -1.180367 0
M  V30 6 C 3.835118 2.333111 -2.476213 0
M  V30 7 C 3.718233 1.038203 -2.906500 0
M  V30 8 F 4.066722 0.806393 -4.198979 0
M  V30 9 C 3.273067 -0.033813 -2.117181 0
M  V30 10 C 3.201123 -1.362094 -2.740141 0
M  V30 11 N 1.953489 -1.841666 -3.132163 0
M  V30 12 C 1.204389 -1.049273 -4.021536 0
M  V30 13 C -0.093511 -1.658226 -4.470979 0
M  V30 14 C -0.971602 -0.511653 -4.959617 0
M  V30 15 O -2.207133 -0.973726 -5.401762 0
M  V30 16 C -0.784827 -2.506336 -3.425937 0
M  V30 17 C -0.160177 -2.273147 -2.119058 0
M  V30 18 N -0.663934 -2.914318 -0.967693 0
M  V30 19 C -0.983387 -2.095019 0.168761 0
M  V30 20 O -0.793590 -0.869071 0.062145 0
M  V30 21 C -1.508681 -2.717310 1.383798 0
M  V30 22 C -1.759026 -4.059211 1.579054 0
M  V30 23 C -2.262008 -4.495839 2.803566 0
M  V30 24 C -2.527987 -3.637006 3.852531 0
M  V30 25 N -2.996765 -3.734260 5.107842 0
M  V30 26 N -3.043484 -2.529685 5.681003 0
M  V30 27 C -2.603208 -1.593250 4.813503 0
M  V30 28 C -2.513339 -0.163933 5.094425 0
M  V30 29 C -3.621213 0.372585 5.720674 0
M  V30 30 C -3.704690 1.716681 6.063295 0
M  V30 31 C -2.604748 2.521432 5.744668 0
M  V30 32 N -2.384355 3.832985 5.941946 0
M  V30 33 C -1.152913 4.145867 5.452183 0
M  V30 34 C -0.621166 2.964574 4.941883 0
M  V30 35 N -1.532592 1.977247 5.132914 0
M  V30 36 C -1.454209 0.671064 4.801122 0
M  V30 37 C -2.280928 -2.292485 3.667493 0
M  V30 38 C -1.784010 -1.867363 2.455286 0
M  V30 39 C 1.302627 -2.746723 -2.285795 0
M  V30 40 H 1.354683 0.381736 1.454310 0
M  V30 41 H 3.001176 -0.087590 1.965739 0
M  V30 42 H 1.722918 -1.328504 1.791746 0
M  V30 43 H 2.780253 1.831716 0.678135 0
M  V30 44 H 3.552918 3.622382 -0.738411 0
M  V30 45 H 4.180940 3.113919 -3.121795 0
M  V30 46 H 3.653007 -2.118985 -2.024656 0
M  V30 47 H 3.897049 -1.381803 -3.619793 0
M  V30 48 H 1.819479 -0.875562 -4.930520 0
M  V30 49 H 0.978456 -0.021846 -3.642408 0
M  V30 50 H 0.148755 -2.307694 -5.355883 0
M  V30 51 H -0.403698 0.006398 -5.743815 0
M  V30 52 H -1.112947 0.208801 -4.120938 0
M  V30 53 H -2.829792 -0.226726 -5.481195 0
M  V30 54 H -1.857789 -2.244882 -3.503609 0
M  V30 55 H -0.644485 -3.596480 -3.685208 0
M  V30 56 H -0.058851 -1.153341 -1.999095 0
M  V30 57 H -0.785220 -3.950547 -0.982023 0
M  V30 58 H -1.546479 -4.702039 0.755943 0
M  V30 59 H -2.455873 -5.551777 2.948145 0
M  V30 60 H -3.275880 -4.647925 5.539598 0
M  V30 61 H -4.500388 -0.209545 5.989386 0
M  V30 62 H -4.542186 2.181610 6.550144 0
M  V30 63 H -0.758816 5.148959 5.500222 0
M  V30 64 H 0.347182 2.901493 4.486797 0
M  V30 65 H -0.614235 0.207498 4.312882 0
M  V30 66 H -1.600369 -0.799505 2.342943 0
M  V30 67 H 1.701586 -2.875865 -1.274855 0
M  V30 68 H 1.304738 -3.755259 -2.763888 0
M  V30 END ATOM
M  V30 BEGIN BOND
M  V30 1 1 1 2
M  V30 2 1 2 3
M  V30 3 2 3 4
M  V30 4 1 4 5
M  V30 5 2 5 6
M  V30 6 1 6 7
M  V30 7 1 7 8
M  V30 8 2 7 9
M  V30 9 1 9 10
M  V30 10 1 10 11
M  V30 11 1 11 12
M  V30 12 1 12 13
M  V30 13 1 13 14
M  V30 14 1 14 15
M  V30 15 1 13 16
M  V30 16 1 16 17
M  V30 17 1 17 18
M  V30 18 1 18 19
M  V30 19 2 19 20
M  V30 20 1 19 21
M  V30 21 2 21 22
M  V30 22 1 22 23
M  V30 23 2 23 24
M  V30 24 1 24 25
M  V30 25 1 25 26
M  V30 26 2 26 27
M  V30 27 1 27 28
M  V30 28 1 28 29
M  V30 29 2 29 30
M  V30 30 1 30 31
M  V30 31 2 31 32
M  V30 32 1 32 33
M  V30 33 2 33 34
M  V30 34 1 34 35
M  V30 35 1 35 36
M  V30 36 1 27 37
M  V30 37 2 37 38
M  V30 38 1 17 39
M  V30 39 1 9 3
M  V30 40 1 39 11
M  V30 41 1 38 21
M  V30 42 1 37 24
M  V30 43 2 36 28
M  V30 44 1 35 31
M  V30 45 1 1 40
M  V30 46 1 1 41
M  V30 47 1 1 42
M  V30 48 1 4 43
M  V30 49 1 5 44
M  V30 50 1 6 45
M  V30 51 1 10 46
M  V30 52 1 10 47
M  V30 53 1 12 48
M  V30 54 1 12 49
M  V30 55 1 13 50
M  V30 56 1 14 51
M  V30 57 1 14 52
M  V30 58 1 15 53
M  V30 59 1 16 54
M  V30 60 1 16 55
M  V30 61 1 17 56
M  V30 62 1 18 57
M  V30 63 1 22 58
M  V30 64 1 23 59
M  V30 65 1 25 60
M  V30 66 1 29 61
M  V30 67 1 30 62
M  V30 68 1 33 63
M  V30 69 1 34 64
M  V30 70 1 36 65
M  V30 71 1 38 66
M  V30 72 1 39 67
M  V30 73 1 39 68
M  V30 END BOND
M  V30 END CTAB
M  END
>  <Dataset>  (438) 
ChEMBL_Kinases

>  <Ligand_Instance>  (438) 
nan

>  <PDB_ID>  (438) 
nan

>  <Standardized_SMILES>  (438) 
COc1cccc(F)c1CN1CC(CO)CC(NC(=O)c2ccc3[nH]nc(-c4ccc5nccn5c4)c3c2)C1

>  <Name>  (438) 
nan

>  <Pocket>  (438) 
nan

>  <ATP_Site>  (438) 
nan

>  <Peripheral>  (438) 
nan

>  <Num_H_Atoms_ProtBoundConf>  (438) 
nan

>  <Num_Resolved_Atoms>  (438) 
nan

>  <Num_Not_Resolved_Atoms>  (438) 
nan

$$$$
CHEMBL3654537
     RDKit          3D

  0  0  0  0  0  0  0  0  0  0999 V3000
M  V30 BEGIN CTAB
M  V30 COUNTS 62 66 0 0 0
M  V30 BEGIN ATOM
M  V30 1 C 3.288690 -1.817554 6.735141 0
M  V30 2 C 2.827623 -0.710683 5.854420 0
M  V30 3 C 3.712914 -0.225906 4.893572 0
M  V30 4 C 3.328366 0.800187 4.055102 0
M  V30 5 C 4.097320 1.431947 3.012383 0
M  V30 6 N 5.374855 1.836468 3.129032 0
M  V30 7 N 5.843639 2.379076 2.041487 0
M  V30 8 C 4.841186 2.342124 1.146073 0
M  V30 9 C 4.700001 2.756139 -0.183100 0
M  V30 10 C 3.522596 2.590463 -0.886720 0
M  V30 11 C 2.430552 1.997579 -0.278618 0
M  V30 12 C 1.221729 1.856129 -1.079158 0
M  V30 13 O 1.223954 2.290021 -2.257256 0
M  V30 14 N 0.061851 1.243945 -0.552957 0
M  V30 15 C -1.220675 1.018210 -1.196071 0 CFG=2
M  V30 16 C -2.282991 1.639104 -0.361101 0
M  V30 17 C -3.624141 1.005627 -0.451538 0
M  V30 18 C -3.668388 -0.423851 -0.856074 0
M  V30 19 N -2.674805 -0.847477 -1.789735 0
M  V30 20 C -2.697845 -2.297448 -1.856668 0
M  V30 21 C -3.950225 -2.847520 -2.480892 0
M  V30 22 C -3.903857 -4.350772 -2.518731 0
M  V30 23 C -3.644469 -5.035930 -3.694987 0
M  V30 24 C -3.615531 -6.419176 -3.665655 0
M  V30 25 C -3.839696 -7.103775 -2.491222 0
M  V30 26 C -4.099159 -6.436293 -1.312742 0
M  V30 27 C -4.128335 -5.044773 -1.343107 0
M  V30 28 F -4.384831 -4.378003 -0.179674 0
M  V30 29 C -1.387582 -0.502307 -1.215553 0
M  V30 30 C 2.541104 1.582222 1.024031 0
M  V30 31 C 3.718406 1.748024 1.727524 0
M  V30 32 C 2.057291 1.312078 4.208190 0
M  V30 33 C 1.192574 0.811279 5.174368 0
M  V30 34 N 1.589784 -0.202294 5.993706 0
M  V30 35 H 3.786770 -1.436131 7.668720 0
M  V30 36 H 4.024674 -2.429995 6.205864 0
M  V30 37 H 2.439983 -2.461939 7.067059 0
M  V30 38 H 4.715122 -0.591911 4.734157 0
M  V30 39 H 6.799191 2.773232 1.867666 0
M  V30 40 H 5.549527 3.220580 -0.666289 0
M  V30 41 H 3.505968 2.947541 -1.929804 0
M  V30 42 H 0.001411 0.864259 0.416040 0
M  V30 43 H -1.191475 1.419395 -2.231809 0
M  V30 44 H -2.380569 2.711855 -0.662446 0
M  V30 45 H -1.934315 1.699534 0.709600 0
M  V30 46 H -4.094229 1.062258 0.570034 0
M  V30 47 H -4.337699 1.606416 -1.087575 0
M  V30 48 H -4.658979 -0.603009 -1.366400 0
M  V30 49 H -3.668822 -1.153779 -0.013875 0
M  V30 50 H -1.832259 -2.677411 -2.473227 0
M  V30 51 H -2.529154 -2.753540 -0.848624 0
M  V30 52 H -4.113115 -2.414283 -3.471051 0
M  V30 53 H -4.811696 -2.590604 -1.819180 0
M  V30 54 H -3.467103 -4.495625 -4.626207 0
M  V30 55 H -3.411600 -6.978165 -4.588583 0
M  V30 56 H -3.820514 -8.185558 -2.453101 0
M  V30 57 H -4.283051 -6.918032 -0.359044 0
M  V30 58 H -0.536877 -0.969565 -1.734164 0
M  V30 59 H -1.415829 -0.815978 -0.146137 0
M  V30 60 H 1.695291 1.117080 1.509924 0
M  V30 61 H 1.536004 2.111186 3.676318 0
M  V30 62 H 0.180259 1.123091 5.392369 0
M  V30 END ATOM
M  V30 BEGIN BOND
M  V30 1 1 1 2
M  V30 2 2 2 3
M  V30 3 1 3 4
M  V30 4 1 4 5
M  V30 5 2 5 6
M  V30 6 1 6 7
M  V30 7 1 7 8
M  V30 8 2 8 9
M  V30 9 1 9 10
M  V30 10 2 10 11
M  V30 11 1 11 12
M  V30 12 2 12 13
M  V30 13 1 12 14
M  V30 14 1 14 15
M  V30 15 1 15 16
M  V30 16 1 16 17
M  V30 17 1 17 18
M  V30 18 1 18 19
M  V30 19 1 19 20
M  V30 20 1 20 21
M  V30 21 1 21 22
M  V30 22 2 22 23
M  V30 23 1 23 24
M  V30 24 2 24 25
M  V30 25 1 25 26
M  V30 26 2 26 27
M  V30 27 1 27 28
M  V30 28 1 19 29
M  V30 29 1 11 30
M  V30 30 2 30 31
M  V30 31 2 4 32
M  V30 32 1 32 33
M  V30 33 2 33 34
M  V30 34 1 34 2
M  V30 35 1 31 5
M  V30 36 1 31 8
M  V30 37 1 29 15
M  V30 38 1 27 22
M  V30 39 1 1 35
M  V30 40 1 1 36
M  V30 41 1 1 37
M  V30 42 1 3 38
M  V30 43 1 7 39
M  V30 44 1 9 40
M  V30 45 1 10 41
M  V30 46 1 14 42
M  V30 47 1 15 43 CFG=3
M  V30 48 1 16 44
M  V30 49 1 16 45
M  V30 50 1 17 46
M  V30 51 1 17 47
M  V30 52 1 18 48
M  V30 53 1 18 49
M  V30 54 1 20 50
M  V30 55 1 20 51
M  V30 56 1 21 52
M  V30 57 1 21 53
M  V30 58 1 23 54
M  V30 59 1 24 55
M  V30 60 1 25 56
M  V30 61 1 26 57
M  V30 62 1 29 58
M  V30 63 1 29 59
M  V30 64 1 30 60
M  V30 65 1 32 61
M  V30 66 1 33 62
M  V30 END BOND
M  V30 END CTAB
M  END
>  <Dataset>  (439) 
ChEMBL_Kinases

>  <Ligand_Instance>  (439) 
nan

>  <PDB_ID>  (439) 
nan

>  <Standardized_SMILES>  (439) 
Cc1cc(-c2n[nH]c3ccc(C(=O)N[C@@H]4CCCN(CCc5ccccc5F)C4)cc23)ccn1

>  <Name>  (439) 
nan

>  <Pocket>  (439) 
nan

>  <ATP_Site>  (439) 
nan

>  <Peripheral>  (439) 
nan

>  <Num_H_Atoms_ProtBoundConf>  (439) 
nan

>  <Num_Resolved_Atoms>  (439) 
nan

>  <Num_Not_Resolved_Atoms>  (439) 
nan

$$$$
CHEMBL3654538
     RDKit          3D

  0  0  0  0  0  0  0  0  0  0999 V3000
M  V30 BEGIN CTAB
M  V30 COUNTS 65 69 0 0 0
M  V30 BEGIN ATOM
M  V30 1 C 1.645267 -2.736845 3.007033 0
M  V30 2 C 2.694998 -1.706094 2.896765 0
M  V30 3 C 2.745201 -0.924879 1.764019 0
M  V30 4 C 3.716478 0.038521 1.658221 0
M  V30 5 C 4.007503 0.992312 0.611527 0
M  V30 6 N 5.231971 1.290237 0.124533 0
M  V30 7 N 5.133160 2.212886 -0.808075 0
M  V30 8 C 3.834806 2.572906 -0.985963 0
M  V30 9 C 3.166030 3.465341 -1.798379 0
M  V30 10 C 1.797650 3.641804 -1.774529 0
M  V30 11 C 1.088494 2.868316 -0.879271 0
M  V30 12 C -0.363696 3.028656 -0.796711 0
M  V30 13 O -0.877238 4.061807 -1.293816 0
M  V30 14 N -1.217125 2.101523 -0.198974 0
M  V30 15 C -2.592814 1.975467 0.039935 0 CFG=2
M  V30 16 C -2.793173 1.628771 1.501007 0
M  V30 17 C -3.109950 0.183158 1.698070 0
M  V30 18 C -2.443876 -0.712664 0.665437 0
M  V30 19 N -2.775785 -0.322533 -0.657387 0
M  V30 20 C -3.508709 -1.322211 -1.360390 0
M  V30 21 C -2.706044 -2.487421 -1.761465 0
M  V30 22 C -2.016092 -3.330942 -0.825911 0
M  V30 23 C -0.631050 -3.140297 -0.663260 0
M  V30 24 C 0.227218 -3.825182 0.139595 0
M  V30 25 C -0.303150 -4.833626 0.895886 0
M  V30 26 C -1.644377 -5.083611 0.796061 0
M  V30 27 C -2.517765 -4.365505 -0.039904 0
M  V30 28 C -3.941050 -4.665572 -0.121378 0
M  V30 29 F -4.123799 -5.784498 0.724358 0
M  V30 30 F -4.702626 -3.697494 0.561374 0
M  V30 31 F -4.457730 -5.036960 -1.303702 0
M  V30 32 C -3.388527 0.973551 -0.721562 0
M  V30 33 C 1.761542 1.963520 -0.054086 0
M  V30 34 C 3.131635 1.796895 -0.086533 0
M  V30 35 C 4.598701 0.147955 2.740423 0
M  V30 36 C 4.544305 -0.635358 3.869705 0
M  V30 37 N 3.562332 -1.568658 3.914952 0
M  V30 38 H 0.673685 -2.404378 2.614070 0
M  V30 39 H 1.473069 -2.974099 4.077321 0
M  V30 40 H 1.956200 -3.713101 2.536610 0
M  V30 41 H 2.091384 -0.974231 0.911000 0
M  V30 42 H 5.906369 2.619444 -1.338841 0
M  V30 43 H 3.824340 4.008351 -2.451694 0
M  V30 44 H 1.358940 4.359793 -2.442030 0
M  V30 45 H -0.704126 1.269885 0.170938 0
M  V30 46 H -3.095439 2.965519 -0.135743 0
M  V30 47 H -1.857577 1.856052 2.073310 0
M  V30 48 H -3.571024 2.257631 1.973261 0
M  V30 49 H -4.198797 0.030044 1.731819 0
M  V30 50 H -2.719666 -0.125101 2.683857 0
M  V30 51 H -2.913151 -1.723812 0.851641 0
M  V30 52 H -1.378502 -0.868607 0.890039 0
M  V30 53 H -3.859081 -0.843092 -2.332503 0
M  V30 54 H -4.467270 -1.521305 -0.835027 0
M  V30 55 H -3.268662 -3.115656 -2.554101 0
M  V30 56 H -1.925616 -2.038871 -2.471674 0
M  V30 57 H -0.140736 -2.338193 -1.247652 0
M  V30 58 H 1.281363 -3.603095 0.196328 0
M  V30 59 H 0.337993 -5.405684 1.548853 0
M  V30 60 H -2.065005 -5.899375 1.409157 0
M  V30 61 H -4.371720 0.880289 -0.164305 0
M  V30 62 H -3.710982 1.268306 -1.725290 0
M  V30 63 H 1.244943 1.343493 0.658202 0
M  V30 64 H 5.424239 0.874693 2.793329 0
M  V30 65 H 5.221052 -0.555979 4.706309 0
M  V30 END ATOM
M  V30 BEGIN BOND
M  V30 1 1 1 2
M  V30 2 2 2 3
M  V30 3 1 3 4
M  V30 4 1 4 5
M  V30 5 2 5 6
M  V30 6 1 6 7
M  V30 7 1 7 8
M  V30 8 2 8 9
M  V30 9 1 9 10
M  V30 10 2 10 11
M  V30 11 1 11 12
M  V30 12 2 12 13
M  V30 13 1 12 14
M  V30 14 1 14 15
M  V30 15 1 15 16
M  V30 16 1 16 17
M  V30 17 1 17 18
M  V30 18 1 18 19
M  V30 19 1 19 20
M  V30 20 1 20 21
M  V30 21 1 21 22
M  V30 22 2 22 23
M  V30 23 1 23 24
M  V30 24 2 24 25
M  V30 25 1 25 26
M  V30 26 2 26 27
M  V30 27 1 27 28
M  V30 28 1 28 29
M  V30 29 1 28 30
M  V30 30 1 28 31
M  V30 31 1 19 32
M  V30 32 1 11 33
M  V30 33 2 33 34
M  V30 34 2 4 35
M  V30 35 1 35 36
M  V30 36 2 36 37
M  V30 37 1 37 2
M  V30 38 1 34 5
M  V30 39 1 34 8
M  V30 40 1 32 15
M  V30 41 1 27 22
M  V30 42 1 1 38
M  V30 43 1 1 39
M  V30 44 1 1 40
M  V30 45 1 3 41
M  V30 46 1 7 42
M  V30 47 1 9 43
M  V30 48 1 10 44
M  V30 49 1 14 45
M  V30 50 1 15 46 CFG=1
M  V30 51 1 16 47
M  V30 52 1 16 48
M  V30 53 1 17 49
M  V30 54 1 17 50
M  V30 55 1 18 51
M  V30 56 1 18 52
M  V30 57 1 20 53
M  V30 58 1 20 54
M  V30 59 1 21 55
M  V30 60 1 21 56
M  V30 61 1 23 57
M  V30 62 1 24 58
M  V30 63 1 25 59
M  V30 64 1 26 60
M  V30 65 1 32 61
M  V30 66 1 32 62
M  V30 67 1 33 63
M  V30 68 1 35 64
M  V30 69 1 36 65
M  V30 END BOND
M  V30 END CTAB
M  END
>  <Dataset>  (440) 
ChEMBL_Kinases

>  <Ligand_Instance>  (440) 
nan

>  <PDB_ID>  (440) 
nan

>  <Standardized_SMILES>  (440) 
Cc1cc(-c2n[nH]c3ccc(C(=O)N[C@@H]4CCCN(CCc5ccccc5C(F)(F)F)C4)cc23)ccn1

>  <Name>  (440) 
nan

>  <Pocket>  (440) 
nan

>  <ATP_Site>  (440) 
nan

>  <Peripheral>  (440) 
nan

>  <Num_H_Atoms_ProtBoundConf>  (440) 
nan

>  <Num_Resolved_Atoms>  (440) 
nan

>  <Num_Not_Resolved_Atoms>  (440) 
nan

$$$$
CHEMBL3654539
     RDKit          3D

  0  0  0  0  0  0  0  0  0  0999 V3000
M  V30 BEGIN CTAB
M  V30 COUNTS 61 65 0 0 0
M  V30 BEGIN ATOM
M  V30 1 C 2.451827 -1.598910 7.453853 0
M  V30 2 C 2.353855 -0.616004 6.327149 0
M  V30 3 C 3.199421 -0.750771 5.248622 0
M  V30 4 C 3.089549 0.171521 4.206392 0
M  V30 5 C 3.953809 0.104487 3.032578 0
M  V30 6 N 5.278428 -0.048969 2.892808 0
M  V30 7 N 5.627965 -0.059762 1.619532 0
M  V30 8 C 4.543957 0.087188 0.825621 0
M  V30 9 C 4.409346 0.132874 -0.531861 0
M  V30 10 C 3.129242 0.293044 -1.045439 0
M  V30 11 C 2.036510 0.401383 -0.205220 0
M  V30 12 C 0.728394 0.560361 -0.824945 0
M  V30 13 O 0.679146 0.655313 -2.081926 0
M  V30 14 N -0.484551 0.612684 -0.084761 0
M  V30 15 C -1.807252 0.767649 -0.660310 0 CFG=2
M  V30 16 C -2.476566 2.045459 -0.172166 0
M  V30 17 C -3.906383 1.940943 -0.698164 0
M  V30 18 C -4.034287 0.894822 -1.753518 0
M  V30 19 N -3.765134 -0.465145 -1.261423 0
M  V30 20 C -3.314044 -1.181644 -2.445161 0
M  V30 21 C -3.132272 -2.607420 -2.199187 0
M  V30 22 O -3.721370 -2.537265 -1.083321 0
M  V30 23 C -2.560530 -3.782602 -2.817274 0
M  V30 24 C -2.766985 -4.919870 -2.045375 0
M  V30 25 C -2.310454 -6.148630 -2.447257 0
M  V30 26 C -1.642978 -6.191756 -3.646228 0
M  V30 27 C -1.411487 -5.078359 -4.455601 0
M  V30 28 C -1.889581 -3.865900 -4.008404 0
M  V30 29 F -1.738623 -2.690052 -4.687690 0
M  V30 30 C -2.738046 -0.355730 -0.243948 0
M  V30 31 C 2.240943 0.347983 1.155089 0
M  V30 32 C 3.493987 0.189700 1.726204 0
M  V30 33 C 2.131064 1.177743 4.313438 0
M  V30 34 C 1.296644 1.269343 5.432599 0
M  V30 35 N 1.424657 0.366914 6.422155 0
M  V30 36 H 3.527265 -1.831367 7.578647 0
M  V30 37 H 1.970870 -2.544988 7.130210 0
M  V30 38 H 1.978038 -1.186173 8.366032 0
M  V30 39 H 3.947004 -1.532756 5.160515 0
M  V30 40 H 6.634512 -0.173265 1.329638 0
M  V30 41 H 5.313627 0.041376 -1.121859 0
M  V30 42 H 3.058424 0.325431 -2.133582 0
M  V30 43 H -0.469201 0.535290 0.955844 0
M  V30 44 H -1.669177 0.853827 -1.736292 0
M  V30 45 H -2.509589 2.078401 0.946203 0
M  V30 46 H -1.920992 2.893557 -0.581729 0
M  V30 47 H -4.135583 2.907583 -1.170710 0
M  V30 48 H -4.625129 1.787611 0.114676 0
M  V30 49 H -5.092628 0.922710 -2.099339 0
M  V30 50 H -3.433745 1.139726 -2.643709 0
M  V30 51 H -2.405355 -0.753218 -2.875334 0
M  V30 52 H -4.117595 -1.022071 -3.202919 0
M  V30 53 H -3.291295 -4.946798 -1.081811 0
M  V30 54 H -2.441658 -7.068101 -1.886688 0
M  V30 55 H -1.270394 -7.156636 -3.988236 0
M  V30 56 H -0.883341 -5.128701 -5.395904 0
M  V30 57 H -2.179726 -1.264199 -0.027955 0
M  V30 58 H -3.298992 -0.077400 0.693483 0
M  V30 59 H 1.385579 0.433153 1.781289 0
M  V30 60 H 1.989304 1.933139 3.540964 0
M  V30 61 H 0.543762 2.052634 5.527135 0
M  V30 END ATOM
M  V30 BEGIN BOND
M  V30 1 1 1 2
M  V30 2 2 2 3
M  V30 3 1 3 4
M  V30 4 1 4 5
M  V30 5 2 5 6
M  V30 6 1 6 7
M  V30 7 1 7 8
M  V30 8 2 8 9
M  V30 9 1 9 10
M  V30 10 2 10 11
M  V30 11 1 11 12
M  V30 12 2 12 13
M  V30 13 1 12 14
M  V30 14 1 14 15
M  V30 15 1 15 16
M  V30 16 1 16 17
M  V30 17 1 17 18
M  V30 18 1 18 19
M  V30 19 1 19 20
M  V30 20 1 20 21
M  V30 21 2 21 22
M  V30 22 1 21 23
M  V30 23 2 23 24
M  V30 24 1 24 25
M  V30 25 2 25 26
M  V30 26 1 26 27
M  V30 27 2 27 28
M  V30 28 1 28 29
M  V30 29 1 19 30
M  V30 30 1 11 31
M  V30 31 2 31 32
M  V30 32 2 4 33
M  V30 33 1 33 34
M  V30 34 2 34 35
M  V30 35 1 35 2
M  V30 36 1 32 5
M  V30 37 1 32 8
M  V30 38 1 30 15
M  V30 39 1 28 23
M  V30 40 1 1 36
M  V30 41 1 1 37
M  V30 42 1 1 38
M  V30 43 1 3 39
M  V30 44 1 7 40
M  V30 45 1 9 41
M  V30 46 1 10 42
M  V30 47 1 14 43
M  V30 48 1 15 44 CFG=3
M  V30 49 1 16 45
M  V30 50 1 16 46
M  V30 51 1 17 47
M  V30 52 1 17 48
M  V30 53 1 18 49
M  V30 54 1 18 50
M  V30 55 1 20 51
M  V30 56 1 20 52
M  V30 57 1 24 53
M  V30 58 1 25 54
M  V30 59 1 26 55
M  V30 60 1 27 56
M  V30 61 1 30 57
M  V30 62 1 30 58
M  V30 63 1 31 59
M  V30 64 1 33 60
M  V30 65 1 34 61
M  V30 END BOND
M  V30 END CTAB
M  END
>  <Dataset>  (441) 
ChEMBL_Kinases

>  <Ligand_Instance>  (441) 
nan

>  <PDB_ID>  (441) 
nan

>  <Standardized_SMILES>  (441) 
Cc1cc(-c2n[nH]c3ccc(C(=O)N[C@@H]4CCCN(CC(=O)c5ccccc5F)C4)cc23)ccn1

>  <Name>  (441) 
nan

>  <Pocket>  (441) 
nan

>  <ATP_Site>  (441) 
nan

>  <Peripheral>  (441) 
nan

>  <Num_H_Atoms_ProtBoundConf>  (441) 
nan

>  <Num_Resolved_Atoms>  (441) 
nan

>  <Num_Not_Resolved_Atoms>  (441) 
nan

$$$$
CHEMBL3654540
     RDKit          3D

  0  0  0  0  0  0  0  0  0  0999 V3000
M  V30 BEGIN CTAB
M  V30 COUNTS 68 74 0 0 0
M  V30 BEGIN ATOM
M  V30 1 C 3.068230 2.815190 -0.273789 0
M  V30 2 O 1.877273 3.238302 0.324124 0
M  V30 3 C 1.460048 4.527944 0.153665 0
M  V30 4 C 2.179231 5.450734 -0.600550 0
M  V30 5 C 1.771284 6.742898 -0.777062 0
M  V30 6 C 0.591007 7.139926 -0.176546 0
M  V30 7 C -0.103660 6.210685 0.564634 0
M  V30 8 F -1.258860 6.686102 1.122824 0
M  V30 9 C 0.280473 4.877834 0.769895 0
M  V30 10 C -0.610293 4.063379 1.592749 0
M  V30 11 N -1.457974 3.149440 0.992840 0
M  V30 12 C -2.400239 3.523574 0.019647 0
M  V30 13 C -2.628362 2.225901 -0.738641 0 CFG=1
M  V30 14 C -1.188354 1.713543 -0.735838 0
M  V30 15 C -1.037086 1.793207 0.789975 0 CFG=2
M  V30 16 C -2.178092 0.940044 1.220418 0 CFG=2
M  V30 17 N -1.896369 -0.396317 1.565415 0
M  V30 18 C -2.094648 -1.020609 2.823688 0
M  V30 19 O -2.567475 -0.317771 3.723760 0
M  V30 20 C -1.774781 -2.415742 3.098700 0
M  V30 21 C -2.031273 -2.857177 4.398547 0
M  V30 22 C -1.766830 -4.170348 4.778397 0
M  V30 23 C -1.241394 -5.018115 3.819620 0
M  V30 24 N -0.882949 -6.323446 3.872032 0
M  V30 25 N -0.424741 -6.699616 2.681679 0
M  V30 26 C -0.464273 -5.669152 1.813541 0
M  V30 27 C -0.059768 -5.641970 0.412626 0
M  V30 28 C -0.733744 -5.093989 -0.635729 0
M  V30 29 C -0.231516 -5.139445 -1.923514 0
M  V30 30 C 0.987076 -5.755042 -2.167913 0
M  V30 31 N 1.685653 -5.933436 -3.301635 0
M  V30 32 N 2.800452 -6.584823 -3.022287 0
M  V30 33 C 3.815062 -6.964718 -3.982470 0
M  V30 34 C 2.832373 -6.832738 -1.708248 0
M  V30 35 C 1.697634 -6.324457 -1.111574 0
M  V30 36 C 1.167371 -6.264055 0.178133 0
M  V30 37 C -0.984480 -4.590994 2.531732 0
M  V30 38 C -1.250632 -3.282021 2.161564 0
M  V30 39 C -3.237639 1.151710 0.160799 0
M  V30 40 H 3.909853 3.525525 -0.114220 0
M  V30 41 H 3.424714 1.828590 0.099637 0
M  V30 42 H 2.888119 2.678966 -1.363817 0
M  V30 43 H 3.105460 5.138313 -1.072386 0
M  V30 44 H 2.376441 7.409333 -1.374333 0
M  V30 45 H 0.266099 8.140300 -0.308878 0
M  V30 46 H -1.229146 4.716928 2.278226 0
M  V30 47 H 0.026954 3.491854 2.337993 0
M  V30 48 H -2.006561 4.234876 -0.744347 0
M  V30 49 H -3.342172 3.874165 0.468665 0
M  V30 50 H -3.082030 2.316177 -1.708350 0
M  V30 51 H -0.498683 2.374422 -1.271028 0
M  V30 52 H -1.256358 0.685124 -1.110020 0
M  V30 53 H -0.068370 1.538399 1.171169 0
M  V30 54 H -2.609692 1.412979 2.154179 0
M  V30 55 H -1.493975 -0.964793 0.771822 0
M  V30 56 H -2.443264 -2.223738 5.184549 0
M  V30 57 H -1.968140 -4.503794 5.784690 0
M  V30 58 H -0.937347 -6.975259 4.692874 0
M  V30 59 H -1.663302 -4.632300 -0.404426 0
M  V30 60 H -0.785567 -4.696835 -2.737972 0
M  V30 61 H 4.326842 -6.068043 -4.341396 0
M  V30 62 H 4.536176 -7.682807 -3.527812 0
M  V30 63 H 3.315911 -7.497831 -4.815243 0
M  V30 64 H 3.577955 -7.340971 -1.110802 0
M  V30 65 H 1.773212 -6.724704 0.938159 0
M  V30 66 H -1.061305 -2.915818 1.162375 0
M  V30 67 H -4.221198 1.455712 0.574140 0
M  V30 68 H -3.385587 0.269938 -0.493891 0
M  V30 END ATOM
M  V30 BEGIN BOND
M  V30 1 1 1 2
M  V30 2 1 2 3
M  V30 3 2 3 4
M  V30 4 1 4 5
M  V30 5 2 5 6
M  V30 6 1 6 7
M  V30 7 1 7 8
M  V30 8 2 7 9
M  V30 9 1 9 10
M  V30 10 1 10 11
M  V30 11 1 11 12
M  V30 12 1 12 13
M  V30 13 1 13 14
M  V30 14 1 14 15
M  V30 15 1 15 16
M  V30 16 1 16 17
M  V30 17 1 17 18
M  V30 18 2 18 19
M  V30 19 1 18 20
M  V30 20 2 20 21
M  V30 21 1 21 22
M  V30 22 2 22 23
M  V30 23 1 23 24
M  V30 24 1 24 25
M  V30 25 2 25 26
M  V30 26 1 26 27
M  V30 27 1 27 28
M  V30 28 2 28 29
M  V30 29 1 29 30
M  V30 30 2 30 31
M  V30 31 1 31 32
M  V30 32 1 32 33
M  V30 33 1 32 34
M  V30 34 2 34 35
M  V30 35 1 35 36
M  V30 36 1 26 37
M  V30 37 2 37 38
M  V30 38 1 16 39
M  V30 39 1 9 3
M  V30 40 1 15 11
M  V30 41 1 38 20
M  V30 42 1 39 13
M  V30 43 1 37 23
M  V30 44 2 36 27
M  V30 45 1 35 30
M  V30 46 1 1 40
M  V30 47 1 1 41
M  V30 48 1 1 42
M  V30 49 1 4 43
M  V30 50 1 5 44
M  V30 51 1 6 45
M  V30 52 1 10 46
M  V30 53 1 10 47
M  V30 54 1 12 48
M  V30 55 1 12 49
M  V30 56 1 13 50 CFG=3
M  V30 57 1 14 51
M  V30 58 1 14 52
M  V30 59 1 15 53 CFG=3
M  V30 60 1 16 54 CFG=1
M  V30 61 1 17 55
M  V30 62 1 21 56
M  V30 63 1 22 57
M  V30 64 1 24 58
M  V30 65 1 28 59
M  V30 66 1 29 60
M  V30 67 1 33 61
M  V30 68 1 33 62
M  V30 69 1 33 63
M  V30 70 1 34 64
M  V30 71 1 36 65
M  V30 72 1 38 66
M  V30 73 1 39 67
M  V30 74 1 39 68
M  V30 END BOND
M  V30 END CTAB
M  END
>  <Dataset>  (442) 
ChEMBL_Kinases

>  <Ligand_Instance>  (442) 
nan

>  <PDB_ID>  (442) 
nan

>  <Standardized_SMILES>  (442) 
COc1cccc(F)c1CN1C[C@H]2C[C@@H]1[C@H](NC(=O)c1ccc3[nH]nc(-c4ccc5nn(C)cc5c4)c3c1)C2

>  <Name>  (442) 
nan

>  <Pocket>  (442) 
nan

>  <ATP_Site>  (442) 
nan

>  <Peripheral>  (442) 
nan

>  <Num_H_Atoms_ProtBoundConf>  (442) 
nan

>  <Num_Resolved_Atoms>  (442) 
nan

>  <Num_Not_Resolved_Atoms>  (442) 
nan

$$$$
CHEMBL3654541
     RDKit          3D

  0  0  0  0  0  0  0  0  0  0999 V3000
M  V30 BEGIN CTAB
M  V30 COUNTS 64 70 0 0 0
M  V30 BEGIN ATOM
M  V30 1 C 4.752593 -3.244890 2.243623 0
M  V30 2 N 4.319441 -1.920420 1.881320 0
M  V30 3 C 3.642588 -1.554536 0.761818 0
M  V30 4 C 3.458240 -0.173459 0.871301 0
M  V30 5 C 2.833897 0.719525 0.016880 0
M  V30 6 C 2.772632 2.075080 0.341972 0
M  V30 7 C 2.155585 3.118734 -0.451108 0
M  V30 8 N 2.720607 4.329460 -0.705355 0
M  V30 9 N 1.903098 5.045608 -1.454630 0
M  V30 10 C 0.786084 4.372682 -1.730792 0
M  V30 11 C -0.337649 4.691101 -2.458768 0
M  V30 12 C -1.343563 3.722752 -2.542755 0
M  V30 13 C -1.191335 2.491878 -1.906195 0
M  V30 14 C -2.298098 1.557083 -2.055558 0
M  V30 15 O -3.299696 1.895658 -2.740320 0
M  V30 16 N -2.292559 0.266838 -1.453830 0
M  V30 17 C -3.184928 -0.815810 -1.420656 0
M  V30 18 C -2.678163 -2.140666 -1.927784 0
M  V30 19 C -3.531352 -3.129361 -1.172385 0 CFG=2
M  V30 20 C -4.663426 -2.276353 -0.579099 0
M  V30 21 C -3.678555 -1.207926 -0.043550 0 CFG=1
M  V30 22 N -2.799369 -2.038445 0.682539 0
M  V30 23 C -2.620602 -1.859014 2.059179 0
M  V30 24 C -1.636013 -2.902506 2.525435 0
M  V30 25 C -0.276118 -2.773696 2.272240 0
M  V30 26 F 0.170357 -1.681155 1.588004 0
M  V30 27 C 0.656758 -3.701525 2.679845 0
M  V30 28 C 0.174568 -4.813130 3.379433 0
M  V30 29 C -1.177160 -4.979604 3.653141 0
M  V30 30 C -2.086254 -4.018570 3.223302 0
M  V30 31 F -3.406436 -4.140319 3.467058 0
M  V30 32 C -2.801063 -3.360973 0.159143 0
M  V30 33 C -0.067000 2.187583 -1.184427 0
M  V30 34 C 0.925668 3.141911 -1.100971 0
M  V30 35 C 3.344397 2.530544 1.534966 0
M  V30 36 C 3.958938 1.578895 2.352530 0
M  V30 37 C 4.039673 0.243113 2.069476 0
M  V30 38 N 4.543544 -0.851314 2.637102 0
M  V30 39 H 5.796726 -3.226642 2.670011 0
M  V30 40 H 4.084543 -3.675759 2.990627 0
M  V30 41 H 4.862106 -3.865020 1.317749 0
M  V30 42 H 3.323299 -2.194716 -0.028970 0
M  V30 43 H 2.373516 0.439452 -0.915931 0
M  V30 44 H 2.107781 6.014116 -1.786646 0
M  V30 45 H -0.460572 5.647038 -2.955469 0
M  V30 46 H -2.224115 4.009380 -3.129642 0
M  V30 47 H -1.502223 -0.054614 -0.888878 0
M  V30 48 H -4.096270 -0.588431 -2.014528 0
M  V30 49 H -1.613064 -2.288318 -1.655327 0
M  V30 50 H -2.732726 -2.235631 -3.022930 0
M  V30 51 H -3.841922 -4.008969 -1.686226 0
M  V30 52 H -5.308049 -1.837719 -1.354327 0
M  V30 53 H -5.173810 -2.788705 0.241978 0
M  V30 54 H -4.205499 -0.425011 0.488151 0
M  V30 55 H -2.082044 -0.893458 2.290633 0
M  V30 56 H -3.549948 -1.961707 2.611838 0
M  V30 57 H 1.694095 -3.542919 2.452375 0
M  V30 58 H 0.905180 -5.554230 3.707036 0
M  V30 59 H -1.522229 -5.861238 4.203184 0
M  V30 60 H -3.421863 -4.061964 0.738270 0
M  V30 61 H -1.783868 -3.752807 -0.045322 0
M  V30 62 H 0.051905 1.249230 -0.697808 0
M  V30 63 H 3.329615 3.570156 1.843747 0
M  V30 64 H 4.410573 1.918332 3.287996 0
M  V30 END ATOM
M  V30 BEGIN BOND
M  V30 1 1 1 2
M  V30 2 1 2 3
M  V30 3 2 3 4
M  V30 4 1 4 5
M  V30 5 2 5 6
M  V30 6 1 6 7
M  V30 7 2 7 8
M  V30 8 1 8 9
M  V30 9 1 9 10
M  V30 10 2 10 11
M  V30 11 1 11 12
M  V30 12 2 12 13
M  V30 13 1 13 14
M  V30 14 2 14 15
M  V30 15 1 14 16
M  V30 16 1 16 17
M  V30 17 1 17 18
M  V30 18 1 18 19
M  V30 19 1 19 20
M  V30 20 1 20 21
M  V30 21 1 21 22
M  V30 22 1 22 23
M  V30 23 1 23 24
M  V30 24 2 24 25
M  V30 25 1 25 26
M  V30 26 1 25 27
M  V30 27 2 27 28
M  V30 28 1 28 29
M  V30 29 2 29 30
M  V30 30 1 30 31
M  V30 31 1 22 32
M  V30 32 1 13 33
M  V30 33 2 33 34
M  V30 34 1 6 35
M  V30 35 2 35 36
M  V30 36 1 36 37
M  V30 37 2 37 38
M  V30 38 1 38 2
M  V30 39 1 37 4
M  V30 40 1 34 7
M  V30 41 1 34 10
M  V30 42 1 21 17
M  V30 43 1 30 24
M  V30 44 1 32 19
M  V30 45 1 1 39
M  V30 46 1 1 40
M  V30 47 1 1 41
M  V30 48 1 3 42
M  V30 49 1 5 43
M  V30 50 1 9 44
M  V30 51 1 11 45
M  V30 52 1 12 46
M  V30 53 1 16 47
M  V30 54 1 17 48
M  V30 55 1 18 49
M  V30 56 1 18 50
M  V30 57 1 19 51 CFG=3
M  V30 58 1 20 52
M  V30 59 1 20 53
M  V30 60 1 21 54 CFG=1
M  V30 61 1 23 55
M  V30 62 1 23 56
M  V30 63 1 27 57
M  V30 64 1 28 58
M  V30 65 1 29 59
M  V30 66 1 32 60
M  V30 67 1 32 61
M  V30 68 1 33 62
M  V30 69 1 35 63
M  V30 70 1 36 64
M  V30 END BOND
M  V30 END CTAB
M  END
>  <Dataset>  (443) 
ChEMBL_Kinases

>  <Ligand_Instance>  (443) 
nan

>  <PDB_ID>  (443) 
nan

>  <Standardized_SMILES>  (443) 
Cn1cc2cc(-c3n[nH]c4ccc(C(=O)NC5C[C@@H]6C[C@H]5N(Cc5c(F)cccc5F)C6)cc34)ccc2n1

>  <Name>  (443) 
nan

>  <Pocket>  (443) 
nan

>  <ATP_Site>  (443) 
nan

>  <Peripheral>  (443) 
nan

>  <Num_H_Atoms_ProtBoundConf>  (443) 
nan

>  <Num_Resolved_Atoms>  (443) 
nan

>  <Num_Not_Resolved_Atoms>  (443) 
nan

$$$$
CHEMBL3654533
     RDKit          3D

  0  0  0  0  0  0  0  0  0  0999 V3000
M  V30 BEGIN CTAB
M  V30 COUNTS 67 72 0 0 0
M  V30 BEGIN ATOM
M  V30 1 C 5.754115 -2.805386 1.195926 0
M  V30 2 O 4.548425 -2.057600 1.125845 0
M  V30 3 C 3.760623 -2.006677 2.272105 0
M  V30 4 C 4.131787 -2.662166 3.452408 0
M  V30 5 C 3.364160 -2.622264 4.595875 0
M  V30 6 C 2.180749 -1.911981 4.591143 0
M  V30 7 C 1.832739 -1.273903 3.420394 0
M  V30 8 F 0.683357 -0.574754 3.378415 0
M  V30 9 C 2.569862 -1.280734 2.236994 0
M  V30 10 C 2.095519 -0.557805 1.029015 0
M  V30 11 N 2.763091 0.641011 0.742514 0
M  V30 12 C 2.273230 1.267094 -0.421406 0
M  V30 13 C 0.972238 1.981060 -0.156559 0
M  V30 14 N -0.153270 1.266135 -0.706061 0
M  V30 15 C -0.898520 1.815711 -1.794281 0
M  V30 16 O -0.561182 2.935579 -2.271196 0
M  V30 17 C -2.048891 1.199940 -2.436879 0
M  V30 18 C -2.663392 1.839945 -3.473841 0
M  V30 19 C -3.769410 1.284459 -4.116757 0
M  V30 20 C -4.298754 0.069379 -3.744349 0
M  V30 21 N -5.317968 -0.727918 -4.132352 0
M  V30 22 N -5.354075 -1.809127 -3.391618 0
M  V30 23 C -4.359009 -1.781129 -2.475120 0
M  V30 24 C -4.084374 -2.809669 -1.479689 0
M  V30 25 C -4.098900 -4.139808 -1.877432 0
M  V30 26 C -3.844623 -5.150015 -0.969868 0
M  V30 27 C -3.570041 -4.867841 0.352466 0
M  V30 28 N -3.293294 -5.658879 1.416933 0
M  V30 29 C -3.104839 -4.832748 2.482095 0
M  V30 30 C -3.274465 -3.531521 2.033213 0
M  V30 31 N -3.560729 -3.571182 0.718166 0
M  V30 32 C -3.805604 -2.581618 -0.151664 0
M  V30 33 C -3.689681 -0.589908 -2.698728 0
M  V30 34 C -2.598326 -0.014272 -2.083977 0
M  V30 35 C 0.835567 2.412879 1.247685 0
M  V30 36 C 2.200866 2.718083 1.882766 0
M  V30 37 C 1.994689 3.059431 3.306624 0
M  V30 38 O 2.341589 4.178120 3.756098 0
M  V30 39 O 1.427279 2.236119 4.262669 0
M  V30 40 C 3.116291 1.525522 1.770802 0
M  V30 41 H 6.319923 -2.387479 2.058123 0
M  V30 42 H 5.457815 -3.859443 1.401314 0
M  V30 43 H 6.356243 -2.714774 0.279169 0
M  V30 44 H 5.067309 -3.234267 3.484374 0
M  V30 45 H 3.622800 -3.114481 5.514990 0
M  V30 46 H 1.512673 -1.823321 5.439078 0
M  V30 47 H 1.013199 -0.369145 1.182262 0
M  V30 48 H 2.126362 -1.276024 0.158543 0
M  V30 49 H 2.076540 0.447628 -1.188132 0
M  V30 50 H 3.011878 1.943511 -0.916726 0
M  V30 51 H 1.038592 2.940281 -0.765862 0
M  V30 52 H -0.561640 0.344902 -0.436082 0
M  V30 53 H -2.347560 2.807067 -3.869515 0
M  V30 54 H -4.248940 1.800205 -4.937658 0
M  V30 55 H -5.963827 -0.480443 -4.917509 0
M  V30 56 H -4.307876 -4.414408 -2.898612 0
M  V30 57 H -3.860955 -6.182989 -1.302244 0
M  V30 58 H -2.869260 -5.098355 3.490039 0
M  V30 59 H -3.195144 -2.617055 2.622837 0
M  V30 60 H -3.787838 -1.560345 0.184624 0
M  V30 61 H -2.157468 -0.571289 -1.270213 0
M  V30 62 H 0.291569 1.781310 1.939273 0
M  V30 63 H 0.312320 3.412783 1.318355 0
M  V30 64 H 2.606336 3.592174 1.334435 0
M  V30 65 H 0.674190 2.537424 4.876004 0
M  V30 66 H 4.151412 1.966264 1.660404 0
M  V30 67 H 3.175280 1.018488 2.775133 0
M  V30 END ATOM
M  V30 BEGIN BOND
M  V30 1 1 1 2
M  V30 2 1 2 3
M  V30 3 2 3 4
M  V30 4 1 4 5
M  V30 5 2 5 6
M  V30 6 1 6 7
M  V30 7 1 7 8
M  V30 8 2 7 9
M  V30 9 1 9 10
M  V30 10 1 10 11
M  V30 11 1 11 12
M  V30 12 1 12 13
M  V30 13 1 13 14
M  V30 14 1 14 15
M  V30 15 2 15 16
M  V30 16 1 15 17
M  V30 17 2 17 18
M  V30 18 1 18 19
M  V30 19 2 19 20
M  V30 20 1 20 21
M  V30 21 1 21 22
M  V30 22 2 22 23
M  V30 23 1 23 24
M  V30 24 1 24 25
M  V30 25 2 25 26
M  V30 26 1 26 27
M  V30 27 2 27 28
M  V30 28 1 28 29
M  V30 29 2 29 30
M  V30 30 1 30 31
M  V30 31 1 31 32
M  V30 32 1 23 33
M  V30 33 2 33 34
M  V30 34 1 13 35
M  V30 35 1 35 36
M  V30 36 1 36 37
M  V30 37 2 37 38
M  V30 38 1 37 39
M  V30 39 1 36 40
M  V30 40 1 9 3
M  V30 41 1 40 11
M  V30 42 1 34 17
M  V30 43 1 33 20
M  V30 44 2 32 24
M  V30 45 1 31 27
M  V30 46 1 1 41
M  V30 47 1 1 42
M  V30 48 1 1 43
M  V30 49 1 4 44
M  V30 50 1 5 45
M  V30 51 1 6 46
M  V30 52 1 10 47
M  V30 53 1 10 48
M  V30 54 1 12 49
M  V30 55 1 12 50
M  V30 56 1 13 51
M  V30 57 1 14 52
M  V30 58 1 18 53
M  V30 59 1 19 54
M  V30 60 1 21 55
M  V30 61 1 25 56
M  V30 62 1 26 57
M  V30 63 1 29 58
M  V30 64 1 30 59
M  V30 65 1 32 60
M  V30 66 1 34 61
M  V30 67 1 35 62
M  V30 68 1 35 63
M  V30 69 1 36 64
M  V30 70 1 39 65
M  V30 71 1 40 66
M  V30 72 1 40 67
M  V30 END BOND
M  V30 END CTAB
M  END
>  <Dataset>  (444) 
ChEMBL_Kinases

>  <Ligand_Instance>  (444) 
nan

>  <PDB_ID>  (444) 
nan

>  <Standardized_SMILES>  (444) 
COc1cccc(F)c1CN1CC(NC(=O)c2ccc3[nH]nc(-c4ccc5nccn5c4)c3c2)CC(C(=O)O)C1

>  <Name>  (444) 
nan

>  <Pocket>  (444) 
nan

>  <ATP_Site>  (444) 
nan

>  <Peripheral>  (444) 
nan

>  <Num_H_Atoms_ProtBoundConf>  (444) 
nan

>  <Num_Resolved_Atoms>  (444) 
nan

>  <Num_Not_Resolved_Atoms>  (444) 
nan

$$$$
CHEMBL3654459
     RDKit          3D

  0  0  0  0  0  0  0  0  0  0999 V3000
M  V30 BEGIN CTAB
M  V30 COUNTS 56 60 0 0 0
M  V30 BEGIN ATOM
M  V30 1 O 0.116395 -2.338261 1.673748 0
M  V30 2 C 0.175756 -1.656906 0.632759 0
M  V30 3 N 1.114927 -0.597136 0.709785 0
M  V30 4 C 1.939817 -0.286826 1.833848 0
M  V30 5 C 3.409989 -0.494826 1.630991 0
M  V30 6 C 4.038332 -0.102134 2.977174 0
M  V30 7 C 3.963536 1.416589 3.004625 0
M  V30 8 N 2.743427 1.950942 2.518857 0
M  V30 9 C 2.857226 2.898339 1.458052 0
M  V30 10 C 1.552165 3.433281 0.978822 0
M  V30 11 C 0.892516 3.088719 -0.180748 0
M  V30 12 C -0.326228 3.693039 -0.472365 0
M  V30 13 C -0.905491 4.623254 0.348013 0
M  V30 14 C -0.238853 4.974718 1.524690 0
M  V30 15 C 0.983268 4.382325 1.837402 0
M  V30 16 F 1.551999 4.799585 3.016243 0
M  V30 17 C 1.640983 1.053896 2.463476 0
M  V30 18 C -0.623331 -1.897660 -0.557837 0
M  V30 19 C -0.554739 -1.150235 -1.688786 0
M  V30 20 C -1.329369 -1.392622 -2.828269 0
M  V30 21 C -2.213164 -2.475116 -2.760625 0
M  V30 22 N -3.089552 -2.976726 -3.663810 0
M  V30 23 N -3.691108 -4.025234 -3.088963 0
M  V30 24 C -3.215212 -4.198041 -1.843026 0
M  V30 25 C -3.708258 -5.278417 -0.996522 0
M  V30 26 C -5.031034 -5.594732 -0.854009 0
M  V30 27 C -5.456652 -6.635524 -0.034344 0
M  V30 28 N -4.558863 -7.369870 0.650966 0
M  V30 29 C -3.251458 -7.054128 0.507505 0
M  V30 30 C -2.778933 -6.030778 -0.293566 0
M  V30 31 C -2.268985 -3.223477 -1.602504 0
M  V30 32 C -1.506598 -2.981040 -0.487682 0
M  V30 33 H 1.265550 0.056304 -0.101006 0
M  V30 34 H 1.673306 -1.059813 2.612504 0
M  V30 35 H 3.899652 0.164400 0.913023 0
M  V30 36 H 3.630020 -1.553046 1.438194 0
M  V30 37 H 3.453355 -0.576052 3.761149 0
M  V30 38 H 5.092993 -0.431449 2.959627 0
M  V30 39 H 4.116115 1.700450 4.080072 0
M  V30 40 H 4.851872 1.836549 2.474337 0
M  V30 41 H 3.497619 3.745965 1.828968 0
M  V30 42 H 3.363417 2.525086 0.545641 0
M  V30 43 H 1.397692 2.352899 -0.783777 0
M  V30 44 H -0.780404 3.372009 -1.395607 0
M  V30 45 H -1.855472 5.052519 0.058296 0
M  V30 46 H -0.718060 5.710156 2.152470 0
M  V30 47 H 1.263644 0.963347 3.519664 0
M  V30 48 H 0.808586 1.530230 1.920288 0
M  V30 49 H 0.119169 -0.321430 -1.745990 0
M  V30 50 H -1.244058 -0.776714 -3.702857 0
M  V30 51 H -3.270364 -2.618424 -4.633576 0
M  V30 52 H -5.771479 -5.017028 -1.396124 0
M  V30 53 H -6.530227 -6.843456 0.041439 0
M  V30 54 H -2.573375 -7.691916 1.093583 0
M  V30 55 H -1.707533 -5.886054 -0.317306 0
M  V30 56 H -1.591021 -3.595397 0.385938 0
M  V30 END ATOM
M  V30 BEGIN BOND
M  V30 1 2 1 2
M  V30 2 1 2 3
M  V30 3 1 3 4
M  V30 4 1 4 5
M  V30 5 1 5 6
M  V30 6 1 6 7
M  V30 7 1 7 8
M  V30 8 1 8 9
M  V30 9 1 9 10
M  V30 10 2 10 11
M  V30 11 1 11 12
M  V30 12 2 12 13
M  V30 13 1 13 14
M  V30 14 2 14 15
M  V30 15 1 15 16
M  V30 16 1 8 17
M  V30 17 1 2 18
M  V30 18 2 18 19
M  V30 19 1 19 20
M  V30 20 2 20 21
M  V30 21 1 21 22
M  V30 22 1 22 23
M  V30 23 2 23 24
M  V30 24 1 24 25
M  V30 25 2 25 26
M  V30 26 1 26 27
M  V30 27 2 27 28
M  V30 28 1 28 29
M  V30 29 2 29 30
M  V30 30 1 24 31
M  V30 31 2 31 32
M  V30 32 1 17 4
M  V30 33 1 32 18
M  V30 34 1 15 10
M  V30 35 1 31 21
M  V30 36 1 30 25
M  V30 37 1 3 33
M  V30 38 1 4 34
M  V30 39 1 5 35
M  V30 40 1 5 36
M  V30 41 1 6 37
M  V30 42 1 6 38
M  V30 43 1 7 39
M  V30 44 1 7 40
M  V30 45 1 9 41
M  V30 46 1 9 42
M  V30 47 1 11 43
M  V30 48 1 12 44
M  V30 49 1 13 45
M  V30 50 1 14 46
M  V30 51 1 17 47
M  V30 52 1 17 48
M  V30 53 1 19 49
M  V30 54 1 20 50
M  V30 55 1 22 51
M  V30 56 1 26 52
M  V30 57 1 27 53
M  V30 58 1 29 54
M  V30 59 1 30 55
M  V30 60 1 32 56
M  V30 END BOND
M  V30 END CTAB
M  END
>  <Dataset>  (445) 
ChEMBL_Kinases

>  <Ligand_Instance>  (445) 
nan

>  <PDB_ID>  (445) 
nan

>  <Standardized_SMILES>  (445) 
O=C(NC1CCCN(Cc2ccccc2F)C1)c1ccc2[nH]nc(-c3ccncc3)c2c1

>  <Name>  (445) 
nan

>  <Pocket>  (445) 
nan

>  <ATP_Site>  (445) 
nan

>  <Peripheral>  (445) 
nan

>  <Num_H_Atoms_ProtBoundConf>  (445) 
nan

>  <Num_Resolved_Atoms>  (445) 
nan

>  <Num_Not_Resolved_Atoms>  (445) 
nan

$$$$
CHEMBL3654458
     RDKit          3D

  0  0  0  0  0  0  0  0  0  0999 V3000
M  V30 BEGIN CTAB
M  V30 COUNTS 81 86 0 0 0
M  V30 BEGIN ATOM
M  V30 1 C 3.956308 -4.271375 -0.619880 0
M  V30 2 O 3.033973 -3.583495 -1.425092 0
M  V30 3 C 3.302987 -2.956714 -2.612256 0
M  V30 4 C 4.583235 -2.960311 -3.130756 0
M  V30 5 C 4.797337 -2.313586 -4.331537 0
M  V30 6 C 3.779160 -1.669135 -5.023244 0
M  V30 7 C 2.507662 -1.683332 -4.477655 0
M  V30 8 F 1.556036 -1.041611 -5.206121 0
M  V30 9 C 2.247234 -2.326753 -3.263154 0
M  V30 10 C 0.867177 -2.313021 -2.724246 0
M  V30 11 N 0.784793 -1.388210 -1.642448 0
M  V30 12 C -0.522945 -1.289290 -1.045851 0
M  V30 13 C -0.342316 -0.592653 0.282688 0 CFG=2
M  V30 14 N -1.519582 -0.693085 1.114042 0
M  V30 15 C -1.378087 -1.285875 2.373804 0
M  V30 16 O -0.241372 -1.699101 2.719111 0
M  V30 17 C -2.483814 -1.449743 3.309834 0
M  V30 18 C -2.187610 -2.039503 4.544443 0
M  V30 19 C -3.171404 -2.236964 5.499084 0
M  V30 20 C -4.435111 -1.836587 5.192102 0
M  V30 21 N -5.605116 -1.883294 5.887082 0
M  V30 22 N -6.581023 -1.364946 5.159352 0
M  V30 23 C -6.096016 -0.959173 3.964957 0
M  V30 24 C -6.914908 -0.342741 2.927948 0
M  V30 25 C -8.119326 -0.983569 2.716077 0
M  V30 26 C -9.034359 -0.549154 1.772716 0
M  V30 27 N -8.701565 0.537623 1.059008 0
M  V30 28 C -7.535948 1.201609 1.226955 0
M  V30 29 C -7.193939 2.405509 0.419768 0
M  V30 30 C -6.624795 0.768455 2.166403 0
M  V30 31 C -4.747002 -1.255080 3.984549 0
M  V30 32 C -3.770168 -1.056907 3.031710 0
M  V30 33 C -0.038595 0.866573 -0.066035 0
M  V30 34 C 0.530599 0.996575 -1.442563 0
M  V30 35 C 1.479747 -0.148831 -1.803947 0 CFG=1
M  V30 36 C 2.639969 -0.165050 -0.872198 0
M  V30 37 O 3.178678 -0.860777 0.024811 0
M  V30 38 N 3.656918 0.842662 -0.746709 0
M  V30 39 C 4.573196 0.387015 0.302490 0
M  V30 40 C 5.678457 1.416536 0.505235 0
M  V30 41 C 6.380422 1.521286 -0.840476 0
M  V30 42 O 7.609073 2.166572 -0.745781 0
M  V30 43 C 5.449236 2.173086 -1.808655 0
M  V30 44 C 4.005791 2.133572 -1.358011 0
M  V30 45 H 3.975646 -5.363779 -0.827837 0
M  V30 46 H 4.990743 -3.874063 -0.664894 0
M  V30 47 H 3.636868 -4.182745 0.449352 0
M  V30 48 H 5.420211 -3.455018 -2.622940 0
M  V30 49 H 5.802632 -2.301750 -4.764021 0
M  V30 50 H 3.981364 -1.163323 -5.976887 0
M  V30 51 H 0.688042 -3.334858 -2.320576 0
M  V30 52 H 0.144814 -2.130904 -3.531285 0
M  V30 53 H -1.259321 -0.722166 -1.634351 0
M  V30 54 H -0.885345 -2.325753 -0.907024 0
M  V30 55 H 0.550211 -1.041318 0.761565 0
M  V30 56 H -2.434908 -0.334795 0.779685 0
M  V30 57 H -1.181066 -2.370633 4.820945 0
M  V30 58 H -2.903258 -2.703136 6.460191 0
M  V30 59 H -5.649050 -2.289178 6.861099 0
M  V30 60 H -8.440762 -1.869442 3.266983 0
M  V30 61 H -9.996477 -1.054772 1.596917 0
M  V30 62 H -7.402366 3.294097 1.018660 0
M  V30 63 H -7.731165 2.397827 -0.556490 0
M  V30 64 H -6.094416 2.392233 0.247276 0
M  V30 65 H -5.672004 1.223321 2.378228 0
M  V30 66 H -4.006775 -0.600650 2.080473 0
M  V30 67 H 0.559313 1.367295 0.710079 0
M  V30 68 H -1.040469 1.385700 -0.062833 0
M  V30 69 H 1.084646 1.943873 -1.518751 0
M  V30 70 H -0.267530 0.962042 -2.225517 0
M  V30 71 H 1.877853 0.068650 -2.792255 0
M  V30 72 H 5.067885 -0.557673 0.043409 0
M  V30 73 H 4.076913 0.277525 1.271299 0
M  V30 74 H 5.253908 2.381257 0.802165 0
M  V30 75 H 6.373620 0.984390 1.250353 0
M  V30 76 H 6.537090 0.455358 -1.165690 0
M  V30 77 H 8.258374 1.644780 -1.277981 0
M  V30 78 H 5.726513 3.267240 -1.874377 0
M  V30 79 H 5.592585 1.776924 -2.842302 0
M  V30 80 H 3.331502 2.312970 -2.220294 0
M  V30 81 H 3.841673 2.896331 -0.578753 0
M  V30 END ATOM
M  V30 BEGIN BOND
M  V30 1 1 1 2
M  V30 2 1 2 3
M  V30 3 2 3 4
M  V30 4 1 4 5
M  V30 5 2 5 6
M  V30 6 1 6 7
M  V30 7 1 7 8
M  V30 8 2 7 9
M  V30 9 1 9 10
M  V30 10 1 10 11
M  V30 11 1 11 12
M  V30 12 1 12 13
M  V30 13 1 13 14
M  V30 14 1 14 15
M  V30 15 2 15 16
M  V30 16 1 15 17
M  V30 17 2 17 18
M  V30 18 1 18 19
M  V30 19 2 19 20
M  V30 20 1 20 21
M  V30 21 1 21 22
M  V30 22 2 22 23
M  V30 23 1 23 24
M  V30 24 2 24 25
M  V30 25 1 25 26
M  V30 26 2 26 27
M  V30 27 1 27 28
M  V30 28 1 28 29
M  V30 29 2 28 30
M  V30 30 1 23 31
M  V30 31 2 31 32
M  V30 32 1 13 33
M  V30 33 1 33 34
M  V30 34 1 34 35
M  V30 35 1 35 36
M  V30 36 2 36 37
M  V30 37 1 36 38
M  V30 38 1 38 39
M  V30 39 1 39 40
M  V30 40 1 40 41
M  V30 41 1 41 42
M  V30 42 1 41 43
M  V30 43 1 43 44
M  V30 44 1 9 3
M  V30 45 1 35 11
M  V30 46 1 44 38
M  V30 47 1 32 17
M  V30 48 1 31 20
M  V30 49 1 30 24
M  V30 50 1 1 45
M  V30 51 1 1 46
M  V30 52 1 1 47
M  V30 53 1 4 48
M  V30 54 1 5 49
M  V30 55 1 6 50
M  V30 56 1 10 51
M  V30 57 1 10 52
M  V30 58 1 12 53
M  V30 59 1 12 54
M  V30 60 1 13 55 CFG=1
M  V30 61 1 14 56
M  V30 62 1 18 57
M  V30 63 1 19 58
M  V30 64 1 21 59
M  V30 65 1 25 60
M  V30 66 1 26 61
M  V30 67 1 29 62
M  V30 68 1 29 63
M  V30 69 1 29 64
M  V30 70 1 30 65
M  V30 71 1 32 66
M  V30 72 1 33 67
M  V30 73 1 33 68
M  V30 74 1 34 69
M  V30 75 1 34 70
M  V30 76 1 35 71 CFG=3
M  V30 77 1 39 72
M  V30 78 1 39 73
M  V30 79 1 40 74
M  V30 80 1 40 75
M  V30 81 1 41 76
M  V30 82 1 42 77
M  V30 83 1 43 78
M  V30 84 1 43 79
M  V30 85 1 44 80
M  V30 86 1 44 81
M  V30 END BOND
M  V30 END CTAB
M  END
>  <Dataset>  (446) 
ChEMBL_Kinases

>  <Ligand_Instance>  (446) 
nan

>  <PDB_ID>  (446) 
nan

>  <Standardized_SMILES>  (446) 
COc1cccc(F)c1CN1C[C@H](NC(=O)c2ccc3[nH]nc(-c4ccnc(C)c4)c3c2)CC[C@H]1C(=O)N1CCC(O)CC1

>  <Name>  (446) 
nan

>  <Pocket>  (446) 
nan

>  <ATP_Site>  (446) 
nan

>  <Peripheral>  (446) 
nan

>  <Num_H_Atoms_ProtBoundConf>  (446) 
nan

>  <Num_Resolved_Atoms>  (446) 
nan

>  <Num_Not_Resolved_Atoms>  (446) 
nan

$$$$
CHEMBL3654457
     RDKit          3D

  0  0  0  0  0  0  0  0  0  0999 V3000
M  V30 BEGIN CTAB
M  V30 COUNTS 83 88 0 0 0
M  V30 BEGIN ATOM
M  V30 1 C 1.867677 -2.840599 -4.765017 0
M  V30 2 O 0.685800 -2.542116 -4.046848 0
M  V30 3 C -0.309771 -1.752774 -4.593357 0
M  V30 4 C -0.123570 -1.251327 -5.882098 0
M  V30 5 C -1.124984 -0.452739 -6.441655 0
M  V30 6 C -2.273153 -0.166751 -5.734242 0
M  V30 7 C -2.397099 -0.692276 -4.465556 0
M  V30 8 F -3.547563 -0.379770 -3.824150 0
M  V30 9 C -1.455328 -1.492625 -3.833307 0
M  V30 10 C -1.629058 -2.039995 -2.477248 0
M  V30 11 N -0.822577 -1.345423 -1.534238 0
M  V30 12 C -1.138205 0.043014 -1.477498 0
M  V30 13 C -2.347459 0.399924 -0.661169 0 CFG=2
M  V30 14 N -2.188373 1.742013 -0.101064 0
M  V30 15 C -2.964216 2.921045 -0.253744 0
M  V30 16 O -3.975406 2.889990 -0.974643 0
M  V30 17 C -2.582369 4.132739 0.418019 0
M  V30 18 C -3.386875 5.242919 0.210543 0
M  V30 19 C -3.148739 6.481028 0.786455 0
M  V30 20 C -2.039789 6.605308 1.615619 0
M  V30 21 N -1.488029 7.597242 2.333346 0
M  V30 22 N -0.399922 7.155841 2.961866 0
M  V30 23 C -0.206177 5.841012 2.668154 0
M  V30 24 C 0.917105 5.072738 3.214911 0
M  V30 25 C 2.215543 5.564622 3.243339 0
M  V30 26 C 3.204518 4.746629 3.787434 0
M  V30 27 N 2.957540 3.526550 4.275328 0
M  V30 28 C 1.721946 3.007969 4.270408 0
M  V30 29 C 1.453511 1.653596 4.813673 0
M  V30 30 C 0.709984 3.800631 3.733351 0
M  V30 31 C -1.252243 5.490934 1.809920 0
M  V30 32 C -1.493404 4.261492 1.234856 0
M  V30 33 C -2.618027 -0.497747 0.500099 0
M  V30 34 C -2.234153 -1.935109 0.298898 0
M  V30 35 C -0.810750 -1.907472 -0.217738 0 CFG=1
M  V30 36 C -0.147243 -3.232919 -0.176740 0
M  V30 37 O 0.353996 -3.769420 -1.224278 0
M  V30 38 N 0.018121 -4.044201 0.953908 0
M  V30 39 C 0.716541 -5.240568 0.541365 0
M  V30 40 C 2.087175 -5.126411 0.644753 0
M  V30 41 C 2.817696 -6.248262 0.258663 0
M  V30 42 C 2.167624 -7.381440 -0.193334 0
M  V30 43 C 3.056389 -8.521299 -0.579068 0
M  V30 44 C 0.785615 -7.419586 -0.268886 0
M  V30 45 C 0.020430 -6.345974 0.097936 0
M  V30 46 C -1.441956 -6.364822 0.024602 0
M  V30 47 H 1.672766 -3.136964 -5.819851 0
M  V30 48 H 2.427373 -3.667153 -4.305216 0
M  V30 49 H 2.546929 -1.951151 -4.754376 0
M  V30 50 H 0.741447 -1.440686 -6.469577 0
M  V30 51 H -0.997448 -0.052650 -7.444593 0
M  V30 52 H -3.040142 0.453019 -6.176255 0
M  V30 53 H -2.709397 -1.840791 -2.211016 0
M  V30 54 H -1.541200 -3.138961 -2.435835 0
M  V30 55 H -0.268821 0.616787 -1.079529 0
M  V30 56 H -1.322366 0.371220 -2.520129 0
M  V30 57 H -3.272098 0.463071 -1.276415 0
M  V30 58 H -1.325663 1.675499 0.483224 0
M  V30 59 H -4.278026 5.224439 -0.428794 0
M  V30 60 H -3.783268 7.337382 0.616494 0
M  V30 61 H -1.919486 8.543595 2.337837 0
M  V30 62 H 2.386156 6.548402 2.844564 0
M  V30 63 H 4.223682 5.156808 3.799148 0
M  V30 64 H 1.709538 1.588663 5.893856 0
M  V30 65 H 2.029546 0.897671 4.211140 0
M  V30 66 H 0.384150 1.419231 4.732266 0
M  V30 67 H -0.280740 3.356786 3.742282 0
M  V30 68 H -0.855070 3.422115 1.413531 0
M  V30 69 H -1.970773 -0.136454 1.353335 0
M  V30 70 H -3.661664 -0.339212 0.829663 0
M  V30 71 H -2.270307 -2.396711 1.329337 0
M  V30 72 H -2.928355 -2.521197 -0.300966 0
M  V30 73 H -0.288974 -1.145102 0.420095 0
M  V30 74 H -0.368568 -3.678149 1.875183 0
M  V30 75 H 2.596186 -4.258735 0.991027 0
M  V30 76 H 3.905024 -6.187228 0.329446 0
M  V30 77 H 3.332313 -9.168532 0.259446 0
M  V30 78 H 2.616028 -9.138772 -1.373495 0
M  V30 79 H 4.018132 -8.133077 -1.018693 0
M  V30 80 H 0.327510 -8.340656 -0.632383 0
M  V30 81 H -1.783398 -7.375193 0.330978 0
M  V30 82 H -1.814878 -6.261687 -1.036530 0
M  V30 83 H -1.921497 -5.656482 0.697372 0
M  V30 END ATOM
M  V30 BEGIN BOND
M  V30 1 1 1 2
M  V30 2 1 2 3
M  V30 3 2 3 4
M  V30 4 1 4 5
M  V30 5 2 5 6
M  V30 6 1 6 7
M  V30 7 1 7 8
M  V30 8 2 7 9
M  V30 9 1 9 10
M  V30 10 1 10 11
M  V30 11 1 11 12
M  V30 12 1 12 13
M  V30 13 1 13 14
M  V30 14 1 14 15
M  V30 15 2 15 16
M  V30 16 1 15 17
M  V30 17 2 17 18
M  V30 18 1 18 19
M  V30 19 2 19 20
M  V30 20 1 20 21
M  V30 21 1 21 22
M  V30 22 2 22 23
M  V30 23 1 23 24
M  V30 24 2 24 25
M  V30 25 1 25 26
M  V30 26 2 26 27
M  V30 27 1 27 28
M  V30 28 1 28 29
M  V30 29 2 28 30
M  V30 30 1 23 31
M  V30 31 2 31 32
M  V30 32 1 13 33
M  V30 33 1 33 34
M  V30 34 1 34 35
M  V30 35 1 35 36
M  V30 36 2 36 37
M  V30 37 1 36 38
M  V30 38 1 38 39
M  V30 39 2 39 40
M  V30 40 1 40 41
M  V30 41 2 41 42
M  V30 42 1 42 43
M  V30 43 1 42 44
M  V30 44 2 44 45
M  V30 45 1 45 46
M  V30 46 1 9 3
M  V30 47 1 35 11
M  V30 48 1 45 39
M  V30 49 1 32 17
M  V30 50 1 31 20
M  V30 51 1 30 24
M  V30 52 1 1 47
M  V30 53 1 1 48
M  V30 54 1 1 49
M  V30 55 1 4 50
M  V30 56 1 5 51
M  V30 57 1 6 52
M  V30 58 1 10 53
M  V30 59 1 10 54
M  V30 60 1 12 55
M  V30 61 1 12 56
M  V30 62 1 13 57 CFG=3
M  V30 63 1 14 58
M  V30 64 1 18 59
M  V30 65 1 19 60
M  V30 66 1 21 61
M  V30 67 1 25 62
M  V30 68 1 26 63
M  V30 69 1 29 64
M  V30 70 1 29 65
M  V30 71 1 29 66
M  V30 72 1 30 67
M  V30 73 1 32 68
M  V30 74 1 33 69
M  V30 75 1 33 70
M  V30 76 1 34 71
M  V30 77 1 34 72
M  V30 78 1 35 73 CFG=1
M  V30 79 1 38 74
M  V30 80 1 40 75
M  V30 81 1 41 76
M  V30 82 1 43 77
M  V30 83 1 43 78
M  V30 84 1 43 79
M  V30 85 1 44 80
M  V30 86 1 46 81
M  V30 87 1 46 82
M  V30 88 1 46 83
M  V30 END BOND
M  V30 END CTAB
M  END
>  <Dataset>  (447) 
ChEMBL_Kinases

>  <Ligand_Instance>  (447) 
nan

>  <PDB_ID>  (447) 
nan

>  <Standardized_SMILES>  (447) 
COc1cccc(F)c1CN1C[C@H](NC(=O)c2ccc3[nH]nc(-c4ccnc(C)c4)c3c2)CC[C@H]1C(=O)Nc1ccc(C)cc1C

>  <Name>  (447) 
nan

>  <Pocket>  (447) 
nan

>  <ATP_Site>  (447) 
nan

>  <Peripheral>  (447) 
nan

>  <Num_H_Atoms_ProtBoundConf>  (447) 
nan

>  <Num_Resolved_Atoms>  (447) 
nan

>  <Num_Not_Resolved_Atoms>  (447) 
nan

$$$$
CHEMBL3654456
     RDKit          3D

  0  0  0  0  0  0  0  0  0  0999 V3000
M  V30 BEGIN CTAB
M  V30 COUNTS 77 82 0 0 0
M  V30 BEGIN ATOM
M  V30 1 C -0.831401 -4.169643 -2.556912 0
M  V30 2 O 0.393134 -3.488504 -2.377023 0
M  V30 3 C 1.435470 -3.991491 -1.600222 0
M  V30 4 C 1.254748 -5.207035 -0.987252 0
M  V30 5 C 2.228541 -5.770446 -0.212971 0
M  V30 6 C 3.424876 -5.088465 -0.049490 0
M  V30 7 C 3.605883 -3.860358 -0.668452 0
M  V30 8 F 4.810175 -3.223435 -0.473529 0
M  V30 9 C 2.629003 -3.273150 -1.457058 0
M  V30 10 C 2.839665 -1.952817 -2.072382 0
M  V30 11 N 2.281214 -0.910919 -1.289481 0
M  V30 12 C 0.926872 -0.986118 -0.903994 0
M  V30 13 C 0.707180 0.171556 0.101261 0 CFG=2
M  V30 14 N -0.418774 -0.112675 0.947448 0
M  V30 15 C -0.550171 -0.397712 2.332297 0
M  V30 16 O 0.458845 -0.440338 3.078542 0
M  V30 17 C -1.865704 -0.646786 2.906252 0
M  V30 18 C -1.927757 -0.990482 4.234942 0
M  V30 19 C -3.161578 -1.235825 4.830733 0
M  V30 20 C -4.367051 -1.149001 4.138486 0
M  V30 21 N -5.666795 -1.312568 4.403014 0
M  V30 22 N -6.358302 -1.077290 3.286679 0
M  V30 23 C -5.526929 -0.760907 2.289488 0
M  V30 24 C -5.892131 -0.426872 0.918069 0
M  V30 25 C -5.326117 -0.900666 -0.247031 0
M  V30 26 C -5.792526 -0.463819 -1.477564 0
M  V30 27 N -6.804095 0.428066 -1.541138 0
M  V30 28 C -7.382945 0.914287 -0.450696 0
M  V30 29 C -8.494842 1.898123 -0.553506 0
M  V30 30 C -6.922742 0.482639 0.799647 0
M  V30 31 C -4.233459 -0.799938 2.813090 0
M  V30 32 C -3.035280 -0.554134 2.200058 0
M  V30 33 C 0.552947 1.384115 -0.760816 0
M  V30 34 C 1.642245 1.448217 -1.794557 0
M  V30 35 C 2.675362 0.406388 -1.695970 0 CFG=1
M  V30 36 C 3.831129 0.835480 -0.868733 0
M  V30 37 O 4.149154 2.007033 -1.292424 0
M  V30 38 N 4.599639 0.281824 0.199439 0
M  V30 39 C 5.566389 1.321958 0.469223 0
M  V30 40 C 6.737234 1.222040 -0.268595 0
M  V30 41 C 7.656760 2.196513 -0.027141 0
M  V30 42 C 7.417163 3.196716 0.887746 0
M  V30 43 F 8.372174 4.129634 1.075315 0
M  V30 44 C 6.239598 3.279900 1.616733 0
M  V30 45 C 5.272731 2.299201 1.396874 0
M  V30 46 H -1.321135 -3.707073 -3.458370 0
M  V30 47 H -0.691032 -5.257424 -2.691615 0
M  V30 48 H -1.458638 -3.947393 -1.661568 0
M  V30 49 H 0.367528 -5.820676 -1.046402 0
M  V30 50 H 2.171329 -6.722421 0.306592 0
M  V30 51 H 4.230227 -5.485493 0.550645 0
M  V30 52 H 3.950160 -1.779827 -2.145207 0
M  V30 53 H 2.493076 -1.973785 -3.125029 0
M  V30 54 H 0.683037 -1.878557 -0.291670 0
M  V30 55 H 0.167668 -0.849978 -1.679400 0
M  V30 56 H 1.627231 0.210646 0.707945 0
M  V30 57 H -1.214264 -0.071616 0.289522 0
M  V30 58 H -1.043512 -1.074119 4.830867 0
M  V30 59 H -3.208574 -1.507820 5.873103 0
M  V30 60 H -5.979778 -1.580867 5.361293 0
M  V30 61 H -4.528817 -1.607011 -0.117374 0
M  V30 62 H -5.339744 -0.845627 -2.376641 0
M  V30 63 H -8.091466 2.899610 -0.877725 0
M  V30 64 H -8.983487 2.065742 0.428132 0
M  V30 65 H -9.187854 1.571460 -1.339275 0
M  V30 66 H -7.427059 0.909564 1.648945 0
M  V30 67 H -3.020005 -0.287584 1.174623 0
M  V30 68 H 0.420493 2.317456 -0.178502 0
M  V30 69 H -0.432296 1.266375 -1.304976 0
M  V30 70 H 2.157783 2.439380 -1.630541 0
M  V30 71 H 1.221818 1.546171 -2.815939 0
M  V30 72 H 3.106410 0.268715 -2.732542 0
M  V30 73 H 4.210974 -0.648703 0.406730 0
M  V30 74 H 6.897955 0.431306 -0.976146 0
M  V30 75 H 8.602344 2.169718 -0.582186 0
M  V30 76 H 6.017107 4.045196 2.339146 0
M  V30 77 H 4.314729 2.279347 1.920844 0
M  V30 END ATOM
M  V30 BEGIN BOND
M  V30 1 1 1 2
M  V30 2 1 2 3
M  V30 3 2 3 4
M  V30 4 1 4 5
M  V30 5 2 5 6
M  V30 6 1 6 7
M  V30 7 1 7 8
M  V30 8 2 7 9
M  V30 9 1 9 10
M  V30 10 1 10 11
M  V30 11 1 11 12
M  V30 12 1 12 13
M  V30 13 1 13 14
M  V30 14 1 14 15
M  V30 15 2 15 16
M  V30 16 1 15 17
M  V30 17 2 17 18
M  V30 18 1 18 19
M  V30 19 2 19 20
M  V30 20 1 20 21
M  V30 21 1 21 22
M  V30 22 2 22 23
M  V30 23 1 23 24
M  V30 24 2 24 25
M  V30 25 1 25 26
M  V30 26 2 26 27
M  V30 27 1 27 28
M  V30 28 1 28 29
M  V30 29 2 28 30
M  V30 30 1 23 31
M  V30 31 2 31 32
M  V30 32 1 13 33
M  V30 33 1 33 34
M  V30 34 1 34 35
M  V30 35 1 35 36
M  V30 36 2 36 37
M  V30 37 1 36 38
M  V30 38 1 38 39
M  V30 39 2 39 40
M  V30 40 1 40 41
M  V30 41 2 41 42
M  V30 42 1 42 43
M  V30 43 1 42 44
M  V30 44 2 44 45
M  V30 45 1 9 3
M  V30 46 1 35 11
M  V30 47 1 45 39
M  V30 48 1 32 17
M  V30 49 1 31 20
M  V30 50 1 30 24
M  V30 51 1 1 46
M  V30 52 1 1 47
M  V30 53 1 1 48
M  V30 54 1 4 49
M  V30 55 1 5 50
M  V30 56 1 6 51
M  V30 57 1 10 52
M  V30 58 1 10 53
M  V30 59 1 12 54
M  V30 60 1 12 55
M  V30 61 1 13 56 CFG=1
M  V30 62 1 14 57
M  V30 63 1 18 58
M  V30 64 1 19 59
M  V30 65 1 21 60
M  V30 66 1 25 61
M  V30 67 1 26 62
M  V30 68 1 29 63
M  V30 69 1 29 64
M  V30 70 1 29 65
M  V30 71 1 30 66
M  V30 72 1 32 67
M  V30 73 1 33 68
M  V30 74 1 33 69
M  V30 75 1 34 70
M  V30 76 1 34 71
M  V30 77 1 35 72 CFG=3
M  V30 78 1 38 73
M  V30 79 1 40 74
M  V30 80 1 41 75
M  V30 81 1 44 76
M  V30 82 1 45 77
M  V30 END BOND
M  V30 END CTAB
M  END
>  <Dataset>  (448) 
ChEMBL_Kinases

>  <Ligand_Instance>  (448) 
nan

>  <PDB_ID>  (448) 
nan

>  <Standardized_SMILES>  (448) 
COc1cccc(F)c1CN1C[C@H](NC(=O)c2ccc3[nH]nc(-c4ccnc(C)c4)c3c2)CC[C@H]1C(=O)Nc1ccc(F)cc1

>  <Name>  (448) 
nan

>  <Pocket>  (448) 
nan

>  <ATP_Site>  (448) 
nan

>  <Peripheral>  (448) 
nan

>  <Num_H_Atoms_ProtBoundConf>  (448) 
nan

>  <Num_Resolved_Atoms>  (448) 
nan

>  <Num_Not_Resolved_Atoms>  (448) 
nan

$$$$
CHEMBL3654455
     RDKit          3D

  0  0  0  0  0  0  0  0  0  0999 V3000
M  V30 BEGIN CTAB
M  V30 COUNTS 81 86 0 0 0
M  V30 BEGIN ATOM
M  V30 1 C 4.060678 -6.423167 4.023304 0
M  V30 2 O 4.647926 -5.658348 2.998623 0
M  V30 3 C 3.848011 -4.718342 2.361033 0
M  V30 4 C 2.524574 -4.491266 2.674057 0
M  V30 5 C 1.873043 -3.499547 1.923773 0
M  V30 6 C 2.531783 -2.784777 0.914426 0
M  V30 7 N 1.706865 -1.788973 0.246378 0
M  V30 8 C 1.880645 -0.518845 0.951553 0
M  V30 9 O 2.688142 -1.097293 1.761844 0
M  V30 10 C 1.059012 0.479587 0.280877 0 CFG=2
M  V30 11 C 1.194497 0.395771 -1.235279 0
M  V30 12 C 0.660313 1.640991 -1.865960 0
M  V30 13 C -0.350241 2.393711 -1.106472 0 CFG=1
M  V30 14 N -1.697108 1.896547 -1.126061 0
M  V30 15 C -2.821670 2.592087 -1.573713 0
M  V30 16 O -2.658950 3.789203 -2.014552 0
M  V30 17 C -4.215463 2.216775 -1.646752 0
M  V30 18 C -5.192001 3.100531 -2.011484 0
M  V30 19 C -6.539543 2.722538 -2.083310 0
M  V30 20 C -6.863707 1.416793 -1.774474 0
M  V30 21 N -8.037188 0.767147 -1.752428 0
M  V30 22 N -7.878095 -0.493473 -1.393264 0
M  V30 23 C -6.566151 -0.742818 -1.156020 0
M  V30 24 C -5.894867 -1.959495 -0.743012 0
M  V30 25 C -6.282079 -2.824550 0.281380 0
M  V30 26 C -5.532944 -3.946908 0.547625 0
M  V30 27 N -4.415384 -4.304188 -0.114952 0
M  V30 28 C -3.980337 -3.511058 -1.121663 0
M  V30 29 C -2.762162 -3.802325 -1.920590 0
M  V30 30 C -4.728374 -2.393500 -1.384396 0
M  V30 31 C -5.908512 0.464460 -1.394570 0
M  V30 32 C -4.602467 0.931071 -1.350313 0
M  V30 33 C 0.103219 2.663069 0.287638 0
M  V30 34 N 1.173998 1.798115 0.732116 0
M  V30 35 C 2.396193 2.445280 0.896276 0
M  V30 36 C 3.536486 1.799349 1.510000 0
M  V30 37 C 3.516401 1.699917 2.913152 0
M  V30 38 F 2.512620 2.156498 3.687237 0
M  V30 39 C 4.590246 1.097750 3.533992 0
M  V30 40 C 5.664601 0.598539 2.834212 0
M  V30 41 C 5.678239 0.698691 1.462607 0
M  V30 42 C 4.628349 1.293321 0.791106 0
M  V30 43 O 4.488634 1.473909 -0.565111 0
M  V30 44 C 5.371069 1.102108 -1.573234 0
M  V30 45 C 3.859595 -3.052626 0.640698 0
M  V30 46 C 4.524324 -4.021256 1.363842 0
M  V30 47 F 5.817792 -4.234849 1.056480 0
M  V30 48 H 3.418353 -5.833616 4.699238 0
M  V30 49 H 4.810860 -6.959736 4.646913 0
M  V30 50 H 3.432929 -7.200612 3.512428 0
M  V30 51 H 2.042399 -5.050101 3.447516 0
M  V30 52 H 0.832568 -3.301391 2.154163 0
M  V30 53 H 1.165722 -2.183707 -0.590161 0
M  V30 54 H -0.018069 0.159454 0.526377 0
M  V30 55 H 2.258370 0.173462 -1.442419 0
M  V30 56 H 0.659911 -0.525609 -1.615334 0
M  V30 57 H 0.328971 1.434241 -2.941957 0
M  V30 58 H 1.521445 2.324077 -2.048115 0
M  V30 59 H -0.421245 3.418004 -1.603493 0
M  V30 60 H -1.929864 0.936296 -0.791590 0
M  V30 61 H -4.993420 4.123848 -2.267552 0
M  V30 62 H -7.291774 3.445794 -2.372348 0
M  V30 63 H -9.000835 1.130447 -1.972949 0
M  V30 64 H -7.175260 -2.550437 0.819827 0
M  V30 65 H -5.878990 -4.594051 1.366065 0
M  V30 66 H -2.216681 -4.630012 -1.406303 0
M  V30 67 H -2.130704 -2.896932 -1.960415 0
M  V30 68 H -3.008045 -4.161316 -2.957415 0
M  V30 69 H -4.376938 -1.765320 -2.195394 0
M  V30 70 H -3.819691 0.244542 -1.056964 0
M  V30 71 H 0.363866 3.734138 0.438865 0
M  V30 72 H -0.745374 2.474585 0.985972 0
M  V30 73 H 2.748406 2.813892 -0.118342 0
M  V30 74 H 2.179230 3.428119 1.423646 0
M  V30 75 H 4.685681 0.965042 4.619671 0
M  V30 76 H 6.513720 0.122918 3.307258 0
M  V30 77 H 6.476123 0.334008 0.832206 0
M  V30 78 H 6.442843 1.401313 -1.356038 0
M  V30 79 H 5.354774 0.015657 -1.758671 0
M  V30 80 H 5.010988 1.642251 -2.506438 0
M  V30 81 H 4.310204 -2.462339 -0.153689 0
M  V30 END ATOM
M  V30 BEGIN BOND
M  V30 1 1 1 2
M  V30 2 1 2 3
M  V30 3 2 3 4
M  V30 4 1 4 5
M  V30 5 2 5 6
M  V30 6 1 6 7
M  V30 7 1 7 8
M  V30 8 2 8 9
M  V30 9 1 8 10
M  V30 10 1 10 11
M  V30 11 1 11 12
M  V30 12 1 12 13
M  V30 13 1 13 14
M  V30 14 1 14 15
M  V30 15 2 15 16
M  V30 16 1 15 17
M  V30 17 2 17 18
M  V30 18 1 18 19
M  V30 19 2 19 20
M  V30 20 1 20 21
M  V30 21 1 21 22
M  V30 22 2 22 23
M  V30 23 1 23 24
M  V30 24 2 24 25
M  V30 25 1 25 26
M  V30 26 2 26 27
M  V30 27 1 27 28
M  V30 28 1 28 29
M  V30 29 2 28 30
M  V30 30 1 23 31
M  V30 31 2 31 32
M  V30 32 1 13 33
M  V30 33 1 33 34
M  V30 34 1 34 35
M  V30 35 1 35 36
M  V30 36 2 36 37
M  V30 37 1 37 38
M  V30 38 1 37 39
M  V30 39 2 39 40
M  V30 40 1 40 41
M  V30 41 2 41 42
M  V30 42 1 42 43
M  V30 43 1 43 44
M  V30 44 1 6 45
M  V30 45 2 45 46
M  V30 46 1 46 47
M  V30 47 1 46 3
M  V30 48 1 34 10
M  V30 49 1 42 36
M  V30 50 1 32 17
M  V30 51 1 31 20
M  V30 52 1 30 24
M  V30 53 1 1 48
M  V30 54 1 1 49
M  V30 55 1 1 50
M  V30 56 1 4 51
M  V30 57 1 5 52
M  V30 58 1 7 53
M  V30 59 1 10 54 CFG=3
M  V30 60 1 11 55
M  V30 61 1 11 56
M  V30 62 1 12 57
M  V30 63 1 12 58
M  V30 64 1 13 59 CFG=3
M  V30 65 1 14 60
M  V30 66 1 18 61
M  V30 67 1 19 62
M  V30 68 1 21 63
M  V30 69 1 25 64
M  V30 70 1 26 65
M  V30 71 1 29 66
M  V30 72 1 29 67
M  V30 73 1 29 68
M  V30 74 1 30 69
M  V30 75 1 32 70
M  V30 76 1 33 71
M  V30 77 1 33 72
M  V30 78 1 35 73
M  V30 79 1 35 74
M  V30 80 1 39 75
M  V30 81 1 40 76
M  V30 82 1 41 77
M  V30 83 1 44 78
M  V30 84 1 44 79
M  V30 85 1 44 80
M  V30 86 1 45 81
M  V30 END BOND
M  V30 END CTAB
M  END
>  <Dataset>  (449) 
ChEMBL_Kinases

>  <Ligand_Instance>  (449) 
nan

>  <PDB_ID>  (449) 
nan

>  <Standardized_SMILES>  (449) 
COc1ccc(NC(=O)[C@@H]2CC[C@@H](NC(=O)c3ccc4[nH]nc(-c5ccnc(C)c5)c4c3)CN2Cc2c(F)cccc2OC)cc1F

>  <Name>  (449) 
nan

>  <Pocket>  (449) 
nan

>  <ATP_Site>  (449) 
nan

>  <Peripheral>  (449) 
nan

>  <Num_H_Atoms_ProtBoundConf>  (449) 
nan

>  <Num_Resolved_Atoms>  (449) 
nan

>  <Num_Not_Resolved_Atoms>  (449) 
nan

$$$$
CHEMBL3654454
     RDKit          3D

  0  0  0  0  0  0  0  0  0  0999 V3000
M  V30 BEGIN CTAB
M  V30 COUNTS 77 82 0 0 0
M  V30 BEGIN ATOM
M  V30 1 C -0.599057 -4.371654 -2.409251 0
M  V30 2 O 0.516864 -3.521465 -2.345227 0
M  V30 3 C 1.720760 -3.872789 -1.753978 0
M  V30 4 C 1.832724 -5.125835 -1.199560 0
M  V30 5 C 3.011608 -5.515292 -0.606818 0
M  V30 6 C 4.081440 -4.645477 -0.569908 0
M  V30 7 C 3.896105 -3.421017 -1.139019 0
M  V30 8 F 4.962870 -2.555212 -1.103301 0
M  V30 9 C 2.736465 -2.941303 -1.761048 0
M  V30 10 C 2.688511 -1.569684 -2.305569 0
M  V30 11 N 2.086410 -0.655620 -1.405859 0
M  V30 12 C 0.774331 -0.904148 -0.950007 0
M  V30 13 C 0.407337 0.226153 0.033286 0 CFG=2
M  V30 14 N -0.748905 -0.172769 0.808339 0
M  V30 15 C -0.805042 -0.405681 2.210111 0
M  V30 16 O 0.240910 -0.262350 2.894144 0
M  V30 17 C -2.005878 -0.801853 2.902485 0
M  V30 18 C -1.936483 -1.013309 4.265003 0
M  V30 19 C -3.036822 -1.396847 5.034098 0
M  V30 20 C -4.253767 -1.577286 4.425452 0
M  V30 21 N -5.512603 -1.930451 4.788970 0
M  V30 22 N -6.306308 -1.940254 3.745264 0
M  V30 23 C -5.616198 -1.592550 2.624407 0
M  V30 24 C -6.258373 -1.520770 1.313472 0
M  V30 25 C -7.122556 -2.476346 0.820423 0
M  V30 26 C -7.684432 -2.313661 -0.447358 0
M  V30 27 N -7.391475 -1.222921 -1.207129 0
M  V30 28 C -6.551287 -0.273778 -0.752750 0
M  V30 29 C -6.242807 0.923454 -1.611650 0
M  V30 30 C -5.985485 -0.427082 0.511668 0
M  V30 31 C -4.326827 -1.366222 3.061000 0
M  V30 32 C -3.236336 -0.987720 2.307783 0
M  V30 33 C 0.183326 1.451129 -0.779321 0
M  V30 34 C 1.277380 1.664201 -1.760124 0
M  V30 35 C 2.416602 0.726280 -1.673367 0 CFG=1
M  V30 36 C 3.514312 1.120268 -0.773898 0
M  V30 37 O 3.914456 0.206667 -0.010985 0
M  V30 38 N 4.116286 2.376288 -0.708623 0
M  V30 39 C 5.168544 2.838817 0.117622 0
M  V30 40 C 5.859122 2.126031 1.068650 0
M  V30 41 C 6.864048 2.610393 1.842583 0
M  V30 42 C 7.257336 3.919629 1.696570 0
M  V30 43 C 6.595287 4.676492 0.755196 0
M  V30 44 F 6.926632 5.968320 0.556296 0
M  V30 45 C 5.581340 4.144168 -0.008270 0
M  V30 46 H -1.316842 -3.911326 -3.141265 0
M  V30 47 H -0.336847 -5.393718 -2.753687 0
M  V30 48 H -1.132467 -4.487242 -1.456795 0
M  V30 49 H 0.982678 -5.794925 -1.237327 0
M  V30 50 H 3.143897 -6.489827 -0.158406 0
M  V30 51 H 5.027386 -4.903154 -0.116889 0
M  V30 52 H 3.764963 -1.244623 -2.426297 0
M  V30 53 H 2.254218 -1.548829 -3.331003 0
M  V30 54 H 0.751884 -1.810314 -0.296529 0
M  V30 55 H 0.014155 -0.912233 -1.752732 0
M  V30 56 H 1.272443 0.348890 0.709156 0
M  V30 57 H -1.603665 -0.287486 0.225222 0
M  V30 58 H -1.031569 -0.900455 4.844322 0
M  V30 59 H -2.976510 -1.560401 6.100030 0
M  V30 60 H -5.685329 -2.140081 5.803709 0
M  V30 61 H -7.342778 -3.335441 1.438367 0
M  V30 62 H -8.360831 -3.047589 -0.848960 0
M  V30 63 H -5.594975 0.644221 -2.475716 0
M  V30 64 H -5.621802 1.628317 -0.992613 0
M  V30 65 H -7.161901 1.450639 -1.885383 0
M  V30 66 H -5.334661 0.371296 0.788923 0
M  V30 67 H -3.303974 -0.825961 1.243700 0
M  V30 68 H -0.017915 2.347513 -0.135711 0
M  V30 69 H -0.781281 1.302789 -1.330679 0
M  V30 70 H 1.688123 2.699519 -1.623052 0
M  V30 71 H 0.881080 1.674277 -2.808956 0
M  V30 72 H 2.887536 0.701618 -2.704331 0
M  V30 73 H 3.685662 3.029299 -1.393862 0
M  V30 74 H 5.597702 1.092211 1.229945 0
M  V30 75 H 7.373788 2.008419 2.574423 0
M  V30 76 H 8.043321 4.390355 2.265421 0
M  V30 77 H 5.085885 4.794313 -0.747152 0
M  V30 END ATOM
M  V30 BEGIN BOND
M  V30 1 1 1 2
M  V30 2 1 2 3
M  V30 3 2 3 4
M  V30 4 1 4 5
M  V30 5 2 5 6
M  V30 6 1 6 7
M  V30 7 1 7 8
M  V30 8 2 7 9
M  V30 9 1 9 10
M  V30 10 1 10 11
M  V30 11 1 11 12
M  V30 12 1 12 13
M  V30 13 1 13 14
M  V30 14 1 14 15
M  V30 15 2 15 16
M  V30 16 1 15 17
M  V30 17 2 17 18
M  V30 18 1 18 19
M  V30 19 2 19 20
M  V30 20 1 20 21
M  V30 21 1 21 22
M  V30 22 2 22 23
M  V30 23 1 23 24
M  V30 24 2 24 25
M  V30 25 1 25 26
M  V30 26 2 26 27
M  V30 27 1 27 28
M  V30 28 1 28 29
M  V30 29 2 28 30
M  V30 30 1 23 31
M  V30 31 2 31 32
M  V30 32 1 13 33
M  V30 33 1 33 34
M  V30 34 1 34 35
M  V30 35 1 35 36
M  V30 36 2 36 37
M  V30 37 1 36 38
M  V30 38 1 38 39
M  V30 39 2 39 40
M  V30 40 1 40 41
M  V30 41 2 41 42
M  V30 42 1 42 43
M  V30 43 1 43 44
M  V30 44 2 43 45
M  V30 45 1 9 3
M  V30 46 1 35 11
M  V30 47 1 45 39
M  V30 48 1 32 17
M  V30 49 1 31 20
M  V30 50 1 30 24
M  V30 51 1 1 46
M  V30 52 1 1 47
M  V30 53 1 1 48
M  V30 54 1 4 49
M  V30 55 1 5 50
M  V30 56 1 6 51
M  V30 57 1 10 52
M  V30 58 1 10 53
M  V30 59 1 12 54
M  V30 60 1 12 55
M  V30 61 1 13 56 CFG=1
M  V30 62 1 14 57
M  V30 63 1 18 58
M  V30 64 1 19 59
M  V30 65 1 21 60
M  V30 66 1 25 61
M  V30 67 1 26 62
M  V30 68 1 29 63
M  V30 69 1 29 64
M  V30 70 1 29 65
M  V30 71 1 30 66
M  V30 72 1 32 67
M  V30 73 1 33 68
M  V30 74 1 33 69
M  V30 75 1 34 70
M  V30 76 1 34 71
M  V30 77 1 35 72 CFG=3
M  V30 78 1 38 73
M  V30 79 1 40 74
M  V30 80 1 41 75
M  V30 81 1 42 76
M  V30 82 1 45 77
M  V30 END BOND
M  V30 END CTAB
M  END
>  <Dataset>  (450) 
ChEMBL_Kinases

>  <Ligand_Instance>  (450) 
nan

>  <PDB_ID>  (450) 
nan

>  <Standardized_SMILES>  (450) 
COc1cccc(F)c1CN1C[C@H](NC(=O)c2ccc3[nH]nc(-c4ccnc(C)c4)c3c2)CC[C@H]1C(=O)Nc1cccc(F)c1

>  <Name>  (450) 
nan

>  <Pocket>  (450) 
nan

>  <ATP_Site>  (450) 
nan

>  <Peripheral>  (450) 
nan

>  <Num_H_Atoms_ProtBoundConf>  (450) 
nan

>  <Num_Resolved_Atoms>  (450) 
nan

>  <Num_Not_Resolved_Atoms>  (450) 
nan

$$$$
CHEMBL3654453
     RDKit          3D

  0  0  0  0  0  0  0  0  0  0999 V3000
M  V30 BEGIN CTAB
M  V30 COUNTS 80 85 0 0 0
M  V30 BEGIN ATOM
M  V30 1 C 2.720428 -8.125787 -0.626058 0
M  V30 2 O 2.213035 -6.825212 -0.748138 0
M  V30 3 C 2.699134 -5.907550 -1.666730 0
M  V30 4 C 3.725575 -6.194963 -2.542519 0
M  V30 5 C 4.183301 -5.274097 -3.434268 0
M  V30 6 N 3.630805 -4.051868 -3.472911 0
M  V30 7 C 2.627682 -3.711385 -2.645517 0
M  V30 8 N 1.965914 -2.437614 -2.597730 0
M  V30 9 C 2.403016 -1.350597 -1.738198 0
M  V30 10 O 3.401165 -1.926606 -1.187225 0
M  V30 11 C 1.493455 -0.221557 -1.960960 0 CFG=2
M  V30 12 C 1.422587 0.185772 -3.420146 0
M  V30 13 C 0.091926 0.894822 -3.567664 0
M  V30 14 C -0.074913 1.984768 -2.541181 0 CFG=1
M  V30 15 N -1.243822 1.830624 -1.698471 0
M  V30 16 C -2.348287 2.727054 -1.641322 0
M  V30 17 O -2.393290 3.764661 -2.347994 0
M  V30 18 C -3.490277 2.499818 -0.764910 0
M  V30 19 C -4.528427 3.410864 -0.767866 0
M  V30 20 C -5.631831 3.213794 0.062146 0
M  V30 21 C -5.742491 2.128230 0.907376 0
M  V30 22 N -6.630314 1.654966 1.800824 0
M  V30 23 N -6.197913 0.534272 2.332337 0
M  V30 24 C -4.982619 0.184632 1.822937 0
M  V30 25 C -4.181132 -0.986234 2.161114 0
M  V30 26 C -3.568369 -1.780312 1.208698 0
M  V30 27 C -2.802777 -2.893568 1.496245 0
M  V30 28 N -2.631654 -3.242812 2.784053 0
M  V30 29 C -3.201601 -2.513351 3.780845 0
M  V30 30 C -3.062603 -2.830785 5.232039 0
M  V30 31 C -3.970195 -1.394041 3.473387 0
M  V30 32 C -4.710492 1.212134 0.917860 0
M  V30 33 C -3.633904 1.428816 0.090727 0
M  V30 34 C 1.132529 2.131681 -1.650726 0
M  V30 35 N 1.698827 0.939274 -1.189413 0
M  V30 36 C 2.908993 1.120180 -0.498776 0
M  V30 37 C 2.836315 1.945546 0.728843 0
M  V30 38 C 2.833579 3.305983 0.922837 0
M  V30 39 F 2.971147 4.055071 -0.180343 0
M  V30 40 C 2.724205 3.892687 2.162306 0
M  V30 41 C 2.610828 3.121777 3.291885 0
M  V30 42 C 2.607813 1.768324 3.170788 0
M  V30 43 C 2.719257 1.188274 1.904494 0
M  V30 44 O 2.705331 -0.198153 1.894196 0
M  V30 45 C 2.590476 -1.007420 3.033042 0
M  V30 46 C 2.152786 -4.647939 -1.729344 0
M  V30 47 H 2.472548 -8.772691 -1.495380 0
M  V30 48 H 2.343953 -8.603359 0.316195 0
M  V30 49 H 3.824922 -8.128975 -0.532868 0
M  V30 50 H 4.143399 -7.189704 -2.479844 0
M  V30 51 H 4.995841 -5.517415 -4.120586 0
M  V30 52 H 1.198606 -2.636233 -3.315040 0
M  V30 53 H 0.456946 -0.589893 -1.711984 0
M  V30 54 H 2.270069 0.807745 -3.745007 0
M  V30 55 H 1.411173 -0.742934 -4.020667 0
M  V30 56 H -0.714345 0.131358 -3.427311 0
M  V30 57 H -0.005945 1.247167 -4.611759 0
M  V30 58 H -0.188897 2.927226 -3.113542 0
M  V30 59 H -1.237851 0.977621 -1.096289 0
M  V30 60 H -4.518719 4.287443 -1.400870 0
M  V30 61 H -6.471611 3.902732 0.093714 0
M  V30 62 H -7.531758 2.136361 2.019845 0
M  V30 63 H -3.673491 -1.546494 0.166062 0
M  V30 64 H -2.350614 -3.472201 0.711825 0
M  V30 65 H -2.641816 -1.958507 5.789508 0
M  V30 66 H -2.288276 -3.622970 5.303908 0
M  V30 67 H -3.980281 -3.219575 5.677518 0
M  V30 68 H -4.425793 -0.809479 4.256898 0
M  V30 69 H -2.839577 0.697034 0.118926 0
M  V30 70 H 1.845111 2.779740 -2.202589 0
M  V30 71 H 0.775292 2.720322 -0.772857 0
M  V30 72 H 3.479134 0.188523 -0.289659 0
M  V30 73 H 3.626940 1.685511 -1.182896 0
M  V30 74 H 2.733671 4.976977 2.180635 0
M  V30 75 H 2.531430 3.707666 4.207079 0
M  V30 76 H 2.518458 1.207752 4.074511 0
M  V30 77 H 2.288691 -2.024211 2.661025 0
M  V30 78 H 1.801071 -0.666929 3.754463 0
M  V30 79 H 3.532259 -1.083574 3.630369 0
M  V30 80 H 1.347680 -4.426753 -1.040096 0
M  V30 END ATOM
M  V30 BEGIN BOND
M  V30 1 1 1 2
M  V30 2 1 2 3
M  V30 3 2 3 4
M  V30 4 1 4 5
M  V30 5 2 5 6
M  V30 6 1 6 7
M  V30 7 1 7 8
M  V30 8 1 8 9
M  V30 9 2 9 10
M  V30 10 1 9 11
M  V30 11 1 11 12
M  V30 12 1 12 13
M  V30 13 1 13 14
M  V30 14 1 14 15
M  V30 15 1 15 16
M  V30 16 2 16 17
M  V30 17 1 16 18
M  V30 18 2 18 19
M  V30 19 1 19 20
M  V30 20 2 20 21
M  V30 21 1 21 22
M  V30 22 1 22 23
M  V30 23 2 23 24
M  V30 24 1 24 25
M  V30 25 2 25 26
M  V30 26 1 26 27
M  V30 27 2 27 28
M  V30 28 1 28 29
M  V30 29 1 29 30
M  V30 30 2 29 31
M  V30 31 1 24 32
M  V30 32 2 32 33
M  V30 33 1 14 34
M  V30 34 1 34 35
M  V30 35 1 35 36
M  V30 36 1 36 37
M  V30 37 2 37 38
M  V30 38 1 38 39
M  V30 39 1 38 40
M  V30 40 2 40 41
M  V30 41 1 41 42
M  V30 42 2 42 43
M  V30 43 1 43 44
M  V30 44 1 44 45
M  V30 45 2 7 46
M  V30 46 1 46 3
M  V30 47 1 35 11
M  V30 48 1 43 37
M  V30 49 1 33 18
M  V30 50 1 32 21
M  V30 51 1 31 25
M  V30 52 1 1 47
M  V30 53 1 1 48
M  V30 54 1 1 49
M  V30 55 1 4 50
M  V30 56 1 5 51
M  V30 57 1 8 52
M  V30 58 1 11 53 CFG=1
M  V30 59 1 12 54
M  V30 60 1 12 55
M  V30 61 1 13 56
M  V30 62 1 13 57
M  V30 63 1 14 58 CFG=3
M  V30 64 1 15 59
M  V30 65 1 19 60
M  V30 66 1 20 61
M  V30 67 1 22 62
M  V30 68 1 26 63
M  V30 69 1 27 64
M  V30 70 1 30 65
M  V30 71 1 30 66
M  V30 72 1 30 67
M  V30 73 1 31 68
M  V30 74 1 33 69
M  V30 75 1 34 70
M  V30 76 1 34 71
M  V30 77 1 36 72
M  V30 78 1 36 73
M  V30 79 1 40 74
M  V30 80 1 41 75
M  V30 81 1 42 76
M  V30 82 1 45 77
M  V30 83 1 45 78
M  V30 84 1 45 79
M  V30 85 1 46 80
M  V30 END BOND
M  V30 END CTAB
M  END
>  <Dataset>  (451) 
ChEMBL_Kinases

>  <Ligand_Instance>  (451) 
nan

>  <PDB_ID>  (451) 
nan

>  <Standardized_SMILES>  (451) 
COc1ccnc(NC(=O)[C@@H]2CC[C@@H](NC(=O)c3ccc4[nH]nc(-c5ccnc(C)c5)c4c3)CN2Cc2c(F)cccc2OC)c1

>  <Name>  (451) 
nan

>  <Pocket>  (451) 
nan

>  <ATP_Site>  (451) 
nan

>  <Peripheral>  (451) 
nan

>  <Num_H_Atoms_ProtBoundConf>  (451) 
nan

>  <Num_Resolved_Atoms>  (451) 
nan

>  <Num_Not_Resolved_Atoms>  (451) 
nan

$$$$
CHEMBL3654452
     RDKit          3D

  0  0  0  0  0  0  0  0  0  0999 V3000
M  V30 BEGIN CTAB
M  V30 COUNTS 87 92 0 0 0
M  V30 BEGIN ATOM
M  V30 1 C 2.014576 -5.733212 -2.870306 0
M  V30 2 O 2.682772 -4.517622 -2.833542 0
M  V30 3 C 3.688677 -4.110883 -2.013294 0
M  V30 4 C 4.160083 -4.986236 -1.060147 0
M  V30 5 C 5.181065 -4.616268 -0.210409 0
M  V30 6 C 5.722155 -3.361957 -0.327436 0
M  V30 7 C 5.215731 -2.522239 -1.296832 0
M  V30 8 F 5.783566 -1.295508 -1.371596 0
M  V30 9 C 4.179928 -2.840611 -2.188713 0
M  V30 10 C 3.756016 -1.795529 -3.143836 0
M  V30 11 N 2.618646 -1.111885 -2.693044 0
M  V30 12 C 1.406882 -1.730413 -2.464742 0
M  V30 13 C 0.293691 -0.720775 -2.292317 0 CFG=2
M  V30 14 N -0.973865 -1.409461 -2.135155 0
M  V30 15 C -1.837539 -1.247384 -1.048697 0
M  V30 16 O -1.407949 -0.418773 -0.178075 0
M  V30 17 C -3.110438 -1.936022 -0.886820 0
M  V30 18 C -3.678451 -2.837791 -1.745110 0
M  V30 19 C -4.898208 -3.413910 -1.458900 0
M  V30 20 C -5.607270 -3.122441 -0.312203 0
M  V30 21 N -6.778223 -3.483103 0.264254 0
M  V30 22 N -6.956545 -2.861842 1.410662 0
M  V30 23 C -5.902196 -2.049656 1.654668 0
M  V30 24 C -5.739304 -1.198945 2.829530 0
M  V30 25 C -5.325303 0.111960 2.794433 0
M  V30 26 C -5.190581 0.865094 3.960338 0
M  V30 27 N -5.472619 0.298919 5.162237 0
M  V30 28 C -5.880380 -0.981617 5.234831 0
M  V30 29 C -6.187357 -1.593772 6.559649 0
M  V30 30 C -6.017817 -1.741745 4.075444 0
M  V30 31 C -5.057482 -2.222400 0.561006 0
M  V30 32 C -3.851652 -1.661254 0.265019 0
M  V30 33 C 0.303481 0.138792 -3.546582 0
M  V30 34 C 1.562834 0.990500 -3.469983 0
M  V30 35 C 2.650170 0.294518 -2.708747 0 CFG=1
M  V30 36 C 2.859208 0.784078 -1.334133 0
M  V30 37 O 3.036665 -0.127560 -0.493410 0
M  V30 38 N 2.889717 2.088943 -0.832241 0
M  V30 39 C 3.019902 2.979534 0.250278 0
M  V30 40 C 2.038738 3.063583 1.338144 0
M  V30 41 C 1.746392 1.875497 2.182963 0
M  V30 42 O 1.218995 0.776310 1.547409 0
M  V30 43 C 2.521447 4.195219 2.273196 0
M  V30 44 C 2.152571 5.479776 1.581597 0
M  V30 45 C 1.013053 5.137368 0.638698 0
M  V30 46 C 0.713636 3.688729 0.867405 0
M  V30 47 H 1.532958 -6.036064 -1.937247 0
M  V30 48 H 1.182242 -5.611203 -3.624706 0
M  V30 49 H 2.644704 -6.568409 -3.294249 0
M  V30 50 H 3.717092 -5.969868 -0.987571 0
M  V30 51 H 5.548901 -5.297763 0.532652 0
M  V30 52 H 6.519391 -3.047024 0.321666 0
M  V30 53 H 3.515472 -2.289956 -4.133693 0
M  V30 54 H 4.616121 -1.104415 -3.300364 0
M  V30 55 H 1.130082 -2.367405 -3.369106 0
M  V30 56 H 1.383488 -2.482130 -1.634800 0
M  V30 57 H 0.503645 -0.039840 -1.447898 0
M  V30 58 H -1.238037 -2.071038 -2.906101 0
M  V30 59 H -3.119495 -3.061364 -2.639468 0
M  V30 60 H -5.344214 -4.130470 -2.146296 0
M  V30 61 H -7.426626 -4.169751 -0.178730 0
M  V30 62 H -5.103286 0.555587 1.834194 0
M  V30 63 H -4.854738 1.906693 3.853738 0
M  V30 64 H -5.810995 -2.638736 6.624359 0
M  V30 65 H -5.637191 -1.020450 7.327139 0
M  V30 66 H -7.249652 -1.537659 6.824576 0
M  V30 67 H -6.345004 -2.764987 4.149088 0
M  V30 68 H -3.436680 -0.943318 0.985529 0
M  V30 69 H -0.608790 0.710974 -3.706062 0
M  V30 70 H 0.436840 -0.555730 -4.400912 0
M  V30 71 H 1.289450 1.919362 -2.957487 0
M  V30 72 H 1.926057 1.265609 -4.478646 0
M  V30 73 H 3.613168 0.601749 -3.250932 0
M  V30 74 H 2.728059 2.673946 -1.724077 0
M  V30 75 H 4.018452 2.699325 0.802145 0
M  V30 76 H 3.323378 4.020894 -0.096690 0
M  V30 77 H 0.962825 2.170329 2.953277 0
M  V30 78 H 2.630702 1.584115 2.817915 0
M  V30 79 H 0.774260 1.008182 0.687487 0
M  V30 80 H 1.998361 4.045055 3.223246 0
M  V30 81 H 3.610892 4.054670 2.400003 0
M  V30 82 H 1.786327 6.190662 2.346324 0
M  V30 83 H 3.013853 5.907412 1.062921 0
M  V30 84 H 1.376720 5.301721 -0.412595 0
M  V30 85 H 0.115631 5.746922 0.881272 0
M  V30 86 H 0.006392 3.551758 1.711026 0
M  V30 87 H 0.433013 3.161926 -0.052369 0
M  V30 END ATOM
M  V30 BEGIN BOND
M  V30 1 1 1 2
M  V30 2 1 2 3
M  V30 3 2 3 4
M  V30 4 1 4 5
M  V30 5 2 5 6
M  V30 6 1 6 7
M  V30 7 1 7 8
M  V30 8 2 7 9
M  V30 9 1 9 10
M  V30 10 1 10 11
M  V30 11 1 11 12
M  V30 12 1 12 13
M  V30 13 1 13 14
M  V30 14 1 14 15
M  V30 15 2 15 16
M  V30 16 1 15 17
M  V30 17 2 17 18
M  V30 18 1 18 19
M  V30 19 2 19 20
M  V30 20 1 20 21
M  V30 21 1 21 22
M  V30 22 2 22 23
M  V30 23 1 23 24
M  V30 24 2 24 25
M  V30 25 1 25 26
M  V30 26 2 26 27
M  V30 27 1 27 28
M  V30 28 1 28 29
M  V30 29 2 28 30
M  V30 30 1 23 31
M  V30 31 2 31 32
M  V30 32 1 13 33
M  V30 33 1 33 34
M  V30 34 1 34 35
M  V30 35 1 35 36
M  V30 36 2 36 37
M  V30 37 1 36 38
M  V30 38 1 38 39
M  V30 39 1 39 40
M  V30 40 1 40 41
M  V30 41 1 41 42
M  V30 42 1 40 43
M  V30 43 1 43 44
M  V30 44 1 44 45
M  V30 45 1 45 46
M  V30 46 1 9 3
M  V30 47 1 35 11
M  V30 48 1 46 40
M  V30 49 1 32 17
M  V30 50 1 31 20
M  V30 51 1 30 24
M  V30 52 1 1 47
M  V30 53 1 1 48
M  V30 54 1 1 49
M  V30 55 1 4 50
M  V30 56 1 5 51
M  V30 57 1 6 52
M  V30 58 1 10 53
M  V30 59 1 10 54
M  V30 60 1 12 55
M  V30 61 1 12 56
M  V30 62 1 13 57 CFG=1
M  V30 63 1 14 58
M  V30 64 1 18 59
M  V30 65 1 19 60
M  V30 66 1 21 61
M  V30 67 1 25 62
M  V30 68 1 26 63
M  V30 69 1 29 64
M  V30 70 1 29 65
M  V30 71 1 29 66
M  V30 72 1 30 67
M  V30 73 1 32 68
M  V30 74 1 33 69
M  V30 75 1 33 70
M  V30 76 1 34 71
M  V30 77 1 34 72
M  V30 78 1 35 73 CFG=3
M  V30 79 1 38 74
M  V30 80 1 39 75
M  V30 81 1 39 76
M  V30 82 1 41 77
M  V30 83 1 41 78
M  V30 84 1 42 79
M  V30 85 1 43 80
M  V30 86 1 43 81
M  V30 87 1 44 82
M  V30 88 1 44 83
M  V30 89 1 45 84
M  V30 90 1 45 85
M  V30 91 1 46 86
M  V30 92 1 46 87
M  V30 END BOND
M  V30 END CTAB
M  END
>  <Dataset>  (452) 
ChEMBL_Kinases

>  <Ligand_Instance>  (452) 
nan

>  <PDB_ID>  (452) 
nan

>  <Standardized_SMILES>  (452) 
COc1cccc(F)c1CN1C[C@H](NC(=O)c2ccc3[nH]nc(-c4ccnc(C)c4)c3c2)CC[C@H]1C(=O)NCC1(CO)CCCC1

>  <Name>  (452) 
nan

>  <Pocket>  (452) 
nan

>  <ATP_Site>  (452) 
nan

>  <Peripheral>  (452) 
nan

>  <Num_H_Atoms_ProtBoundConf>  (452) 
nan

>  <Num_Resolved_Atoms>  (452) 
nan

>  <Num_Not_Resolved_Atoms>  (452) 
nan

$$$$
CHEMBL3654451
     RDKit          3D

  0  0  0  0  0  0  0  0  0  0999 V3000
M  V30 BEGIN CTAB
M  V30 COUNTS 81 86 0 0 0
M  V30 BEGIN ATOM
M  V30 1 C 2.203311 -8.241754 3.685054 0
M  V30 2 O 2.303214 -6.866737 3.986450 0
M  V30 3 C 2.027889 -5.869509 3.065670 0
M  V30 4 C 1.624696 -5.960046 1.750617 0
M  V30 5 C 1.399750 -4.819199 0.996279 0
M  V30 6 C 1.579418 -3.574817 1.560232 0
M  V30 7 N 1.354913 -2.388277 0.799479 0
M  V30 8 C 2.227232 -1.575549 -0.018852 0
M  V30 9 O 3.312890 -2.205621 0.106787 0
M  V30 10 C 1.390206 -0.439911 -0.567670 0 CFG=2
M  V30 11 C 0.430459 -1.050843 -1.522520 0
M  V30 12 C 0.396856 -0.498748 -2.917137 0
M  V30 13 C 0.458059 1.013042 -2.924384 0 CFG=1
M  V30 14 N -0.903691 1.500749 -2.836025 0
M  V30 15 C -1.774637 2.295962 -3.627769 0
M  V30 16 O -1.216873 2.665002 -4.660480 0
M  V30 17 C -3.130766 2.570662 -3.165054 0
M  V30 18 C -3.821552 3.500939 -3.966612 0
M  V30 19 C -5.100929 3.768449 -3.536611 0
M  V30 20 C -5.708041 3.211343 -2.434419 0
M  V30 21 N -6.896218 3.289701 -1.812161 0
M  V30 22 N -6.915463 2.486322 -0.746455 0
M  V30 23 C -5.719587 1.844214 -0.634273 0
M  V30 24 C -5.426263 0.891456 0.427933 0
M  V30 25 C -4.824049 -0.282435 0.002284 0
M  V30 26 C -4.515014 -1.242559 0.954300 0
M  V30 27 N -4.796268 -1.030497 2.253843 0
M  V30 28 C -5.382847 0.112624 2.670970 0
M  V30 29 C -5.647301 0.236695 4.133056 0
M  V30 30 C -5.701849 1.078627 1.768433 0
M  V30 31 C -4.970789 2.311191 -1.703140 0
M  V30 32 C -3.659756 1.977078 -2.062987 0
M  V30 33 C 1.313323 1.531216 -1.813078 0
M  V30 34 N 2.185115 0.536264 -1.201210 0
M  V30 35 C 3.077293 1.326595 -0.394625 0
M  V30 36 C 3.934687 0.695353 0.577602 0
M  V30 37 C 3.553240 0.337832 1.876254 0
M  V30 38 F 2.303465 0.597276 2.319957 0
M  V30 39 C 4.365199 -0.276745 2.831775 0
M  V30 40 C 5.670143 -0.554758 2.451242 0
M  V30 41 C 6.075183 -0.217819 1.189251 0
M  V30 42 C 5.255665 0.397330 0.237223 0
M  V30 43 O 5.688907 0.728778 -1.035289 0
M  V30 44 C 7.020615 0.434920 -1.390589 0
M  V30 45 C 1.984255 -3.432593 2.879565 0
M  V30 46 C 2.203128 -4.593898 3.615516 0
M  V30 47 H 1.723485 -8.802643 4.540104 0
M  V30 48 H 1.518714 -8.451543 2.818279 0
M  V30 49 H 3.172223 -8.733407 3.496938 0
M  V30 50 H 1.514126 -6.982858 1.412193 0
M  V30 51 H 1.086723 -4.954438 -0.027305 0
M  V30 52 H 0.315487 -2.295005 1.034953 0
M  V30 53 H 0.790290 0.013520 0.280995 0
M  V30 54 H -0.600095 -1.007603 -1.053851 0
M  V30 55 H 0.620491 -2.155585 -1.566606 0
M  V30 56 H 1.246229 -0.935767 -3.475360 0
M  V30 57 H -0.520132 -0.889247 -3.399382 0
M  V30 58 H 0.871465 1.360289 -3.877902 0
M  V30 59 H -1.191724 1.090954 -1.895912 0
M  V30 60 H -3.390129 3.964937 -4.843148 0
M  V30 61 H -5.731260 4.471344 -4.073704 0
M  V30 62 H -7.669686 3.905892 -2.147667 0
M  V30 63 H -4.545333 -0.589336 -0.997658 0
M  V30 64 H -4.037047 -2.200408 0.701990 0
M  V30 65 H -6.022133 1.240560 4.381588 0
M  V30 66 H -4.678620 -0.013961 4.652807 0
M  V30 67 H -6.354761 -0.566367 4.477914 0
M  V30 68 H -6.165926 1.992121 2.066016 0
M  V30 69 H -3.124443 1.264734 -1.454341 0
M  V30 70 H 1.908860 2.405124 -2.147018 0
M  V30 71 H 0.637043 1.844947 -0.990192 0
M  V30 72 H 3.740752 1.858709 -1.158397 0
M  V30 73 H 2.508830 2.209628 0.054041 0
M  V30 74 H 4.020599 -0.529708 3.812072 0
M  V30 75 H 6.299670 -1.031296 3.188754 0
M  V30 76 H 7.109348 -0.454330 0.930525 0
M  V30 77 H 7.189236 0.636217 -2.481596 0
M  V30 78 H 7.280725 -0.587770 -1.090198 0
M  V30 79 H 7.763925 1.109241 -0.879275 0
M  V30 80 H 2.126805 -2.435509 3.324484 0
M  V30 81 H 2.519525 -4.395674 4.648601 0
M  V30 END ATOM
M  V30 BEGIN BOND
M  V30 1 1 1 2
M  V30 2 1 2 3
M  V30 3 2 3 4
M  V30 4 1 4 5
M  V30 5 2 5 6
M  V30 6 1 6 7
M  V30 7 1 7 8
M  V30 8 2 8 9
M  V30 9 1 8 10
M  V30 10 1 10 11
M  V30 11 1 11 12
M  V30 12 1 12 13
M  V30 13 1 13 14
M  V30 14 1 14 15
M  V30 15 2 15 16
M  V30 16 1 15 17
M  V30 17 2 17 18
M  V30 18 1 18 19
M  V30 19 2 19 20
M  V30 20 1 20 21
M  V30 21 1 21 22
M  V30 22 2 22 23
M  V30 23 1 23 24
M  V30 24 2 24 25
M  V30 25 1 25 26
M  V30 26 2 26 27
M  V30 27 1 27 28
M  V30 28 1 28 29
M  V30 29 2 28 30
M  V30 30 1 23 31
M  V30 31 2 31 32
M  V30 32 1 13 33
M  V30 33 1 33 34
M  V30 34 1 34 35
M  V30 35 1 35 36
M  V30 36 2 36 37
M  V30 37 1 37 38
M  V30 38 1 37 39
M  V30 39 2 39 40
M  V30 40 1 40 41
M  V30 41 2 41 42
M  V30 42 1 42 43
M  V30 43 1 43 44
M  V30 44 1 6 45
M  V30 45 2 45 46
M  V30 46 1 46 3
M  V30 47 1 34 10
M  V30 48 1 42 36
M  V30 49 1 32 17
M  V30 50 1 31 20
M  V30 51 1 30 24
M  V30 52 1 1 47
M  V30 53 1 1 48
M  V30 54 1 1 49
M  V30 55 1 4 50
M  V30 56 1 5 51
M  V30 57 1 7 52
M  V30 58 1 10 53 CFG=1
M  V30 59 1 11 54
M  V30 60 1 11 55
M  V30 61 1 12 56
M  V30 62 1 12 57
M  V30 63 1 13 58 CFG=3
M  V30 64 1 14 59
M  V30 65 1 18 60
M  V30 66 1 19 61
M  V30 67 1 21 62
M  V30 68 1 25 63
M  V30 69 1 26 64
M  V30 70 1 29 65
M  V30 71 1 29 66
M  V30 72 1 29 67
M  V30 73 1 30 68
M  V30 74 1 32 69
M  V30 75 1 33 70
M  V30 76 1 33 71
M  V30 77 1 35 72
M  V30 78 1 35 73
M  V30 79 1 39 74
M  V30 80 1 40 75
M  V30 81 1 41 76
M  V30 82 1 44 77
M  V30 83 1 44 78
M  V30 84 1 44 79
M  V30 85 1 45 80
M  V30 86 1 46 81
M  V30 END BOND
M  V30 END CTAB
M  END
>  <Dataset>  (453) 
ChEMBL_Kinases

>  <Ligand_Instance>  (453) 
nan

>  <PDB_ID>  (453) 
nan

>  <Standardized_SMILES>  (453) 
COc1ccc(NC(=O)[C@@H]2CC[C@@H](NC(=O)c3ccc4[nH]nc(-c5ccnc(C)c5)c4c3)CN2Cc2c(F)cccc2OC)cc1

>  <Name>  (453) 
nan

>  <Pocket>  (453) 
nan

>  <ATP_Site>  (453) 
nan

>  <Peripheral>  (453) 
nan

>  <Num_H_Atoms_ProtBoundConf>  (453) 
nan

>  <Num_Resolved_Atoms>  (453) 
nan

>  <Num_Not_Resolved_Atoms>  (453) 
nan

$$$$
CHEMBL3654450
     RDKit          3D

  0  0  0  0  0  0  0  0  0  0999 V3000
M  V30 BEGIN CTAB
M  V30 COUNTS 84 89 0 0 0
M  V30 BEGIN ATOM
M  V30 1 C 2.213986 -5.137601 4.522172 0
M  V30 2 O 1.377476 -4.881940 3.412757 0
M  V30 3 C 1.729983 -4.025182 2.397514 0
M  V30 4 C 2.934766 -3.359570 2.406114 0
M  V30 5 C 3.320517 -2.498510 1.413515 0
M  V30 6 C 2.488155 -2.265045 0.342943 0
M  V30 7 N 2.574438 -1.449896 -0.811895 0
M  V30 8 C 3.264959 -2.258682 -1.786453 0
M  V30 9 C 2.161756 -0.138210 -1.173433 0
M  V30 10 O 2.417436 0.248182 -2.370798 0
M  V30 11 C 1.476280 0.947715 -0.494042 0 CFG=2
M  V30 12 C 1.686393 2.334232 -1.027176 0
M  V30 13 C 0.423850 3.105673 -0.740244 0
M  V30 14 C -0.499821 2.471733 0.261587 0 CFG=1
M  V30 15 N -1.709394 1.918363 -0.324765 0
M  V30 16 C -2.967708 2.579614 -0.201809 0
M  V30 17 O -3.046754 3.685733 0.432877 0
M  V30 18 C -4.269397 2.140662 -0.736700 0
M  V30 19 C -5.360157 2.931361 -0.597370 0
M  V30 20 C -6.595644 2.521773 -1.097295 0
M  V30 21 C -6.771278 1.313610 -1.747842 0
M  V30 22 N -7.811245 0.679482 -2.314975 0
M  V30 23 N -7.395743 -0.492706 -2.806255 0
M  V30 24 C -6.073258 -0.621701 -2.555994 0
M  V30 25 C -5.274144 -1.771376 -2.941760 0
M  V30 26 C -5.869520 -3.002165 -2.680551 0
M  V30 27 C -5.204768 -4.173457 -3.002437 0
M  V30 28 N -3.978179 -4.134398 -3.570469 0
M  V30 29 C -3.399181 -2.959981 -3.824357 0
M  V30 30 C -2.053004 -2.973051 -4.445182 0
M  V30 31 C -4.026802 -1.793844 -3.519739 0
M  V30 32 C -5.666532 0.524290 -1.882543 0
M  V30 33 C -4.458219 0.938694 -1.386793 0
M  V30 34 C 0.149720 1.646013 1.266444 0
M  V30 35 N 1.391227 0.955331 0.924788 0
M  V30 36 C 2.408761 1.557891 1.687618 0
M  V30 37 C 3.719191 0.980512 1.838141 0
M  V30 38 C 4.833070 0.893040 1.035870 0
M  V30 39 F 4.706814 1.460503 -0.181124 0
M  V30 40 C 6.021781 0.317235 1.328551 0
M  V30 41 C 6.219690 -0.266594 2.538128 0
M  V30 42 C 5.190161 -0.250217 3.433027 0
M  V30 43 C 3.983804 0.358777 3.078598 0
M  V30 44 O 3.005686 0.319732 4.062330 0
M  V30 45 C 3.162397 -0.270089 5.321051 0
M  V30 46 C 1.254261 -2.936623 0.317928 0
M  V30 47 C 0.877443 -3.804158 1.327771 0
M  V30 48 H 1.831456 -5.983170 5.135825 0
M  V30 49 H 3.205269 -5.414969 4.125155 0
M  V30 50 H 2.342989 -4.243485 5.163753 0
M  V30 51 H 3.656418 -3.472874 3.196997 0
M  V30 52 H 4.211566 -1.931002 1.298537 0
M  V30 53 H 2.625352 -3.158491 -2.001548 0
M  V30 54 H 4.241558 -2.580029 -1.422695 0
M  V30 55 H 3.351237 -1.711334 -2.757894 0
M  V30 56 H 0.370306 0.752292 -0.805890 0
M  V30 57 H 1.770017 2.205606 -2.151531 0
M  V30 58 H 2.582563 2.854146 -0.687578 0
M  V30 59 H -0.142789 3.265855 -1.691575 0
M  V30 60 H 0.761309 4.138273 -0.444769 0
M  V30 61 H -0.918273 3.384331 0.823040 0
M  V30 62 H -1.921125 1.044708 -0.886952 0
M  V30 63 H -5.361541 3.895288 -0.113807 0
M  V30 64 H -7.469027 3.151535 -0.987579 0
M  V30 65 H -8.780880 1.063566 -2.351934 0
M  V30 66 H -6.836166 -3.168416 -2.234312 0
M  V30 67 H -5.615689 -5.169905 -2.825403 0
M  V30 68 H -2.092298 -3.335373 -5.494374 0
M  V30 69 H -1.616951 -1.957506 -4.351445 0
M  V30 70 H -1.369278 -3.639164 -3.870793 0
M  V30 71 H -3.602655 -0.824251 -3.705260 0
M  V30 72 H -3.640915 0.256090 -1.534974 0
M  V30 73 H 0.361243 2.255350 2.169854 0
M  V30 74 H -0.593779 0.884766 1.681841 0
M  V30 75 H 2.479788 2.645683 1.328374 0
M  V30 76 H 1.959048 1.728324 2.715487 0
M  V30 77 H 6.826842 0.311110 0.613949 0
M  V30 78 H 7.150056 -0.723808 2.781008 0
M  V30 79 H 5.319145 -0.707017 4.401492 0
M  V30 80 H 2.189489 -0.274625 5.847667 0
M  V30 81 H 3.995956 0.145870 5.907052 0
M  V30 82 H 3.415806 -1.342580 5.134541 0
M  V30 83 H 0.473640 -2.875612 -0.443067 0
M  V30 84 H -0.056667 -4.347502 1.361419 0
M  V30 END ATOM
M  V30 BEGIN BOND
M  V30 1 1 1 2
M  V30 2 1 2 3
M  V30 3 2 3 4
M  V30 4 1 4 5
M  V30 5 2 5 6
M  V30 6 1 6 7
M  V30 7 1 7 8
M  V30 8 1 7 9
M  V30 9 2 9 10
M  V30 10 1 9 11
M  V30 11 1 11 12
M  V30 12 1 12 13
M  V30 13 1 13 14
M  V30 14 1 14 15
M  V30 15 1 15 16
M  V30 16 2 16 17
M  V30 17 1 16 18
M  V30 18 2 18 19
M  V30 19 1 19 20
M  V30 20 2 20 21
M  V30 21 1 21 22
M  V30 22 1 22 23
M  V30 23 2 23 24
M  V30 24 1 24 25
M  V30 25 2 25 26
M  V30 26 1 26 27
M  V30 27 2 27 28
M  V30 28 1 28 29
M  V30 29 1 29 30
M  V30 30 2 29 31
M  V30 31 1 24 32
M  V30 32 2 32 33
M  V30 33 1 14 34
M  V30 34 1 34 35
M  V30 35 1 35 36
M  V30 36 1 36 37
M  V30 37 2 37 38
M  V30 38 1 38 39
M  V30 39 1 38 40
M  V30 40 2 40 41
M  V30 41 1 41 42
M  V30 42 2 42 43
M  V30 43 1 43 44
M  V30 44 1 44 45
M  V30 45 1 6 46
M  V30 46 2 46 47
M  V30 47 1 47 3
M  V30 48 1 35 11
M  V30 49 1 43 37
M  V30 50 1 33 18
M  V30 51 1 32 21
M  V30 52 1 31 25
M  V30 53 1 1 48
M  V30 54 1 1 49
M  V30 55 1 1 50
M  V30 56 1 4 51
M  V30 57 1 5 52
M  V30 58 1 8 53
M  V30 59 1 8 54
M  V30 60 1 8 55
M  V30 61 1 11 56 CFG=3
M  V30 62 1 12 57
M  V30 63 1 12 58
M  V30 64 1 13 59
M  V30 65 1 13 60
M  V30 66 1 14 61 CFG=1
M  V30 67 1 15 62
M  V30 68 1 19 63
M  V30 69 1 20 64
M  V30 70 1 22 65
M  V30 71 1 26 66
M  V30 72 1 27 67
M  V30 73 1 30 68
M  V30 74 1 30 69
M  V30 75 1 30 70
M  V30 76 1 31 71
M  V30 77 1 33 72
M  V30 78 1 34 73
M  V30 79 1 34 74
M  V30 80 1 36 75
M  V30 81 1 36 76
M  V30 82 1 40 77
M  V30 83 1 41 78
M  V30 84 1 42 79
M  V30 85 1 45 80
M  V30 86 1 45 81
M  V30 87 1 45 82
M  V30 88 1 46 83
M  V30 89 1 47 84
M  V30 END BOND
M  V30 END CTAB
M  END
>  <Dataset>  (454) 
ChEMBL_Kinases

>  <Ligand_Instance>  (454) 
nan

>  <PDB_ID>  (454) 
nan

>  <Standardized_SMILES>  (454) 
COc1ccc(N(C)C(=O)[C@@H]2CC[C@@H](NC(=O)c3ccc4[nH]nc(-c5ccnc(C)c5)c4c3)CN2Cc2c(F)cccc2OC)cc1

>  <Name>  (454) 
nan

>  <Pocket>  (454) 
nan

>  <ATP_Site>  (454) 
nan

>  <Peripheral>  (454) 
nan

>  <Num_H_Atoms_ProtBoundConf>  (454) 
nan

>  <Num_Resolved_Atoms>  (454) 
nan

>  <Num_Not_Resolved_Atoms>  (454) 
nan

$$$$
CHEMBL3654449
     RDKit          3D

  0  0  0  0  0  0  0  0  0  0999 V3000
M  V30 BEGIN CTAB
M  V30 COUNTS 73 78 0 0 0
M  V30 BEGIN ATOM
M  V30 1 C 4.032397 -3.634766 3.208234 0
M  V30 2 O 3.522031 -3.554524 1.916309 0
M  V30 3 C 4.161342 -3.782031 0.734706 0
M  V30 4 C 5.490135 -4.143485 0.730562 0
M  V30 5 C 6.158072 -4.378396 -0.429551 0
M  V30 6 C 5.483909 -4.250194 -1.624780 0
M  V30 7 C 4.150131 -3.887294 -1.619002 0
M  V30 8 F 3.588852 -3.794470 -2.854327 0
M  V30 9 C 3.425661 -3.636225 -0.446786 0
M  V30 10 C 2.014354 -3.259736 -0.520719 0
M  V30 11 N 1.726201 -1.863928 -0.290681 0
M  V30 12 C 0.319721 -1.571873 -0.391242 0
M  V30 13 C 0.222906 -0.066682 -0.430476 0 CFG=2
M  V30 14 N -1.072146 0.423521 -0.062627 0
M  V30 15 C -1.437605 1.371408 0.931499 0
M  V30 16 O -0.574918 1.913175 1.641021 0
M  V30 17 C -2.831323 1.741961 1.155201 0
M  V30 18 C -3.081379 2.679684 2.163907 0
M  V30 19 C -4.400073 3.071863 2.420972 0
M  V30 20 C -5.460809 2.576523 1.726187 0
M  V30 21 N -6.782474 2.727430 1.714448 0
M  V30 22 N -7.350566 1.955764 0.779203 0
M  V30 23 C -6.371007 1.269533 0.149180 0
M  V30 24 C -6.640290 0.337130 -0.924961 0
M  V30 25 C -7.522544 0.689014 -1.933208 0
M  V30 26 C -7.761937 -0.225784 -2.950834 0
M  V30 27 N -7.189546 -1.454755 -3.033883 0
M  V30 28 C -6.325771 -1.802117 -2.048858 0
M  V30 29 C -5.651073 -3.135417 -2.060585 0
M  V30 30 C -6.062795 -0.919569 -1.021016 0
M  V30 31 C -5.192270 1.658693 0.742187 0
M  V30 32 C -3.908889 1.242702 0.453909 0
M  V30 33 C 0.629539 0.283545 -1.842145 0
M  V30 34 C 2.107651 -0.011019 -1.906288 0
M  V30 35 C 2.609825 -0.955394 -0.881984 0 CFG=1
M  V30 36 C 3.329437 -0.211214 0.188104 0
M  V30 37 O 4.139640 0.621535 -0.344891 0
M  V30 38 N 3.245132 -0.294451 1.601540 0
M  V30 39 C 4.078948 0.564892 2.310647 0
M  V30 40 N 4.934862 1.448780 2.160519 0
M  V30 41 C 5.506678 2.037616 3.198639 0
M  V30 42 C 5.177522 1.695845 4.548015 0
M  V30 43 S 3.893308 0.370654 4.190532 0
M  V30 44 H 5.099701 -3.445695 3.321466 0
M  V30 45 H 3.496402 -2.888216 3.863583 0
M  V30 46 H 3.728428 -4.637652 3.623579 0
M  V30 47 H 6.018221 -4.243825 1.685742 0
M  V30 48 H 7.200357 -4.659138 -0.374795 0
M  V30 49 H 6.029175 -4.440447 -2.535156 0
M  V30 50 H 1.630526 -3.521425 -1.513045 0
M  V30 51 H 1.445840 -3.890902 0.212354 0
M  V30 52 H -0.025333 -2.029170 -1.350647 0
M  V30 53 H -0.267569 -2.044981 0.399467 0
M  V30 54 H 0.954241 0.447916 0.221762 0
M  V30 55 H -1.782151 -0.043637 -0.670177 0
M  V30 56 H -2.319535 3.146697 2.786668 0
M  V30 57 H -4.603414 3.797315 3.200032 0
M  V30 58 H -7.285169 3.376068 2.367172 0
M  V30 59 H -8.036769 1.640223 -1.971327 0
M  V30 60 H -8.442345 -0.047212 -3.797230 0
M  V30 61 H -5.303945 -3.357050 -3.097881 0
M  V30 62 H -6.335350 -3.913508 -1.687388 0
M  V30 63 H -4.733694 -3.069478 -1.417822 0
M  V30 64 H -5.374032 -1.209792 -0.245584 0
M  V30 65 H -3.708467 0.518478 -0.323744 0
M  V30 66 H 0.120323 -0.397279 -2.553135 0
M  V30 67 H 0.408733 1.326872 -2.092358 0
M  V30 68 H 2.621209 0.972044 -1.803971 0
M  V30 69 H 2.326260 -0.343106 -2.941692 0
M  V30 70 H 3.429521 -1.554348 -1.381250 0
M  V30 71 H 2.564413 -0.990559 1.909734 0
M  V30 72 H 6.225669 2.781101 2.800587 0
M  V30 73 H 5.828647 2.367139 5.281509 0
M  V30 END ATOM
M  V30 BEGIN BOND
M  V30 1 1 1 2
M  V30 2 1 2 3
M  V30 3 2 3 4
M  V30 4 1 4 5
M  V30 5 2 5 6
M  V30 6 1 6 7
M  V30 7 1 7 8
M  V30 8 2 7 9
M  V30 9 1 9 10
M  V30 10 1 10 11
M  V30 11 1 11 12
M  V30 12 1 12 13
M  V30 13 1 13 14
M  V30 14 1 14 15
M  V30 15 2 15 16
M  V30 16 1 15 17
M  V30 17 2 17 18
M  V30 18 1 18 19
M  V30 19 2 19 20
M  V30 20 1 20 21
M  V30 21 1 21 22
M  V30 22 2 22 23
M  V30 23 1 23 24
M  V30 24 2 24 25
M  V30 25 1 25 26
M  V30 26 2 26 27
M  V30 27 1 27 28
M  V30 28 1 28 29
M  V30 29 2 28 30
M  V30 30 1 23 31
M  V30 31 2 31 32
M  V30 32 1 13 33
M  V30 33 1 33 34
M  V30 34 1 34 35
M  V30 35 1 35 36
M  V30 36 2 36 37
M  V30 37 1 36 38
M  V30 38 1 38 39
M  V30 39 2 39 40
M  V30 40 1 40 41
M  V30 41 2 41 42
M  V30 42 1 42 43
M  V30 43 1 9 3
M  V30 44 1 35 11
M  V30 45 1 43 39
M  V30 46 1 32 17
M  V30 47 1 31 20
M  V30 48 1 30 24
M  V30 49 1 1 44
M  V30 50 1 1 45
M  V30 51 1 1 46
M  V30 52 1 4 47
M  V30 53 1 5 48
M  V30 54 1 6 49
M  V30 55 1 10 50
M  V30 56 1 10 51
M  V30 57 1 12 52
M  V30 58 1 12 53
M  V30 59 1 13 54 CFG=1
M  V30 60 1 14 55
M  V30 61 1 18 56
M  V30 62 1 19 57
M  V30 63 1 21 58
M  V30 64 1 25 59
M  V30 65 1 26 60
M  V30 66 1 29 61
M  V30 67 1 29 62
M  V30 68 1 29 63
M  V30 69 1 30 64
M  V30 70 1 32 65
M  V30 71 1 33 66
M  V30 72 1 33 67
M  V30 73 1 34 68
M  V30 74 1 34 69
M  V30 75 1 35 70 CFG=3
M  V30 76 1 38 71
M  V30 77 1 41 72
M  V30 78 1 42 73
M  V30 END BOND
M  V30 END CTAB
M  END
>  <Dataset>  (455) 
ChEMBL_Kinases

>  <Ligand_Instance>  (455) 
nan

>  <PDB_ID>  (455) 
nan

>  <Standardized_SMILES>  (455) 
COc1cccc(F)c1CN1C[C@H](NC(=O)c2ccc3[nH]nc(-c4ccnc(C)c4)c3c2)CC[C@H]1C(=O)Nc1nccs1

>  <Name>  (455) 
nan

>  <Pocket>  (455) 
nan

>  <ATP_Site>  (455) 
nan

>  <Peripheral>  (455) 
nan

>  <Num_H_Atoms_ProtBoundConf>  (455) 
nan

>  <Num_Resolved_Atoms>  (455) 
nan

>  <Num_Not_Resolved_Atoms>  (455) 
nan

$$$$
CHEMBL3654448
     RDKit          3D

  0  0  0  0  0  0  0  0  0  0999 V3000
M  V30 BEGIN CTAB
M  V30 COUNTS 76 81 0 0 0
M  V30 BEGIN ATOM
M  V30 1 C 3.766995 -4.494941 -0.253309 0
M  V30 2 O 2.994345 -3.755076 -1.146717 0
M  V30 3 C 3.400571 -3.256648 -2.366754 0
M  V30 4 C 4.714877 -3.501512 -2.777333 0
M  V30 5 C 5.206341 -3.036317 -3.991527 0
M  V30 6 C 4.341758 -2.310191 -4.797993 0
M  V30 7 C 3.037945 -2.046813 -4.429805 0
M  V30 8 F 2.170235 -1.346108 -5.193112 0
M  V30 9 C 2.560819 -2.521997 -3.205802 0
M  V30 10 C 1.186403 -2.318083 -2.679817 0
M  V30 11 N 1.085712 -1.342925 -1.649860 0
M  V30 12 C -0.225334 -1.121784 -1.140865 0
M  V30 13 C -0.122968 -0.160178 0.022501 0 CFG=2
M  V30 14 N -1.307942 -0.213232 0.857879 0
M  V30 15 C -1.124524 -0.529606 2.211903 0
M  V30 16 O 0.028785 -0.753414 2.659715 0
M  V30 17 C -2.248907 -0.609336 3.136656 0
M  V30 18 C -1.949621 -0.922784 4.460510 0
M  V30 19 C -2.921239 -1.034676 5.457650 0
M  V30 20 C -4.218278 -0.820281 5.083649 0
M  V30 21 N -5.403528 -0.834879 5.727178 0
M  V30 22 N -6.377679 -0.553712 4.881446 0
M  V30 23 C -5.867069 -0.342605 3.643896 0
M  V30 24 C -6.737398 -0.013328 2.520249 0
M  V30 25 C -7.892978 -0.787545 2.412364 0
M  V30 26 C -8.832808 -0.621529 1.416004 0
M  V30 27 N -8.592281 0.358414 0.503304 0
M  V30 28 C -7.478625 1.125879 0.582837 0
M  V30 29 C -7.268303 2.181748 -0.442373 0
M  V30 30 C -6.550334 0.963706 1.564904 0
M  V30 31 C -4.504655 -0.513008 3.782181 0
M  V30 32 C -3.552732 -0.399345 2.786419 0
M  V30 33 C 0.121256 1.204086 -0.579790 0
M  V30 34 C 1.079239 1.118894 -1.716258 0
M  V30 35 C 1.863902 -0.163006 -1.798901 0 CFG=1
M  V30 36 C 2.974153 -0.212023 -0.814000 0
M  V30 37 O 3.437675 -0.963048 0.111494 0
M  V30 38 N 3.838245 0.913858 -0.867885 0
M  V30 39 C 4.933913 0.908740 0.071681 0
M  V30 40 C 6.038654 0.294984 -0.487335 0
M  V30 41 C 7.215484 0.174904 0.238954 0
M  V30 42 C 7.214427 0.698183 1.533987 0
M  V30 43 N 6.127589 1.287289 2.047682 0
M  V30 44 C 4.988566 1.407664 1.354933 0
M  V30 45 H 3.792869 -5.581356 -0.445880 0
M  V30 46 H 4.797256 -4.103488 -0.112929 0
M  V30 47 H 3.267375 -4.384849 0.750807 0
M  V30 48 H 5.357725 -4.081523 -2.101369 0
M  V30 49 H 6.227392 -3.246683 -4.271784 0
M  V30 50 H 4.707844 -1.938312 -5.750937 0
M  V30 51 H 0.838841 -3.328530 -2.365923 0
M  V30 52 H 0.540603 -2.058466 -3.566875 0
M  V30 53 H -0.915000 -0.662266 -1.906524 0
M  V30 54 H -0.710444 -2.080634 -0.874411 0
M  V30 55 H 0.796394 -0.395317 0.596015 0
M  V30 56 H -2.240484 -0.018652 0.435625 0
M  V30 57 H -0.930621 -1.105065 4.817387 0
M  V30 58 H -2.659267 -1.279277 6.476604 0
M  V30 59 H -5.530474 -1.040813 6.753834 0
M  V30 60 H -8.107605 -1.583231 3.136378 0
M  V30 61 H -9.721946 -1.248509 1.368486 0
M  V30 62 H -7.652433 3.174527 -0.132129 0
M  V30 63 H -7.655762 1.875479 -1.437740 0
M  V30 64 H -6.170353 2.301675 -0.571319 0
M  V30 65 H -5.645320 1.542917 1.680619 0
M  V30 66 H -3.794675 -0.155440 1.761136 0
M  V30 67 H 0.453984 1.897330 0.220897 0
M  V30 68 H -0.855490 1.583151 -0.944378 0
M  V30 69 H 0.512599 1.180983 -2.690152 0
M  V30 70 H 1.765845 1.968222 -1.732262 0
M  V30 71 H 2.359339 -0.148021 -2.795404 0
M  V30 72 H 3.832664 1.767168 -1.472708 0
M  V30 73 H 6.123821 -0.136615 -1.481296 0
M  V30 74 H 8.121282 -0.305588 -0.162675 0
M  V30 75 H 8.120664 0.614946 2.116762 0
M  V30 76 H 4.055297 1.857990 1.659059 0
M  V30 END ATOM
M  V30 BEGIN BOND
M  V30 1 1 1 2
M  V30 2 1 2 3
M  V30 3 2 3 4
M  V30 4 1 4 5
M  V30 5 2 5 6
M  V30 6 1 6 7
M  V30 7 1 7 8
M  V30 8 2 7 9
M  V30 9 1 9 10
M  V30 10 1 10 11
M  V30 11 1 11 12
M  V30 12 1 12 13
M  V30 13 1 13 14
M  V30 14 1 14 15
M  V30 15 2 15 16
M  V30 16 1 15 17
M  V30 17 2 17 18
M  V30 18 1 18 19
M  V30 19 2 19 20
M  V30 20 1 20 21
M  V30 21 1 21 22
M  V30 22 2 22 23
M  V30 23 1 23 24
M  V30 24 2 24 25
M  V30 25 1 25 26
M  V30 26 2 26 27
M  V30 27 1 27 28
M  V30 28 1 28 29
M  V30 29 2 28 30
M  V30 30 1 23 31
M  V30 31 2 31 32
M  V30 32 1 13 33
M  V30 33 1 33 34
M  V30 34 1 34 35
M  V30 35 1 35 36
M  V30 36 2 36 37
M  V30 37 1 36 38
M  V30 38 1 38 39
M  V30 39 2 39 40
M  V30 40 1 40 41
M  V30 41 2 41 42
M  V30 42 1 42 43
M  V30 43 2 43 44
M  V30 44 1 9 3
M  V30 45 1 35 11
M  V30 46 1 44 39
M  V30 47 1 32 17
M  V30 48 1 31 20
M  V30 49 1 30 24
M  V30 50 1 1 45
M  V30 51 1 1 46
M  V30 52 1 1 47
M  V30 53 1 4 48
M  V30 54 1 5 49
M  V30 55 1 6 50
M  V30 56 1 10 51
M  V30 57 1 10 52
M  V30 58 1 12 53
M  V30 59 1 12 54
M  V30 60 1 13 55 CFG=1
M  V30 61 1 14 56
M  V30 62 1 18 57
M  V30 63 1 19 58
M  V30 64 1 21 59
M  V30 65 1 25 60
M  V30 66 1 26 61
M  V30 67 1 29 62
M  V30 68 1 29 63
M  V30 69 1 29 64
M  V30 70 1 30 65
M  V30 71 1 32 66
M  V30 72 1 33 67
M  V30 73 1 33 68
M  V30 74 1 34 69
M  V30 75 1 34 70
M  V30 76 1 35 71 CFG=3
M  V30 77 1 38 72
M  V30 78 1 40 73
M  V30 79 1 41 74
M  V30 80 1 42 75
M  V30 81 1 44 76
M  V30 END BOND
M  V30 END CTAB
M  END
>  <Dataset>  (456) 
ChEMBL_Kinases

>  <Ligand_Instance>  (456) 
nan

>  <PDB_ID>  (456) 
nan

>  <Standardized_SMILES>  (456) 
COc1cccc(F)c1CN1C[C@H](NC(=O)c2ccc3[nH]nc(-c4ccnc(C)c4)c3c2)CC[C@H]1C(=O)Nc1cccnc1

>  <Name>  (456) 
nan

>  <Pocket>  (456) 
nan

>  <ATP_Site>  (456) 
nan

>  <Peripheral>  (456) 
nan

>  <Num_H_Atoms_ProtBoundConf>  (456) 
nan

>  <Num_Resolved_Atoms>  (456) 
nan

>  <Num_Not_Resolved_Atoms>  (456) 
nan

$$$$
CHEMBL3654447
     RDKit          3D

  0  0  0  0  0  0  0  0  0  0999 V3000
M  V30 BEGIN CTAB
M  V30 COUNTS 79 84 0 0 0
M  V30 BEGIN ATOM
M  V30 1 C -0.962377 -4.828857 -1.283211 0
M  V30 2 O 0.002849 -3.909861 -1.748129 0
M  V30 3 C 1.337673 -4.139109 -1.522017 0
M  V30 4 C 1.833137 -5.238395 -0.854052 0
M  V30 5 C 3.169749 -5.442967 -0.647252 0
M  V30 6 C 4.023439 -4.501303 -1.134840 0
M  V30 7 C 3.543027 -3.387203 -1.809744 0
M  V30 8 F 4.511337 -2.536300 -2.237564 0
M  V30 9 C 2.175827 -3.172484 -2.023599 0
M  V30 10 C 1.892087 -1.911569 -2.732831 0
M  V30 11 N 1.564218 -0.878786 -1.824773 0
M  V30 12 C 0.466391 -1.036637 -0.963754 0
M  V30 13 C 0.293445 0.216934 -0.119302 0 CFG=2
M  V30 14 N -0.712521 -0.140263 0.882010 0
M  V30 15 C -0.598452 -0.198496 2.297226 0
M  V30 16 O 0.472650 0.074458 2.879927 0
M  V30 17 C -1.751242 -0.584475 3.098478 0
M  V30 18 C -1.602728 -0.629991 4.467769 0
M  V30 19 C -2.627958 -0.979096 5.296929 0
M  V30 20 C -3.890739 -1.312243 4.815441 0
M  V30 21 N -5.080822 -1.690882 5.350930 0
M  V30 22 N -5.944150 -1.875029 4.340104 0
M  V30 23 C -5.349964 -1.626814 3.159669 0
M  V30 24 C -6.008832 -1.732230 1.839966 0
M  V30 25 C -6.805258 -2.810563 1.500311 0
M  V30 26 C -7.403877 -2.866985 0.254779 0
M  V30 27 N -7.222527 -1.867926 -0.657125 0
M  V30 28 C -6.456836 -0.801470 -0.368373 0
M  V30 29 C -6.238893 0.316341 -1.351866 0
M  V30 30 C -5.864333 -0.756522 0.878917 0
M  V30 31 C -4.028784 -1.263970 3.449890 0
M  V30 32 C -2.989891 -0.909320 2.594042 0
M  V30 33 C -0.167240 1.320636 -1.002983 0
M  V30 34 C 0.547638 1.307064 -2.314064 0
M  V30 35 C 1.771777 0.448036 -2.333426 0 CFG=1
M  V30 36 C 2.886917 1.115339 -1.619717 0
M  V30 37 O 2.990259 2.280979 -2.139694 0
M  V30 38 N 3.802500 0.768613 -0.558902 0
M  V30 39 C 4.611066 1.953713 -0.414853 0
M  V30 40 C 5.752333 2.083249 -1.148123 0
M  V30 41 C 6.498005 3.231274 -0.986099 0
M  V30 42 C 6.003769 4.146538 -0.083257 0
M  V30 43 C 6.707224 5.429255 0.185807 0
M  V30 44 N 4.860077 3.993438 0.637733 0
M  V30 45 C 4.109050 2.869664 0.494334 0
M  V30 46 H -0.688508 -5.876316 -1.574080 0
M  V30 47 H -1.969515 -4.639288 -1.707672 0
M  V30 48 H -1.077259 -4.811700 -0.173303 0
M  V30 49 H 1.056403 -5.910885 -0.516935 0
M  V30 50 H 3.413293 -6.344665 -0.109757 0
M  V30 51 H 5.085170 -4.665100 -0.969704 0
M  V30 52 H 0.979862 -2.077830 -3.381901 0
M  V30 53 H 2.696700 -1.639507 -3.445948 0
M  V30 54 H -0.504120 -1.275363 -1.392943 0
M  V30 55 H 0.704200 -1.836733 -0.198705 0
M  V30 56 H 1.202438 0.471573 0.417889 0
M  V30 57 H -1.579499 -0.356364 0.346092 0
M  V30 58 H -0.672528 -0.393238 4.964522 0
M  V30 59 H -2.509587 -1.013642 6.372876 0
M  V30 60 H -5.238085 -1.802347 6.376090 0
M  V30 61 H -6.955789 -3.613436 2.224477 0
M  V30 62 H -8.036520 -3.729442 -0.009412 0
M  V30 63 H -7.097489 0.470441 -2.003541 0
M  V30 64 H -5.301344 0.124796 -1.939098 0
M  V30 65 H -6.015248 1.268566 -0.792113 0
M  V30 66 H -5.255160 0.124725 1.068342 0
M  V30 67 H -3.135576 -0.883794 1.524805 0
M  V30 68 H 0.004111 2.298012 -0.465190 0
M  V30 69 H -1.259354 1.311115 -1.196915 0
M  V30 70 H 0.868187 2.354385 -2.552837 0
M  V30 71 H -0.133066 1.023130 -3.147602 0
M  V30 72 H 2.094446 0.338569 -3.397097 0
M  V30 73 H 3.543393 -0.224273 -0.278897 0
M  V30 74 H 6.104040 1.338646 -1.847876 0
M  V30 75 H 7.416405 3.440075 -1.512911 0
M  V30 76 H 6.533045 5.823651 1.200705 0
M  V30 77 H 7.783788 5.281914 -0.026271 0
M  V30 78 H 6.349333 6.215389 -0.541927 0
M  V30 79 H 3.195270 2.706870 1.045925 0
M  V30 END ATOM
M  V30 BEGIN BOND
M  V30 1 1 1 2
M  V30 2 1 2 3
M  V30 3 2 3 4
M  V30 4 1 4 5
M  V30 5 2 5 6
M  V30 6 1 6 7
M  V30 7 1 7 8
M  V30 8 2 7 9
M  V30 9 1 9 10
M  V30 10 1 10 11
M  V30 11 1 11 12
M  V30 12 1 12 13
M  V30 13 1 13 14
M  V30 14 1 14 15
M  V30 15 2 15 16
M  V30 16 1 15 17
M  V30 17 2 17 18
M  V30 18 1 18 19
M  V30 19 2 19 20
M  V30 20 1 20 21
M  V30 21 1 21 22
M  V30 22 2 22 23
M  V30 23 1 23 24
M  V30 24 2 24 25
M  V30 25 1 25 26
M  V30 26 2 26 27
M  V30 27 1 27 28
M  V30 28 1 28 29
M  V30 29 2 28 30
M  V30 30 1 23 31
M  V30 31 2 31 32
M  V30 32 1 13 33
M  V30 33 1 33 34
M  V30 34 1 34 35
M  V30 35 1 35 36
M  V30 36 2 36 37
M  V30 37 1 36 38
M  V30 38 1 38 39
M  V30 39 2 39 40
M  V30 40 1 40 41
M  V30 41 2 41 42
M  V30 42 1 42 43
M  V30 43 1 42 44
M  V30 44 2 44 45
M  V30 45 1 9 3
M  V30 46 1 35 11
M  V30 47 1 45 39
M  V30 48 1 32 17
M  V30 49 1 31 20
M  V30 50 1 30 24
M  V30 51 1 1 46
M  V30 52 1 1 47
M  V30 53 1 1 48
M  V30 54 1 4 49
M  V30 55 1 5 50
M  V30 56 1 6 51
M  V30 57 1 10 52
M  V30 58 1 10 53
M  V30 59 1 12 54
M  V30 60 1 12 55
M  V30 61 1 13 56 CFG=1
M  V30 62 1 14 57
M  V30 63 1 18 58
M  V30 64 1 19 59
M  V30 65 1 21 60
M  V30 66 1 25 61
M  V30 67 1 26 62
M  V30 68 1 29 63
M  V30 69 1 29 64
M  V30 70 1 29 65
M  V30 71 1 30 66
M  V30 72 1 32 67
M  V30 73 1 33 68
M  V30 74 1 33 69
M  V30 75 1 34 70
M  V30 76 1 34 71
M  V30 77 1 35 72 CFG=3
M  V30 78 1 38 73
M  V30 79 1 40 74
M  V30 80 1 41 75
M  V30 81 1 43 76
M  V30 82 1 43 77
M  V30 83 1 43 78
M  V30 84 1 45 79
M  V30 END BOND
M  V30 END CTAB
M  END
>  <Dataset>  (457) 
ChEMBL_Kinases

>  <Ligand_Instance>  (457) 
nan

>  <PDB_ID>  (457) 
nan

>  <Standardized_SMILES>  (457) 
COc1cccc(F)c1CN1C[C@H](NC(=O)c2ccc3[nH]nc(-c4ccnc(C)c4)c3c2)CC[C@H]1C(=O)Nc1ccc(C)nc1

>  <Name>  (457) 
nan

>  <Pocket>  (457) 
nan

>  <ATP_Site>  (457) 
nan

>  <Peripheral>  (457) 
nan

>  <Num_H_Atoms_ProtBoundConf>  (457) 
nan

>  <Num_Resolved_Atoms>  (457) 
nan

>  <Num_Not_Resolved_Atoms>  (457) 
nan

$$$$
CHEMBL3654258
     RDKit          3D

  0  0  0  0  0  0  0  0  0  0999 V3000
M  V30 BEGIN CTAB
M  V30 COUNTS 69 73 0 0 0
M  V30 BEGIN ATOM
M  V30 1 C 4.190389 0.673476 6.222903 0
M  V30 2 N 3.959981 0.547544 4.792478 0
M  V30 3 C 3.268027 -0.673442 4.406025 0
M  V30 4 C 4.394014 1.563665 3.890886 0
M  V30 5 O 4.939075 2.438201 4.615631 0
M  V30 6 C 4.116614 1.338420 2.499363 0
M  V30 7 C 5.036421 0.992476 1.536823 0
M  V30 8 C 4.297786 0.889905 0.378144 0
M  V30 9 C 4.784109 0.557732 -0.878035 0
M  V30 10 N 3.868658 0.514605 -1.880160 0
M  V30 11 C 2.593288 0.781459 -1.629898 0
M  V30 12 N 1.669134 0.722486 -2.696520 0
M  V30 13 C 0.577711 -0.184396 -2.610930 0
M  V30 14 C 0.341226 -1.014820 -1.537986 0
M  V30 15 C -0.708640 -1.902510 -1.435963 0
M  V30 16 C -1.615780 -1.984598 -2.488135 0
M  V30 17 N -2.719644 -2.881494 -2.447170 0
M  V30 18 C -3.590205 -2.868007 -3.602002 0
M  V30 19 C -4.697257 -3.851774 -3.591822 0
M  V30 20 N -4.878217 -4.639553 -2.441674 0
M  V30 21 C -6.167525 -4.967702 -2.010028 0
M  V30 22 C -7.035746 -3.889665 -1.468604 0
M  V30 23 O -7.304820 -2.853034 -2.342858 0
M  V30 24 C -3.771998 -4.913680 -1.615007 0
M  V30 25 C -2.891473 -3.725350 -1.284582 0
M  V30 26 C -1.359408 -1.144713 -3.550654 0
M  V30 27 N -0.329228 -0.288644 -3.625767 0
M  V30 28 N 2.151980 1.099479 -0.404666 0
M  V30 29 C 2.958329 1.173032 0.658058 0
M  V30 30 N 2.891241 1.447219 1.993797 0
M  V30 31 C 1.592202 1.758236 2.496001 0
M  V30 32 C 1.582975 2.465480 3.833428 0
M  V30 33 C 0.294015 3.296249 3.798123 0
M  V30 34 C 0.379049 3.832950 2.391531 0
M  V30 35 C 0.749757 2.615487 1.585800 0
M  V30 36 H 4.778495 1.577503 6.484220 0
M  V30 37 H 4.758523 -0.194173 6.645732 0
M  V30 38 H 3.211530 0.795346 6.773652 0
M  V30 39 H 3.628890 -1.560183 5.001614 0
M  V30 40 H 2.183253 -0.576037 4.631678 0
M  V30 41 H 3.416612 -0.907677 3.327097 0
M  V30 42 H 6.069851 0.854532 1.727669 0
M  V30 43 H 5.824231 0.345612 -1.052052 0
M  V30 44 H 1.750420 1.311143 -3.541566 0
M  V30 45 H 1.032417 -0.978848 -0.691061 0
M  V30 46 H -0.805778 -2.508722 -0.548090 0
M  V30 47 H -2.935334 -2.952360 -4.516777 0
M  V30 48 H -4.014998 -1.826222 -3.658378 0
M  V30 49 H -5.692418 -3.421989 -3.912867 0
M  V30 50 H -4.477071 -4.573127 -4.440185 0
M  V30 51 H -6.730047 -5.404472 -2.890004 0
M  V30 52 H -6.111447 -5.773971 -1.262918 0
M  V30 53 H -8.043012 -4.365406 -1.271260 0
M  V30 54 H -6.727485 -3.525806 -0.464636 0
M  V30 55 H -6.965578 -2.014174 -1.961369 0
M  V30 56 H -4.129584 -5.420513 -0.700623 0
M  V30 57 H -3.119383 -5.639019 -2.149686 0
M  V30 58 H -1.916717 -4.155924 -0.922383 0
M  V30 59 H -3.315084 -3.188871 -0.403865 0
M  V30 60 H -2.014443 -1.144407 -4.409787 0
M  V30 61 H 1.024178 0.780776 2.593837 0
M  V30 62 H 1.461939 1.786333 4.695701 0
M  V30 63 H 2.384360 3.184598 3.975384 0
M  V30 64 H 0.316991 4.124018 4.507235 0
M  V30 65 H -0.582196 2.630825 3.853474 0
M  V30 66 H -0.561823 4.298796 2.039103 0
M  V30 67 H 1.213588 4.590346 2.304484 0
M  V30 68 H 1.325040 2.998991 0.716206 0
M  V30 69 H -0.195124 2.122592 1.268222 0
M  V30 END ATOM
M  V30 BEGIN BOND
M  V30 1 1 1 2
M  V30 2 1 2 3
M  V30 3 1 2 4
M  V30 4 2 4 5
M  V30 5 1 4 6
M  V30 6 2 6 7
M  V30 7 1 7 8
M  V30 8 2 8 9
M  V30 9 1 9 10
M  V30 10 2 10 11
M  V30 11 1 11 12
M  V30 12 1 12 13
M  V30 13 2 13 14
M  V30 14 1 14 15
M  V30 15 2 15 16
M  V30 16 1 16 17
M  V30 17 1 17 18
M  V30 18 1 18 19
M  V30 19 1 19 20
M  V30 20 1 20 21
M  V30 21 1 21 22
M  V30 22 1 22 23
M  V30 23 1 20 24
M  V30 24 1 24 25
M  V30 25 1 16 26
M  V30 26 2 26 27
M  V30 27 1 11 28
M  V30 28 2 28 29
M  V30 29 1 29 30
M  V30 30 1 30 31
M  V30 31 1 31 32
M  V30 32 1 32 33
M  V30 33 1 33 34
M  V30 34 1 34 35
M  V30 35 1 30 6
M  V30 36 1 35 31
M  V30 37 1 29 8
M  V30 38 1 27 13
M  V30 39 1 25 17
M  V30 40 1 1 36
M  V30 41 1 1 37
M  V30 42 1 1 38
M  V30 43 1 3 39
M  V30 44 1 3 40
M  V30 45 1 3 41
M  V30 46 1 7 42
M  V30 47 1 9 43
M  V30 48 1 12 44
M  V30 49 1 14 45
M  V30 50 1 15 46
M  V30 51 1 18 47
M  V30 52 1 18 48
M  V30 53 1 19 49
M  V30 54 1 19 50
M  V30 55 1 21 51
M  V30 56 1 21 52
M  V30 57 1 22 53
M  V30 58 1 22 54
M  V30 59 1 23 55
M  V30 60 1 24 56
M  V30 61 1 24 57
M  V30 62 1 25 58
M  V30 63 1 25 59
M  V30 64 1 26 60
M  V30 65 1 31 61
M  V30 66 1 32 62
M  V30 67 1 32 63
M  V30 68 1 33 64
M  V30 69 1 33 65
M  V30 70 1 34 66
M  V30 71 1 34 67
M  V30 72 1 35 68
M  V30 73 1 35 69
M  V30 END BOND
M  V30 END CTAB
M  END
>  <Dataset>  (458) 
ChEMBL_Kinases

>  <Ligand_Instance>  (458) 
nan

>  <PDB_ID>  (458) 
nan

>  <Standardized_SMILES>  (458) 
CN(C)C(=O)c1cc2cnc(Nc3ccc(N4CCN(CCO)CC4)cn3)nc2n1C1CCCC1

>  <Name>  (458) 
nan

>  <Pocket>  (458) 
nan

>  <ATP_Site>  (458) 
nan

>  <Peripheral>  (458) 
nan

>  <Num_H_Atoms_ProtBoundConf>  (458) 
nan

>  <Num_Resolved_Atoms>  (458) 
nan

>  <Num_Not_Resolved_Atoms>  (458) 
nan

$$$$
CHEMBL3654239
     RDKit          3D

  0  0  0  0  0  0  0  0  0  0999 V3000
M  V30 BEGIN CTAB
M  V30 COUNTS 65 69 0 0 0
M  V30 BEGIN ATOM
M  V30 1 C 4.028485 -0.973687 6.245203 0
M  V30 2 N 4.078180 -1.300682 4.834801 0
M  V30 3 C 4.498238 -2.581255 4.310745 0
M  V30 4 C 3.676574 -0.245446 3.993993 0
M  V30 5 O 3.377520 0.732590 4.762966 0
M  V30 6 C 3.587580 -0.181493 2.536871 0
M  V30 7 C 4.704474 -0.087163 1.698159 0
M  V30 8 C 4.220903 -0.043319 0.384016 0
M  V30 9 C 4.864157 0.050823 -0.834462 0
M  V30 10 N 4.078829 0.075409 -1.939124 0
M  V30 11 C 2.743170 0.010667 -1.848093 0
M  V30 12 N 1.914903 0.052736 -3.006537 0
M  V30 13 C 0.502030 -0.044750 -2.885574 0
M  V30 14 C -0.377162 0.023356 -3.962102 0
M  V30 15 C -1.744221 -0.075607 -3.823022 0
M  V30 16 C -2.332587 -0.251770 -2.590939 0
M  V30 17 N -3.709561 -0.352340 -2.367671 0
M  V30 18 C -4.339521 -0.843775 -1.168079 0
M  V30 19 C -5.062987 -2.157338 -1.407823 0
M  V30 20 C -5.783669 -2.053844 -2.728345 0
M  V30 21 N -6.578284 -0.854041 -2.717627 0
M  V30 22 C -5.931894 0.316532 -3.217263 0
M  V30 23 C -4.460393 0.122889 -3.497987 0
M  V30 24 C -1.428421 -0.314224 -1.545352 0
M  V30 25 N -0.107270 -0.215372 -1.702004 0
M  V30 26 N 2.164388 -0.082016 -0.628135 0
M  V30 27 C 2.859603 -0.111264 0.515092 0
M  V30 28 N 2.463736 -0.195777 1.806278 0
M  V30 29 C 1.103925 -0.284960 2.207445 0
M  V30 30 C 0.838124 -1.222129 3.350658 0
M  V30 31 C -0.665883 -0.984284 3.540395 0
M  V30 32 C -0.838622 0.503082 3.292836 0
M  V30 33 C 0.443481 0.979875 2.626671 0
M  V30 34 H 3.965610 -1.913343 6.863671 0
M  V30 35 H 4.873404 -0.326333 6.543964 0
M  V30 36 H 3.105050 -0.367213 6.487429 0
M  V30 37 H 5.018081 -2.393195 3.338004 0
M  V30 38 H 3.601684 -3.215933 4.157293 0
M  V30 39 H 5.204296 -3.039649 5.052329 0
M  V30 40 H 5.721099 -0.059147 2.042112 0
M  V30 41 H 5.944270 0.101445 -0.849765 0
M  V30 42 H 2.337157 0.155111 -3.953163 0
M  V30 43 H 0.048606 0.160951 -4.957345 0
M  V30 44 H -2.355480 -0.014160 -4.699005 0
M  V30 45 H -3.614648 -1.043384 -0.345455 0
M  V30 46 H -5.113386 -0.107760 -0.859785 0
M  V30 47 H -4.388799 -3.030384 -1.361592 0
M  V30 48 H -5.829568 -2.316879 -0.619694 0
M  V30 49 H -5.061683 -2.112934 -3.568729 0
M  V30 50 H -6.463753 -2.951177 -2.827843 0
M  V30 51 H -6.941708 -0.752224 -1.729464 0
M  V30 52 H -6.079385 1.175365 -2.497625 0
M  V30 53 H -6.414690 0.615793 -4.169676 0
M  V30 54 H -4.331454 -0.440435 -4.428287 0
M  V30 55 H -4.069966 1.160519 -3.729873 0
M  V30 56 H -1.699224 -0.447473 -0.510949 0
M  V30 57 H 0.470817 -0.689101 1.359437 0
M  V30 58 H 1.312961 -0.969391 4.299861 0
M  V30 59 H 1.053175 -2.280710 3.102964 0
M  V30 60 H -1.010752 -1.294866 4.523279 0
M  V30 61 H -1.261696 -1.514707 2.765995 0
M  V30 62 H -1.685356 0.718418 2.609723 0
M  V30 63 H -1.007338 1.017817 4.269786 0
M  V30 64 H 0.223675 1.567290 1.709961 0
M  V30 65 H 0.980113 1.588461 3.351244 0
M  V30 END ATOM
M  V30 BEGIN BOND
M  V30 1 1 1 2
M  V30 2 1 2 3
M  V30 3 1 2 4
M  V30 4 2 4 5
M  V30 5 1 4 6
M  V30 6 2 6 7
M  V30 7 1 7 8
M  V30 8 2 8 9
M  V30 9 1 9 10
M  V30 10 2 10 11
M  V30 11 1 11 12
M  V30 12 1 12 13
M  V30 13 2 13 14
M  V30 14 1 14 15
M  V30 15 2 15 16
M  V30 16 1 16 17
M  V30 17 1 17 18
M  V30 18 1 18 19
M  V30 19 1 19 20
M  V30 20 1 20 21
M  V30 21 1 21 22
M  V30 22 1 22 23
M  V30 23 1 16 24
M  V30 24 2 24 25
M  V30 25 1 11 26
M  V30 26 2 26 27
M  V30 27 1 27 28
M  V30 28 1 28 29
M  V30 29 1 29 30
M  V30 30 1 30 31
M  V30 31 1 31 32
M  V30 32 1 32 33
M  V30 33 1 28 6
M  V30 34 1 33 29
M  V30 35 1 27 8
M  V30 36 1 25 13
M  V30 37 1 23 17
M  V30 38 1 1 34
M  V30 39 1 1 35
M  V30 40 1 1 36
M  V30 41 1 3 37
M  V30 42 1 3 38
M  V30 43 1 3 39
M  V30 44 1 7 40
M  V30 45 1 9 41
M  V30 46 1 12 42
M  V30 47 1 14 43
M  V30 48 1 15 44
M  V30 49 1 18 45
M  V30 50 1 18 46
M  V30 51 1 19 47
M  V30 52 1 19 48
M  V30 53 1 20 49
M  V30 54 1 20 50
M  V30 55 1 21 51
M  V30 56 1 22 52
M  V30 57 1 22 53
M  V30 58 1 23 54
M  V30 59 1 23 55
M  V30 60 1 24 56
M  V30 61 1 29 57
M  V30 62 1 30 58
M  V30 63 1 30 59
M  V30 64 1 31 60
M  V30 65 1 31 61
M  V30 66 1 32 62
M  V30 67 1 32 63
M  V30 68 1 33 64
M  V30 69 1 33 65
M  V30 END BOND
M  V30 END CTAB
M  END
>  <Dataset>  (459) 
ChEMBL_Kinases

>  <Ligand_Instance>  (459) 
nan

>  <PDB_ID>  (459) 
nan

>  <Standardized_SMILES>  (459) 
CN(C)C(=O)c1cc2cnc(Nc3ccc(N4CCCNCC4)cn3)nc2n1C1CCCC1

>  <Name>  (459) 
nan

>  <Pocket>  (459) 
nan

>  <ATP_Site>  (459) 
nan

>  <Peripheral>  (459) 
nan

>  <Num_H_Atoms_ProtBoundConf>  (459) 
nan

>  <Num_Resolved_Atoms>  (459) 
nan

>  <Num_Not_Resolved_Atoms>  (459) 
nan

$$$$
CHEMBL3654493
     RDKit          3D

  0  0  0  0  0  0  0  0  0  0999 V3000
M  V30 BEGIN CTAB
M  V30 COUNTS 64 69 0 0 0
M  V30 BEGIN ATOM
M  V30 1 C 2.607798 2.030143 4.681364 0
M  V30 2 O 3.331251 2.394170 3.643045 0
M  V30 3 C 4.116565 2.812729 2.729303 0
M  V30 4 C 5.206664 3.579226 3.141988 0
M  V30 5 C 6.157301 4.111002 2.263004 0
M  V30 6 C 5.935652 3.817594 0.933763 0
M  V30 7 C 4.871635 3.061443 0.459551 0
M  V30 8 F 4.676673 2.786494 -0.834874 0
M  V30 9 C 3.981125 2.572406 1.362437 0
M  V30 10 C 2.770421 1.736548 1.038327 0
M  V30 11 N 1.575767 2.494080 1.125130 0
M  V30 12 C 1.434265 3.605194 0.266577 0
M  V30 13 C 0.027702 3.965331 -0.124592 0
M  V30 14 C -0.797084 2.758571 -0.486600 0
M  V30 15 C -0.655280 1.635687 0.486193 0 CFG=1
M  V30 16 N -0.323976 0.399175 -0.216414 0
M  V30 17 C -1.126755 -0.773204 -0.203719 0
M  V30 18 O -2.183977 -0.646622 0.491050 0
M  V30 19 C -0.788243 -2.003423 -0.908846 0
M  V30 20 C 0.362497 -2.106240 -1.675428 0
M  V30 21 C 0.590553 -3.322667 -2.302951 0
M  V30 22 C -0.262798 -4.399590 -2.193063 0
M  V30 23 N -0.329734 -5.665839 -2.652607 0
M  V30 24 N -1.429245 -6.275796 -2.200687 0
M  V30 25 C -2.117155 -5.414827 -1.425703 0
M  V30 26 C -3.387936 -5.812749 -0.780104 0
M  V30 27 C -3.383332 -7.045279 -0.162859 0
M  V30 28 C -4.559709 -7.431938 0.438508 0
M  V30 29 C -5.603883 -6.563328 0.363846 0
M  V30 30 S -7.345042 -6.761753 1.065312 0
M  V30 31 C -7.904965 -5.074705 0.411901 0
M  V30 32 C -6.795338 -4.588628 -0.215655 0
M  V30 33 C -5.631496 -5.294768 -0.263434 0
M  V30 34 C -4.446404 -4.939991 -0.851875 0
M  V30 35 C -1.403693 -4.237648 -1.409242 0
M  V30 36 C -1.672235 -3.061737 -0.772116 0
M  V30 37 C 0.395169 1.840105 1.534115 0
M  V30 38 H 2.195304 0.985801 4.551525 0
M  V30 39 H 3.154892 2.019749 5.683805 0
M  V30 40 H 1.656957 2.631228 4.862340 0
M  V30 41 H 5.391909 3.817895 4.194602 0
M  V30 42 H 6.990277 4.700679 2.612484 0
M  V30 43 H 6.650351 4.212640 0.229304 0
M  V30 44 H 2.844681 1.352852 -0.013841 0
M  V30 45 H 2.821245 0.859433 1.677402 0
M  V30 46 H 2.085014 3.474065 -0.635536 0
M  V30 47 H 1.882949 4.508073 0.775264 0
M  V30 48 H 0.118798 4.572338 -1.067343 0
M  V30 49 H -0.440940 4.640909 0.604521 0
M  V30 50 H -1.853191 3.093735 -0.493854 0
M  V30 51 H -0.568163 2.475801 -1.529042 0
M  V30 52 H -1.635335 1.429941 0.990718 0
M  V30 53 H 0.567733 0.402878 -0.757153 0
M  V30 54 H 1.049684 -1.280316 -1.780723 0
M  V30 55 H 1.480803 -3.444668 -2.912841 0
M  V30 56 H 0.378927 -6.099134 -3.271451 0
M  V30 57 H -2.552694 -7.708217 -0.117536 0
M  V30 58 H -4.740688 -8.357557 0.965551 0
M  V30 59 H -8.865606 -4.814386 0.612934 0
M  V30 60 H -6.969748 -3.617202 -0.643079 0
M  V30 61 H -4.338452 -3.997312 -1.364200 0
M  V30 62 H -2.546771 -2.954373 -0.175884 0
M  V30 63 H -0.072586 2.455788 2.356483 0
M  V30 64 H 0.632357 0.874813 2.024622 0
M  V30 END ATOM
M  V30 BEGIN BOND
M  V30 1 1 1 2
M  V30 2 1 2 3
M  V30 3 2 3 4
M  V30 4 1 4 5
M  V30 5 2 5 6
M  V30 6 1 6 7
M  V30 7 1 7 8
M  V30 8 2 7 9
M  V30 9 1 9 10
M  V30 10 1 10 11
M  V30 11 1 11 12
M  V30 12 1 12 13
M  V30 13 1 13 14
M  V30 14 1 14 15
M  V30 15 1 15 16
M  V30 16 1 16 17
M  V30 17 2 17 18
M  V30 18 1 17 19
M  V30 19 2 19 20
M  V30 20 1 20 21
M  V30 21 2 21 22
M  V30 22 1 22 23
M  V30 23 1 23 24
M  V30 24 2 24 25
M  V30 25 1 25 26
M  V30 26 2 26 27
M  V30 27 1 27 28
M  V30 28 2 28 29
M  V30 29 1 29 30
M  V30 30 1 30 31
M  V30 31 2 31 32
M  V30 32 1 32 33
M  V30 33 2 33 34
M  V30 34 1 25 35
M  V30 35 2 35 36
M  V30 36 1 15 37
M  V30 37 1 9 3
M  V30 38 1 37 11
M  V30 39 1 36 19
M  V30 40 1 35 22
M  V30 41 1 34 26
M  V30 42 1 33 29
M  V30 43 1 1 38
M  V30 44 1 1 39
M  V30 45 1 1 40
M  V30 46 1 4 41
M  V30 47 1 5 42
M  V30 48 1 6 43
M  V30 49 1 10 44
M  V30 50 1 10 45
M  V30 51 1 12 46
M  V30 52 1 12 47
M  V30 53 1 13 48
M  V30 54 1 13 49
M  V30 55 1 14 50
M  V30 56 1 14 51
M  V30 57 1 15 52 CFG=1
M  V30 58 1 16 53
M  V30 59 1 20 54
M  V30 60 1 21 55
M  V30 61 1 23 56
M  V30 62 1 27 57
M  V30 63 1 28 58
M  V30 64 1 31 59
M  V30 65 1 32 60
M  V30 66 1 34 61
M  V30 67 1 36 62
M  V30 68 1 37 63
M  V30 69 1 37 64
M  V30 END BOND
M  V30 END CTAB
M  END
>  <Dataset>  (460) 
ChEMBL_Kinases

>  <Ligand_Instance>  (460) 
nan

>  <PDB_ID>  (460) 
nan

>  <Standardized_SMILES>  (460) 
COc1cccc(F)c1CN1CCC[C@@H](NC(=O)c2ccc3[nH]nc(-c4ccc5sccc5c4)c3c2)C1

>  <Name>  (460) 
nan

>  <Pocket>  (460) 
nan

>  <ATP_Site>  (460) 
nan

>  <Peripheral>  (460) 
nan

>  <Num_H_Atoms_ProtBoundConf>  (460) 
nan

>  <Num_Resolved_Atoms>  (460) 
nan

>  <Num_Not_Resolved_Atoms>  (460) 
nan

$$$$
CHEMBL3652580
     RDKit          3D

  0  0  0  0  0  0  0  0  0  0999 V3000
M  V30 BEGIN CTAB
M  V30 COUNTS 56 60 0 0 0
M  V30 BEGIN ATOM
M  V30 1 C 3.181117 -2.003053 4.251194 0
M  V30 2 O 2.890251 -0.635416 3.936835 0
M  V30 3 C 2.383917 -0.294695 2.668341 0
M  V30 4 O 2.240396 -1.313175 1.915372 0
M  V30 5 C 2.122030 1.175821 2.468225 0
M  V30 6 N 1.643784 1.378980 1.115771 0
M  V30 7 C 2.468655 1.074444 0.014712 0
M  V30 8 C 3.736741 0.601908 0.172943 0
M  V30 9 C 4.581194 0.280533 -0.895812 0
M  V30 10 C 4.145138 0.436108 -2.190672 0
M  V30 11 Cl 5.147526 0.053424 -3.562651 0
M  V30 12 C 2.857402 0.916275 -2.340625 0
M  V30 13 C 2.006956 1.239715 -1.277065 0
M  V30 14 C 0.329877 1.880482 0.987157 0
M  V30 15 C -0.748970 1.049147 0.796681 0
M  V30 16 C -2.063255 1.393009 0.664974 0
M  V30 17 C -3.229267 0.572591 0.487687 0
M  V30 18 C -4.508894 1.103400 0.648603 0
M  V30 19 N -5.439765 0.169064 0.416583 0
M  V30 20 C -4.866791 -0.994291 0.099477 0
M  V30 21 N -5.310420 -2.215414 -0.228254 0
M  V30 22 C -4.462718 -3.242287 -0.528023 0
M  V30 23 C -3.097657 -2.982348 -0.483698 0
M  V30 24 C -2.194071 -4.101525 -0.817738 0
M  V30 25 C -2.378425 -5.149940 -1.693143 0
M  V30 26 N -1.248375 -5.854648 -1.600516 0
M  V30 27 N -0.409557 -5.321063 -0.750022 0
M  V30 28 C 0.908611 -5.851786 -0.427550 0
M  V30 29 C -0.936962 -4.201065 -0.208310 0
M  V30 30 C -2.642488 -1.728933 -0.146790 0
M  V30 31 C -3.518929 -0.723721 0.148693 0
M  V30 32 N -2.239728 2.726475 0.743917 0
M  V30 33 C -1.255657 3.616002 0.927249 0
M  V30 34 N -1.497979 5.014893 1.001522 0
M  V30 35 N 0.022475 3.207371 1.048893 0
M  V30 36 H 4.212711 -2.286253 4.032629 0
M  V30 37 H 2.940892 -2.198506 5.337093 0
M  V30 38 H 2.432134 -2.625129 3.681151 0
M  V30 39 H 3.086438 1.742397 2.633082 0
M  V30 40 H 1.389489 1.462698 3.247243 0
M  V30 41 H 4.191266 0.440962 1.138966 0
M  V30 42 H 5.596881 -0.098099 -0.753499 0
M  V30 43 H 2.528217 1.032880 -3.376114 0
M  V30 44 H 1.017739 1.607826 -1.509598 0
M  V30 45 H -0.483717 0.019456 0.768706 0
M  V30 46 H -4.851697 2.114741 0.922464 0
M  V30 47 H -6.483991 0.257260 0.457899 0
M  V30 48 H -4.923960 -4.173547 -0.775612 0
M  V30 49 H -3.282489 -5.300119 -2.295200 0
M  V30 50 H 1.029629 -6.897007 -0.707710 0
M  V30 51 H 1.115721 -5.652594 0.651075 0
M  V30 52 H 1.665053 -5.235406 -0.992045 0
M  V30 53 H -0.447804 -3.568588 0.526043 0
M  V30 54 H -1.600863 -1.602013 -0.144104 0
M  V30 55 H -1.417360 5.362719 0.014363 0
M  V30 56 H -1.706949 5.514176 1.902056 0
M  V30 END ATOM
M  V30 BEGIN BOND
M  V30 1 1 1 2
M  V30 2 1 2 3
M  V30 3 2 3 4
M  V30 4 1 3 5
M  V30 5 1 5 6
M  V30 6 1 6 7
M  V30 7 2 7 8
M  V30 8 1 8 9
M  V30 9 2 9 10
M  V30 10 1 10 11
M  V30 11 1 10 12
M  V30 12 2 12 13
M  V30 13 1 6 14
M  V30 14 2 14 15
M  V30 15 1 15 16
M  V30 16 1 16 17
M  V30 17 2 17 18
M  V30 18 1 18 19
M  V30 19 1 19 20
M  V30 20 2 20 21
M  V30 21 1 21 22
M  V30 22 2 22 23
M  V30 23 1 23 24
M  V30 24 1 24 25
M  V30 25 2 25 26
M  V30 26 1 26 27
M  V30 27 1 27 28
M  V30 28 1 27 29
M  V30 29 1 23 30
M  V30 30 2 30 31
M  V30 31 2 16 32
M  V30 32 1 32 33
M  V30 33 1 33 34
M  V30 34 2 33 35
M  V30 35 1 13 7
M  V30 36 1 35 14
M  V30 37 1 31 17
M  V30 38 1 31 20
M  V30 39 2 29 24
M  V30 40 1 1 36
M  V30 41 1 1 37
M  V30 42 1 1 38
M  V30 43 1 5 39
M  V30 44 1 5 40
M  V30 45 1 8 41
M  V30 46 1 9 42
M  V30 47 1 12 43
M  V30 48 1 13 44
M  V30 49 1 15 45
M  V30 50 1 18 46
M  V30 51 1 19 47
M  V30 52 1 22 48
M  V30 53 1 25 49
M  V30 54 1 28 50
M  V30 55 1 28 51
M  V30 56 1 28 52
M  V30 57 1 29 53
M  V30 58 1 30 54
M  V30 59 1 34 55
M  V30 60 1 34 56
M  V30 END BOND
M  V30 END CTAB
M  END
>  <Dataset>  (461) 
ChEMBL_Kinases

>  <Ligand_Instance>  (461) 
nan

>  <PDB_ID>  (461) 
nan

>  <Standardized_SMILES>  (461) 
COC(=O)CN(c1ccc(Cl)cc1)c1cc(-c2c[nH]c3ncc(-c4cnn(C)c4)cc23)nc(N)n1

>  <Name>  (461) 
nan

>  <Pocket>  (461) 
nan

>  <ATP_Site>  (461) 
nan

>  <Peripheral>  (461) 
nan

>  <Num_H_Atoms_ProtBoundConf>  (461) 
nan

>  <Num_Resolved_Atoms>  (461) 
nan

>  <Num_Not_Resolved_Atoms>  (461) 
nan

$$$$
CHEMBL3652581
     RDKit          3D

  0  0  0  0  0  0  0  0  0  0999 V3000
M  V30 BEGIN CTAB
M  V30 COUNTS 54 58 0 0 0
M  V30 BEGIN ATOM
M  V30 1 C 4.389665 -3.098645 5.763176 0
M  V30 2 N 3.873030 -2.563774 4.501561 0
M  V30 3 C 4.284157 -1.431133 3.892985 0
M  V30 4 C 3.515493 -1.353503 2.760844 0
M  V30 5 C 3.532976 -0.311829 1.712698 0
M  V30 6 C 4.721407 0.342533 1.401859 0
M  V30 7 N 4.692385 1.298020 0.432530 0
M  V30 8 C 3.562346 1.613670 -0.216079 0
M  V30 9 N 3.222494 2.486461 -1.177197 0
M  V30 10 C 1.914413 2.402727 -1.467679 0
M  V30 11 C 1.312683 1.424729 -0.671947 0
M  V30 12 C -0.093873 1.157897 -0.786693 0
M  V30 13 C -0.852878 0.141000 -0.290958 0
M  V30 14 C -2.192816 -0.071137 -0.452554 0
M  V30 15 N -2.865691 -1.177941 0.116187 0
M  V30 16 C -3.302260 -0.900684 1.447074 0
M  V30 17 C -4.272841 0.275486 1.503147 0
M  V30 18 O -5.407260 0.018941 0.739808 0
M  V30 19 C -2.897129 -2.237569 -0.845585 0
M  V30 20 C -3.512107 -1.975825 -2.068364 0
M  V30 21 C -3.552913 -2.987697 -3.015639 0
M  V30 22 C -2.995635 -4.217009 -2.741348 0
M  V30 23 F -3.020297 -5.227205 -3.649780 0
M  V30 24 C -2.399158 -4.435650 -1.524923 0
M  V30 25 C -2.337369 -3.461671 -0.560896 0
M  V30 26 F -1.754013 -3.668470 0.634862 0
M  V30 27 N -2.847487 0.856524 -1.207040 0
M  V30 28 C -2.159451 1.885981 -1.727573 0
M  V30 29 N -2.800519 2.890704 -2.531041 0
M  V30 30 N -0.845157 2.003626 -1.510029 0
M  V30 31 C 2.374393 0.983630 0.069213 0
M  V30 32 C 2.377269 0.017712 1.042593 0
M  V30 33 C 2.641498 -2.444766 2.692723 0
M  V30 34 N 2.923677 -3.137109 3.794990 0
M  V30 35 H 3.521336 -3.522210 6.311586 0
M  V30 36 H 5.086197 -3.941589 5.577381 0
M  V30 37 H 4.937640 -2.345819 6.333937 0
M  V30 38 H 5.044395 -0.731165 4.208329 0
M  V30 39 H 5.650488 0.110638 1.907101 0
M  V30 40 H 3.937652 3.125047 -1.603768 0
M  V30 41 H 1.508094 3.070619 -2.245816 0
M  V30 42 H -0.377524 -0.620329 0.294837 0
M  V30 43 H -2.429484 -0.625171 2.095150 0
M  V30 44 H -3.781877 -1.769613 1.949834 0
M  V30 45 H -4.588065 0.445620 2.551551 0
M  V30 46 H -3.775655 1.185222 1.149115 0
M  V30 47 H -5.513820 -0.976624 0.649267 0
M  V30 48 H -3.969621 -1.030532 -2.343753 0
M  V30 49 H -4.013980 -2.865741 -3.999441 0
M  V30 50 H -1.943260 -5.392443 -1.257646 0
M  V30 51 H -3.016868 2.731642 -3.538638 0
M  V30 52 H -3.018594 3.780785 -1.996754 0
M  V30 53 H 1.514501 -0.508103 1.333751 0
M  V30 54 H 1.890370 -2.741708 1.971748 0
M  V30 END ATOM
M  V30 BEGIN BOND
M  V30 1 1 1 2
M  V30 2 1 2 3
M  V30 3 2 3 4
M  V30 4 1 4 5
M  V30 5 2 5 6
M  V30 6 1 6 7
M  V30 7 2 7 8
M  V30 8 1 8 9
M  V30 9 1 9 10
M  V30 10 2 10 11
M  V30 11 1 11 12
M  V30 12 2 12 13
M  V30 13 1 13 14
M  V30 14 1 14 15
M  V30 15 1 15 16
M  V30 16 1 16 17
M  V30 17 1 17 18
M  V30 18 1 15 19
M  V30 19 2 19 20
M  V30 20 1 20 21
M  V30 21 2 21 22
M  V30 22 1 22 23
M  V30 23 1 22 24
M  V30 24 2 24 25
M  V30 25 1 25 26
M  V30 26 2 14 27
M  V30 27 1 27 28
M  V30 28 1 28 29
M  V30 29 2 28 30
M  V30 30 1 11 31
M  V30 31 2 31 32
M  V30 32 1 4 33
M  V30 33 2 33 34
M  V30 34 1 34 2
M  V30 35 1 32 5
M  V30 36 1 31 8
M  V30 37 1 30 12
M  V30 38 1 25 19
M  V30 39 1 1 35
M  V30 40 1 1 36
M  V30 41 1 1 37
M  V30 42 1 3 38
M  V30 43 1 6 39
M  V30 44 1 9 40
M  V30 45 1 10 41
M  V30 46 1 13 42
M  V30 47 1 16 43
M  V30 48 1 16 44
M  V30 49 1 17 45
M  V30 50 1 17 46
M  V30 51 1 18 47
M  V30 52 1 20 48
M  V30 53 1 21 49
M  V30 54 1 24 50
M  V30 55 1 29 51
M  V30 56 1 29 52
M  V30 57 1 32 53
M  V30 58 1 33 54
M  V30 END BOND
M  V30 END CTAB
M  END
>  <Dataset>  (462) 
ChEMBL_Kinases

>  <Ligand_Instance>  (462) 
nan

>  <PDB_ID>  (462) 
nan

>  <Standardized_SMILES>  (462) 
Cn1cc(-c2cnc3[nH]cc(-c4cc(N(CCO)c5ccc(F)cc5F)nc(N)n4)c3c2)cn1

>  <Name>  (462) 
nan

>  <Pocket>  (462) 
nan

>  <ATP_Site>  (462) 
nan

>  <Peripheral>  (462) 
nan

>  <Num_H_Atoms_ProtBoundConf>  (462) 
nan

>  <Num_Resolved_Atoms>  (462) 
nan

>  <Num_Not_Resolved_Atoms>  (462) 
nan

$$$$
CHEMBL3652582
     RDKit          3D

  0  0  0  0  0  0  0  0  0  0999 V3000
M  V30 BEGIN CTAB
M  V30 COUNTS 54 58 0 0 0
M  V30 BEGIN ATOM
M  V30 1 C 7.329043 -4.050274 3.407750 0
M  V30 2 N 6.191856 -3.532518 2.645257 0
M  V30 3 C 6.038017 -2.210637 2.341527 0
M  V30 4 C 4.878883 -2.034535 1.620698 0
M  V30 5 C 4.216406 -0.890918 1.041592 0
M  V30 6 C 4.911067 0.190774 0.562298 0
M  V30 7 N 4.369520 1.310738 0.000986 0
M  V30 8 C 3.013311 1.354700 -0.089903 0
M  V30 9 N 2.232995 2.317355 -0.588506 0
M  V30 10 C 0.947682 1.939568 -0.474715 0
M  V30 11 C 0.925552 0.690262 0.119083 0
M  V30 12 C -0.248172 -0.125544 0.446576 0
M  V30 13 C -1.502152 0.364180 0.146008 0
M  V30 14 C -2.591700 -0.419822 0.462100 0
M  V30 15 N -3.959275 -0.050165 0.212978 0
M  V30 16 C -4.512381 0.653442 1.352153 0
M  V30 17 C -3.756614 1.931374 1.675316 0
M  V30 18 O -3.770342 2.824211 0.622812 0
M  V30 19 C -4.546364 -0.393129 -1.017565 0
M  V30 20 C -5.853945 -0.058305 -1.298937 0
M  V30 21 C -6.473021 -0.372349 -2.490765 0
M  V30 22 C -5.775229 -1.053754 -3.466848 0
M  V30 23 C -4.456392 -1.387032 -3.173119 0
M  V30 24 C -3.837240 -1.073213 -1.981590 0
M  V30 25 F -2.552672 -1.407884 -1.718882 0
M  V30 26 N -2.480417 -1.631428 1.046273 0
M  V30 27 C -1.239182 -2.077890 1.325502 0
M  V30 28 N -1.064579 -3.349945 1.941929 0
M  V30 29 N -0.156235 -1.336286 1.029311 0
M  V30 30 C 2.237860 0.297091 0.373811 0
M  V30 31 C 2.841665 -0.827779 0.940648 0
M  V30 32 C 4.344278 -3.313404 1.506131 0
M  V30 33 N 5.165793 -4.195269 2.138310 0
M  V30 34 H 7.371142 -5.142696 3.220074 0
M  V30 35 H 8.235276 -3.507913 3.059060 0
M  V30 36 H 7.207445 -3.916746 4.485939 0
M  V30 37 H 6.676358 -1.380851 2.590186 0
M  V30 38 H 5.999887 0.153425 0.636274 0
M  V30 39 H 2.424699 3.240924 -1.018636 0
M  V30 40 H 0.025698 2.431200 -0.756126 0
M  V30 41 H -1.678313 1.310999 -0.315390 0
M  V30 42 H -4.482173 0.023370 2.275742 0
M  V30 43 H -5.578925 0.883187 1.167613 0
M  V30 44 H -4.291089 2.401812 2.530361 0
M  V30 45 H -2.711626 1.718953 1.972294 0
M  V30 46 H -3.944161 2.423411 -0.263551 0
M  V30 47 H -6.490477 0.474778 -0.606368 0
M  V30 48 H -7.493419 -0.130579 -2.754656 0
M  V30 49 H -6.124838 -1.366435 -4.443355 0
M  V30 50 H -3.832948 -1.919969 -3.875062 0
M  V30 51 H -0.730364 -3.628406 2.894351 0
M  V30 52 H -1.215030 -4.334709 1.630692 0
M  V30 53 H 2.206512 -1.617676 1.284024 0
M  V30 54 H 3.449287 -3.721147 1.037016 0
M  V30 END ATOM
M  V30 BEGIN BOND
M  V30 1 1 1 2
M  V30 2 1 2 3
M  V30 3 2 3 4
M  V30 4 1 4 5
M  V30 5 2 5 6
M  V30 6 1 6 7
M  V30 7 2 7 8
M  V30 8 1 8 9
M  V30 9 1 9 10
M  V30 10 2 10 11
M  V30 11 1 11 12
M  V30 12 2 12 13
M  V30 13 1 13 14
M  V30 14 1 14 15
M  V30 15 1 15 16
M  V30 16 1 16 17
M  V30 17 1 17 18
M  V30 18 1 15 19
M  V30 19 2 19 20
M  V30 20 1 20 21
M  V30 21 2 21 22
M  V30 22 1 22 23
M  V30 23 2 23 24
M  V30 24 1 24 25
M  V30 25 2 14 26
M  V30 26 1 26 27
M  V30 27 1 27 28
M  V30 28 2 27 29
M  V30 29 1 11 30
M  V30 30 2 30 31
M  V30 31 1 4 32
M  V30 32 2 32 33
M  V30 33 1 33 2
M  V30 34 1 31 5
M  V30 35 1 30 8
M  V30 36 1 29 12
M  V30 37 1 24 19
M  V30 38 1 1 34
M  V30 39 1 1 35
M  V30 40 1 1 36
M  V30 41 1 3 37
M  V30 42 1 6 38
M  V30 43 1 9 39
M  V30 44 1 10 40
M  V30 45 1 13 41
M  V30 46 1 16 42
M  V30 47 1 16 43
M  V30 48 1 17 44
M  V30 49 1 17 45
M  V30 50 1 18 46
M  V30 51 1 20 47
M  V30 52 1 21 48
M  V30 53 1 22 49
M  V30 54 1 23 50
M  V30 55 1 28 51
M  V30 56 1 28 52
M  V30 57 1 31 53
M  V30 58 1 32 54
M  V30 END BOND
M  V30 END CTAB
M  END
>  <Dataset>  (463) 
ChEMBL_Kinases

>  <Ligand_Instance>  (463) 
nan

>  <PDB_ID>  (463) 
nan

>  <Standardized_SMILES>  (463) 
Cn1cc(-c2cnc3[nH]cc(-c4cc(N(CCO)c5ccccc5F)nc(N)n4)c3c2)cn1

>  <Name>  (463) 
nan

>  <Pocket>  (463) 
nan

>  <ATP_Site>  (463) 
nan

>  <Peripheral>  (463) 
nan

>  <Num_H_Atoms_ProtBoundConf>  (463) 
nan

>  <Num_Resolved_Atoms>  (463) 
nan

>  <Num_Not_Resolved_Atoms>  (463) 
nan

$$$$
CHEMBL3652583
     RDKit          3D

  0  0  0  0  0  0  0  0  0  0999 V3000
M  V30 BEGIN CTAB
M  V30 COUNTS 52 57 0 0 0
M  V30 BEGIN ATOM
M  V30 1 C 2.404812 -3.675555 7.041475 0
M  V30 2 N 2.220111 -3.343051 5.634842 0
M  V30 3 C 3.093464 -2.642331 4.875726 0
M  V30 4 C 2.575550 -2.526800 3.595117 0
M  V30 5 C 3.194900 -1.846304 2.461896 0
M  V30 6 C 4.582306 -1.866665 2.427833 0
M  V30 7 N 5.175549 -1.243469 1.390964 0
M  V30 8 C 4.504217 -0.620341 0.414969 0
M  V30 9 N 4.791279 0.069838 -0.700520 0
M  V30 10 C 3.686149 0.496764 -1.330686 0
M  V30 11 C 2.552646 0.083095 -0.618366 0
M  V30 12 C 1.228680 0.420464 -1.075070 0
M  V30 13 C 0.003478 0.012123 -0.655927 0
M  V30 14 C -1.225348 0.367371 -1.154568 0
M  V30 15 N -2.428923 -0.126904 -0.594356 0
M  V30 16 C -2.615970 -0.769863 0.689892 0
M  V30 17 C -3.619843 0.034652 1.529010 0
M  V30 18 O -4.826193 0.091733 0.801005 0
M  V30 19 C -4.800508 0.094084 -0.579420 0
M  V30 20 C -6.010299 0.209458 -1.254967 0
M  V30 21 C -5.998900 0.212943 -2.654221 0
M  V30 22 C -4.851836 0.107898 -3.427369 0
M  V30 23 C -3.646245 -0.007194 -2.730847 0
M  V30 24 C -3.632558 -0.012456 -1.342134 0
M  V30 25 N -1.170009 1.228181 -2.186714 0
M  V30 26 C -0.006952 1.686997 -2.671176 0
M  V30 27 N 0.008005 2.595105 -3.761869 0
M  V30 28 N 1.135385 1.274498 -2.108330 0
M  V30 29 C 3.131297 -0.587812 0.427487 0
M  V30 30 C 2.491534 -1.210596 1.466921 0
M  V30 31 C 1.360380 -3.185338 3.620072 0
M  V30 32 N 1.192814 -3.660452 4.875994 0
M  V30 33 H 1.385484 -3.929320 7.455313 0
M  V30 34 H 2.773391 -2.793160 7.587587 0
M  V30 35 H 3.018585 -4.578950 7.192218 0
M  V30 36 H 4.034920 -2.247925 5.232587 0
M  V30 37 H 5.209412 -2.346348 3.173559 0
M  V30 38 H 5.796438 0.226588 -0.998209 0
M  V30 39 H 3.805384 1.076554 -2.261717 0
M  V30 40 H -0.042405 -0.674696 0.143553 0
M  V30 41 H -3.052047 -1.787564 0.616006 0
M  V30 42 H -1.694827 -0.806195 1.285618 0
M  V30 43 H -3.751863 -0.562527 2.462515 0
M  V30 44 H -3.232938 1.054829 1.736436 0
M  V30 45 H -6.979450 0.298421 -0.769539 0
M  V30 46 H -6.932051 0.302437 -3.228246 0
M  V30 47 H -4.890928 0.114952 -4.492322 0
M  V30 48 H -2.718274 -0.098958 -3.244497 0
M  V30 49 H -0.103334 2.102120 -4.687368 0
M  V30 50 H 0.092033 3.608704 -3.988575 0
M  V30 51 H 1.434794 -1.242557 1.586189 0
M  V30 52 H 0.713044 -3.273023 2.775917 0
M  V30 END ATOM
M  V30 BEGIN BOND
M  V30 1 1 1 2
M  V30 2 1 2 3
M  V30 3 2 3 4
M  V30 4 1 4 5
M  V30 5 2 5 6
M  V30 6 1 6 7
M  V30 7 2 7 8
M  V30 8 1 8 9
M  V30 9 1 9 10
M  V30 10 2 10 11
M  V30 11 1 11 12
M  V30 12 2 12 13
M  V30 13 1 13 14
M  V30 14 1 14 15
M  V30 15 1 15 16
M  V30 16 1 16 17
M  V30 17 1 17 18
M  V30 18 1 18 19
M  V30 19 2 19 20
M  V30 20 1 20 21
M  V30 21 2 21 22
M  V30 22 1 22 23
M  V30 23 2 23 24
M  V30 24 2 14 25
M  V30 25 1 25 26
M  V30 26 1 26 27
M  V30 27 2 26 28
M  V30 28 1 11 29
M  V30 29 2 29 30
M  V30 30 1 4 31
M  V30 31 2 31 32
M  V30 32 1 32 2
M  V30 33 1 30 5
M  V30 34 1 29 8
M  V30 35 1 28 12
M  V30 36 1 24 15
M  V30 37 1 24 19
M  V30 38 1 1 33
M  V30 39 1 1 34
M  V30 40 1 1 35
M  V30 41 1 3 36
M  V30 42 1 6 37
M  V30 43 1 9 38
M  V30 44 1 10 39
M  V30 45 1 13 40
M  V30 46 1 16 41
M  V30 47 1 16 42
M  V30 48 1 17 43
M  V30 49 1 17 44
M  V30 50 1 20 45
M  V30 51 1 21 46
M  V30 52 1 22 47
M  V30 53 1 23 48
M  V30 54 1 27 49
M  V30 55 1 27 50
M  V30 56 1 30 51
M  V30 57 1 31 52
M  V30 END BOND
M  V30 END CTAB
M  END
>  <Dataset>  (464) 
ChEMBL_Kinases

>  <Ligand_Instance>  (464) 
nan

>  <PDB_ID>  (464) 
nan

>  <Standardized_SMILES>  (464) 
Cn1cc(-c2cnc3[nH]cc(-c4cc(N5CCOc6ccccc65)nc(N)n4)c3c2)cn1

>  <Name>  (464) 
nan

>  <Pocket>  (464) 
nan

>  <ATP_Site>  (464) 
nan

>  <Peripheral>  (464) 
nan

>  <Num_H_Atoms_ProtBoundConf>  (464) 
nan

>  <Num_Resolved_Atoms>  (464) 
nan

>  <Num_Not_Resolved_Atoms>  (464) 
nan

$$$$
CHEMBL3652584
     RDKit          3D

  0  0  0  0  0  0  0  0  0  0999 V3000
M  V30 BEGIN CTAB
M  V30 COUNTS 66 71 0 0 0
M  V30 BEGIN ATOM
M  V30 1 C 3.172332 -4.495989 4.473330 0
M  V30 2 N 3.688576 -3.224646 4.004458 0
M  V30 3 C 3.252630 -2.458747 3.003658 0
M  V30 4 C 4.086350 -1.366425 2.975699 0
M  V30 5 C 4.062141 -0.205277 2.072441 0
M  V30 6 C 5.285796 0.394524 1.778732 0
M  V30 7 N 5.323584 1.464184 0.961195 0
M  V30 8 C 4.208806 1.973152 0.417039 0
M  V30 9 N 3.912280 2.991038 -0.392471 0
M  V30 10 C 2.610275 3.063596 -0.619664 0
M  V30 11 C 1.941999 2.037912 0.066519 0
M  V30 12 C 0.507300 1.919660 -0.013862 0
M  V30 13 C -0.320678 0.915820 0.376435 0
M  V30 14 C -1.688097 0.849885 0.257189 0
M  V30 15 N -2.433088 -0.275606 0.705527 0
M  V30 16 C -3.083919 -0.837101 -0.460681 0
M  V30 17 C -2.043400 -1.225645 -1.445653 0
M  V30 18 N -2.450183 -1.786181 -2.651652 0
M  V30 19 C -3.041880 -3.060118 -2.716607 0
M  V30 20 C -3.836480 -3.288803 -4.001098 0
M  V30 21 O -3.041169 -2.959898 -5.091850 0
M  V30 22 C -2.639041 -1.635405 -5.033572 0
M  V30 23 C -1.712847 -1.483949 -3.832436 0
M  V30 24 C -2.465230 -0.689913 2.062681 0
M  V30 25 C -3.187868 -1.770639 2.458284 0
M  V30 26 C -3.224997 -2.192953 3.786020 0
M  V30 27 C -2.482369 -1.451378 4.691970 0
M  V30 28 C -1.753137 -0.357305 4.279675 0
M  V30 29 F -1.056393 0.310737 5.238558 0
M  V30 30 C -1.720781 0.059750 2.947468 0
M  V30 31 N -2.264562 1.941264 -0.331421 0
M  V30 32 C -1.507395 2.972937 -0.744304 0
M  V30 33 N -2.089491 4.120099 -1.362697 0
M  V30 34 N -0.185847 2.922415 -0.573649 0
M  V30 35 C 2.983677 1.408995 0.681870 0
M  V30 36 C 2.932130 0.328016 1.506930 0
M  V30 37 C 5.005673 -1.541632 3.992606 0
M  V30 38 N 4.730802 -2.714482 4.618074 0
M  V30 39 H 3.964275 -5.267612 4.359750 0
M  V30 40 H 2.225492 -4.784217 3.948641 0
M  V30 41 H 2.921020 -4.472404 5.560688 0
M  V30 42 H 2.423016 -2.647233 2.349468 0
M  V30 43 H 6.217959 0.041447 2.180012 0
M  V30 44 H 4.677937 3.616976 -0.766686 0
M  V30 45 H 2.227190 3.865187 -1.274787 0
M  V30 46 H 0.096301 0.053591 0.819720 0
M  V30 47 H -3.758900 -0.045283 -0.866507 0
M  V30 48 H -3.722989 -1.665866 -0.110304 0
M  V30 49 H -1.357176 -1.956175 -0.921263 0
M  V30 50 H -1.419486 -0.331609 -1.650835 0
M  V30 51 H -3.626177 -3.368507 -1.839640 0
M  V30 52 H -2.209306 -3.808117 -2.792129 0
M  V30 53 H -4.796134 -2.766309 -4.011547 0
M  V30 54 H -4.051117 -4.380748 -4.042802 0
M  V30 55 H -2.077581 -1.412550 -5.946018 0
M  V30 56 H -3.512041 -0.976825 -4.850195 0
M  V30 57 H -1.316903 -0.448118 -3.784043 0
M  V30 58 H -0.907585 -2.236839 -3.962812 0
M  V30 59 H -3.775557 -2.371754 1.789100 0
M  V30 60 H -3.785046 -3.046353 4.142075 0
M  V30 61 H -2.510572 -1.781759 5.732813 0
M  V30 62 H -1.119103 0.925977 2.732201 0
M  V30 63 H -2.188311 4.806015 -0.594539 0
M  V30 64 H -2.362303 4.254342 -2.369907 0
M  V30 65 H 2.033000 -0.163418 1.772982 0
M  V30 66 H 5.791379 -0.858032 4.229057 0
M  V30 END ATOM
M  V30 BEGIN BOND
M  V30 1 1 1 2
M  V30 2 1 2 3
M  V30 3 2 3 4
M  V30 4 1 4 5
M  V30 5 2 5 6
M  V30 6 1 6 7
M  V30 7 2 7 8
M  V30 8 1 8 9
M  V30 9 1 9 10
M  V30 10 2 10 11
M  V30 11 1 11 12
M  V30 12 2 12 13
M  V30 13 1 13 14
M  V30 14 1 14 15
M  V30 15 1 15 16
M  V30 16 1 16 17
M  V30 17 1 17 18
M  V30 18 1 18 19
M  V30 19 1 19 20
M  V30 20 1 20 21
M  V30 21 1 21 22
M  V30 22 1 22 23
M  V30 23 1 15 24
M  V30 24 2 24 25
M  V30 25 1 25 26
M  V30 26 2 26 27
M  V30 27 1 27 28
M  V30 28 1 28 29
M  V30 29 2 28 30
M  V30 30 2 14 31
M  V30 31 1 31 32
M  V30 32 1 32 33
M  V30 33 2 32 34
M  V30 34 1 11 35
M  V30 35 2 35 36
M  V30 36 1 4 37
M  V30 37 2 37 38
M  V30 38 1 38 2
M  V30 39 1 36 5
M  V30 40 1 35 8
M  V30 41 1 34 12
M  V30 42 1 23 18
M  V30 43 1 30 24
M  V30 44 1 1 39
M  V30 45 1 1 40
M  V30 46 1 1 41
M  V30 47 1 3 42
M  V30 48 1 6 43
M  V30 49 1 9 44
M  V30 50 1 10 45
M  V30 51 1 13 46
M  V30 52 1 16 47
M  V30 53 1 16 48
M  V30 54 1 17 49
M  V30 55 1 17 50
M  V30 56 1 19 51
M  V30 57 1 19 52
M  V30 58 1 20 53
M  V30 59 1 20 54
M  V30 60 1 22 55
M  V30 61 1 22 56
M  V30 62 1 23 57
M  V30 63 1 23 58
M  V30 64 1 25 59
M  V30 65 1 26 60
M  V30 66 1 27 61
M  V30 67 1 30 62
M  V30 68 1 33 63
M  V30 69 1 33 64
M  V30 70 1 36 65
M  V30 71 1 37 66
M  V30 END BOND
M  V30 END CTAB
M  END
>  <Dataset>  (465) 
ChEMBL_Kinases

>  <Ligand_Instance>  (465) 
nan

>  <PDB_ID>  (465) 
nan

>  <Standardized_SMILES>  (465) 
Cn1cc(-c2cnc3[nH]cc(-c4cc(N(CCN5CCOCC5)c5cccc(F)c5)nc(N)n4)c3c2)cn1

>  <Name>  (465) 
nan

>  <Pocket>  (465) 
nan

>  <ATP_Site>  (465) 
nan

>  <Peripheral>  (465) 
nan

>  <Num_H_Atoms_ProtBoundConf>  (465) 
nan

>  <Num_Resolved_Atoms>  (465) 
nan

>  <Num_Not_Resolved_Atoms>  (465) 
nan

$$$$
CHEMBL3652585
     RDKit          3D

  0  0  0  0  0  0  0  0  0  0999 V3000
M  V30 BEGIN CTAB
M  V30 COUNTS 57 61 0 0 0
M  V30 BEGIN ATOM
M  V30 1 C 3.226637 -1.200090 2.938951 0
M  V30 2 O 2.971542 -2.022270 1.856632 0
M  V30 3 C 4.155570 -2.295877 1.186953 0
M  V30 4 C 3.930444 -3.184494 0.010345 0
M  V30 5 N 3.053137 -2.669810 -1.002546 0
M  V30 6 C 1.747769 -2.402608 -0.543122 0
M  V30 7 C 1.354294 -1.126254 -0.122130 0
M  V30 8 C 0.116329 -0.752562 0.352934 0
M  V30 9 C -0.102914 0.633571 0.747084 0
M  V30 10 C 0.828205 1.668429 0.694295 0
M  V30 11 N 0.196047 2.767995 1.154475 0
M  V30 12 C -1.073979 2.473169 1.489238 0
M  V30 13 N -2.040511 3.267413 1.983848 0
M  V30 14 C -3.269560 2.799576 2.265158 0
M  V30 15 C -3.540729 1.464369 2.037108 0
M  V30 16 C -4.808530 0.778072 2.278858 0
M  V30 17 C -5.225717 -0.488546 2.633076 0
M  V30 18 N -6.583652 -0.457699 2.692002 0
M  V30 19 N -7.024657 0.757399 2.393537 0
M  V30 20 C -8.471519 0.941200 2.415450 0
M  V30 21 C -5.946273 1.546752 2.132395 0
M  V30 22 C -2.539825 0.642169 1.524817 0
M  V30 23 C -1.289040 1.137573 1.243154 0
M  V30 24 N -0.792873 -1.762714 0.402018 0
M  V30 25 C -0.483151 -3.010330 0.013806 0
M  V30 26 N -1.506644 -3.998313 0.103468 0
M  V30 27 N 0.762041 -3.322221 -0.449169 0
M  V30 28 C 3.418134 -2.425681 -2.352541 0
M  V30 29 C 4.701104 -2.565785 -2.831281 0
M  V30 30 C 5.100107 -2.331778 -4.131166 0
M  V30 31 C 4.173094 -1.923651 -5.057271 0
M  V30 32 C 2.872313 -1.765314 -4.638210 0
M  V30 33 C 2.538742 -2.014425 -3.329553 0
M  V30 34 Cl 0.847866 -1.773059 -2.953013 0
M  V30 35 H 3.678393 -0.230812 2.644315 0
M  V30 36 H 3.897694 -1.717822 3.666958 0
M  V30 37 H 2.246961 -1.065622 3.466582 0
M  V30 38 H 4.810966 -2.865293 1.891189 0
M  V30 39 H 4.594876 -1.314241 0.920886 0
M  V30 40 H 4.866314 -3.538343 -0.455660 0
M  V30 41 H 3.447435 -4.139238 0.388919 0
M  V30 42 H 2.123795 -0.354429 -0.183537 0
M  V30 43 H 1.870803 1.602643 0.346851 0
M  V30 44 H 0.688061 3.702009 1.217957 0
M  V30 45 H -4.094473 3.371936 2.662187 0
M  V30 46 H -4.468040 -1.232325 2.791476 0
M  V30 47 H -8.657673 1.986243 2.092878 0
M  V30 48 H -8.875500 0.680557 3.391426 0
M  V30 49 H -8.848674 0.309740 1.579723 0
M  V30 50 H -6.173606 2.551028 1.878468 0
M  V30 51 H -2.676853 -0.416237 1.318913 0
M  V30 52 H -2.137938 -3.996152 -0.739891 0
M  V30 53 H -1.776357 -4.725522 0.813905 0
M  V30 54 H 5.518397 -2.877982 -2.203579 0
M  V30 55 H 6.117670 -2.449132 -4.480878 0
M  V30 56 H 4.450346 -1.734620 -6.072196 0
M  V30 57 H 2.165618 -1.444340 -5.385404 0
M  V30 END ATOM
M  V30 BEGIN BOND
M  V30 1 1 1 2
M  V30 2 1 2 3
M  V30 3 1 3 4
M  V30 4 1 4 5
M  V30 5 1 5 6
M  V30 6 2 6 7
M  V30 7 1 7 8
M  V30 8 1 8 9
M  V30 9 2 9 10
M  V30 10 1 10 11
M  V30 11 1 11 12
M  V30 12 2 12 13
M  V30 13 1 13 14
M  V30 14 2 14 15
M  V30 15 1 15 16
M  V30 16 1 16 17
M  V30 17 2 17 18
M  V30 18 1 18 19
M  V30 19 1 19 20
M  V30 20 1 19 21
M  V30 21 1 15 22
M  V30 22 2 22 23
M  V30 23 2 8 24
M  V30 24 1 24 25
M  V30 25 1 25 26
M  V30 26 2 25 27
M  V30 27 1 5 28
M  V30 28 2 28 29
M  V30 29 1 29 30
M  V30 30 2 30 31
M  V30 31 1 31 32
M  V30 32 2 32 33
M  V30 33 1 33 34
M  V30 34 1 27 6
M  V30 35 1 33 28
M  V30 36 1 23 9
M  V30 37 1 23 12
M  V30 38 2 21 16
M  V30 39 1 1 35
M  V30 40 1 1 36
M  V30 41 1 1 37
M  V30 42 1 3 38
M  V30 43 1 3 39
M  V30 44 1 4 40
M  V30 45 1 4 41
M  V30 46 1 7 42
M  V30 47 1 10 43
M  V30 48 1 11 44
M  V30 49 1 14 45
M  V30 50 1 17 46
M  V30 51 1 20 47
M  V30 52 1 20 48
M  V30 53 1 20 49
M  V30 54 1 21 50
M  V30 55 1 22 51
M  V30 56 1 26 52
M  V30 57 1 26 53
M  V30 58 1 29 54
M  V30 59 1 30 55
M  V30 60 1 31 56
M  V30 61 1 32 57
M  V30 END BOND
M  V30 END CTAB
M  END
>  <Dataset>  (466) 
ChEMBL_Kinases

>  <Ligand_Instance>  (466) 
nan

>  <PDB_ID>  (466) 
nan

>  <Standardized_SMILES>  (466) 
COCCN(c1cc(-c2c[nH]c3ncc(-c4cnn(C)c4)cc23)nc(N)n1)c1ccccc1Cl

>  <Name>  (466) 
nan

>  <Pocket>  (466) 
nan

>  <ATP_Site>  (466) 
nan

>  <Peripheral>  (466) 
nan

>  <Num_H_Atoms_ProtBoundConf>  (466) 
nan

>  <Num_Resolved_Atoms>  (466) 
nan

>  <Num_Not_Resolved_Atoms>  (466) 
nan

$$$$
CHEMBL3652586
     RDKit          3D

  0  0  0  0  0  0  0  0  0  0999 V3000
M  V30 BEGIN CTAB
M  V30 COUNTS 54 58 0 0 0
M  V30 BEGIN ATOM
M  V30 1 C 7.165082 -5.105364 2.250106 0
M  V30 2 N 6.076303 -4.142395 2.277717 0
M  V30 3 C 6.116883 -2.828841 1.975519 0
M  V30 4 C 4.847314 -2.313887 2.142761 0
M  V30 5 C 4.331633 -0.960478 1.955252 0
M  V30 6 C 5.104551 0.166953 2.178556 0
M  V30 7 N 4.592759 1.411897 1.993650 0
M  V30 8 C 3.314716 1.546845 1.587252 0
M  V30 9 N 2.598111 2.663536 1.339690 0
M  V30 10 C 1.340505 2.348306 0.947731 0
M  V30 11 C 1.248934 0.972857 0.944521 0
M  V30 12 C 0.113915 0.130897 0.598119 0
M  V30 13 C -1.112266 0.630361 0.189740 0
M  V30 14 C -2.233360 -0.072533 -0.159731 0
M  V30 15 N -3.482982 0.552811 -0.560345 0
M  V30 16 C -3.276312 1.949727 -0.529002 0
M  V30 17 C -4.367062 2.873722 -0.936368 0
M  V30 18 C -4.850531 2.711020 -2.290542 0
M  V30 19 N -5.240405 2.569470 -3.357105 0
M  V30 20 C -4.577686 -0.312759 -0.776711 0
M  V30 21 C -5.896626 0.032863 -0.809081 0
M  V30 22 C -6.978261 -0.756503 -1.100859 0
M  V30 23 C -6.723051 -2.090984 -1.406328 0
M  V30 24 C -5.396688 -2.519301 -1.392714 0
M  V30 25 C -4.393641 -1.632390 -1.085166 0
M  V30 26 N -1.944638 -1.354063 -0.038595 0
M  V30 27 C -0.858558 -1.988419 0.327479 0
M  V30 28 N -0.805861 -3.406429 0.375218 0
M  V30 29 N 0.194458 -1.222986 0.653232 0
M  V30 30 C 2.472038 0.480438 1.340709 0
M  V30 31 C 3.032273 -0.760430 1.540797 0
M  V30 32 C 4.034524 -3.360734 2.557192 0
M  V30 33 N 4.841796 -4.457247 2.622441 0
M  V30 34 H 7.521232 -5.365833 3.246534 0
M  V30 35 H 6.827066 -5.980054 1.658109 0
M  V30 36 H 8.002626 -4.626189 1.704008 0
M  V30 37 H 6.959963 -2.264265 1.661915 0
M  V30 38 H 6.119828 -0.019192 2.503037 0
M  V30 39 H 2.883232 3.672842 1.411078 0
M  V30 40 H 0.523581 3.009768 0.676986 0
M  V30 41 H -1.086240 1.711119 0.189120 0
M  V30 42 H -2.981791 2.224489 0.529817 0
M  V30 43 H -2.337019 2.192711 -1.154544 0
M  V30 44 H -3.882198 3.925333 -0.859334 0
M  V30 45 H -5.196785 2.950964 -0.232074 0
M  V30 46 H -6.224212 1.025435 -0.563446 0
M  V30 47 H -8.005998 -0.428018 -1.112138 0
M  V30 48 H -7.564995 -2.736081 -1.640874 0
M  V30 49 H -5.318562 -3.568040 -1.644264 0
M  V30 50 H -3.482098 -2.189453 -1.167755 0
M  V30 51 H -0.997333 -3.994319 1.238804 0
M  V30 52 H -0.553280 -3.817921 -0.549332 0
M  V30 53 H 2.424026 -1.644689 1.365253 0
M  V30 54 H 2.972049 -3.358020 2.792661 0
M  V30 END ATOM
M  V30 BEGIN BOND
M  V30 1 1 1 2
M  V30 2 1 2 3
M  V30 3 2 3 4
M  V30 4 1 4 5
M  V30 5 2 5 6
M  V30 6 1 6 7
M  V30 7 2 7 8
M  V30 8 1 8 9
M  V30 9 1 9 10
M  V30 10 2 10 11
M  V30 11 1 11 12
M  V30 12 2 12 13
M  V30 13 1 13 14
M  V30 14 1 14 15
M  V30 15 1 15 16
M  V30 16 1 16 17
M  V30 17 1 17 18
M  V30 18 3 18 19
M  V30 19 1 15 20
M  V30 20 2 20 21
M  V30 21 1 21 22
M  V30 22 2 22 23
M  V30 23 1 23 24
M  V30 24 2 24 25
M  V30 25 2 14 26
M  V30 26 1 26 27
M  V30 27 1 27 28
M  V30 28 2 27 29
M  V30 29 1 11 30
M  V30 30 2 30 31
M  V30 31 1 4 32
M  V30 32 2 32 33
M  V30 33 1 33 2
M  V30 34 1 31 5
M  V30 35 1 30 8
M  V30 36 1 29 12
M  V30 37 1 25 20
M  V30 38 1 1 34
M  V30 39 1 1 35
M  V30 40 1 1 36
M  V30 41 1 3 37
M  V30 42 1 6 38
M  V30 43 1 9 39
M  V30 44 1 10 40
M  V30 45 1 13 41
M  V30 46 1 16 42
M  V30 47 1 16 43
M  V30 48 1 17 44
M  V30 49 1 17 45
M  V30 50 1 21 46
M  V30 51 1 22 47
M  V30 52 1 23 48
M  V30 53 1 24 49
M  V30 54 1 25 50
M  V30 55 1 28 51
M  V30 56 1 28 52
M  V30 57 1 31 53
M  V30 58 1 32 54
M  V30 END BOND
M  V30 END CTAB
M  END
>  <Dataset>  (467) 
ChEMBL_Kinases

>  <Ligand_Instance>  (467) 
nan

>  <PDB_ID>  (467) 
nan

>  <Standardized_SMILES>  (467) 
Cn1cc(-c2cnc3[nH]cc(-c4cc(N(CCC#N)c5ccccc5)nc(N)n4)c3c2)cn1

>  <Name>  (467) 
nan

>  <Pocket>  (467) 
nan

>  <ATP_Site>  (467) 
nan

>  <Peripheral>  (467) 
nan

>  <Num_H_Atoms_ProtBoundConf>  (467) 
nan

>  <Num_Resolved_Atoms>  (467) 
nan

>  <Num_Not_Resolved_Atoms>  (467) 
nan

$$$$
CHEMBL365367
     RDKit          3D

  0  0  0  0  0  0  0  0  0  0999 V3000
M  V30 BEGIN CTAB
M  V30 COUNTS 32 33 0 0 0
M  V30 BEGIN ATOM
M  V30 1 N 3.757425 -4.099673 4.790385 0
M  V30 2 C 2.722856 -3.499971 3.975221 0
M  V30 3 O 2.307356 -2.971296 5.033564 0
M  V30 4 N 2.713655 -3.784905 2.561250 0
M  V30 5 C 1.665469 -3.130549 1.902138 0
M  V30 6 S 1.934457 -1.480953 1.243878 0
M  V30 7 C 0.181090 -1.368084 0.596610 0
M  V30 8 C -0.337961 -0.209354 -0.083241 0
M  V30 9 C -0.782199 0.736938 -0.632693 0
M  V30 10 C -1.327494 1.863103 -1.269727 0
M  V30 11 C -2.676740 2.005249 -1.816992 0
M  V30 12 S -2.808572 3.732946 -2.489553 0
M  V30 13 C -1.147820 4.168305 -2.039132 0
M  V30 14 C -0.811747 5.552860 -2.423940 0
M  V30 15 O -1.235445 6.371138 -1.389416 0
M  V30 16 C -0.725294 3.020290 -1.472160 0
M  V30 17 C -0.417087 -2.566474 0.935320 0
M  V30 18 C 0.346246 -3.475900 1.607848 0
M  V30 19 C -0.166275 -4.780207 2.019934 0
M  V30 20 N -1.479490 -5.190930 1.749710 0
M  V30 21 O 0.628465 -5.527708 2.634009 0
M  V30 22 H 4.687917 -4.288167 5.266344 0
M  V30 23 H 3.997355 -4.864162 5.470947 0
M  V30 24 H 3.463085 -4.418288 2.241815 0
M  V30 25 H -3.379716 1.050845 -1.720030 0
M  V30 26 H -1.267844 5.859542 -3.359450 0
M  V30 27 H 0.310278 5.592134 -2.472148 0
M  V30 28 H -1.276271 5.899905 -0.502570 0
M  V30 29 H 0.394575 3.376912 -1.383818 0
M  V30 30 H -1.446694 -2.709830 0.640095 0
M  V30 31 H -2.180599 -5.175901 0.983347 0
M  V30 32 H -1.945097 -5.032113 0.809831 0
M  V30 END ATOM
M  V30 BEGIN BOND
M  V30 1 1 1 2
M  V30 2 2 2 3
M  V30 3 1 2 4
M  V30 4 1 4 5
M  V30 5 1 5 6
M  V30 6 1 6 7
M  V30 7 1 7 8
M  V30 8 3 8 9
M  V30 9 1 9 10
M  V30 10 2 10 11
M  V30 11 1 11 12
M  V30 12 1 12 13
M  V30 13 1 13 14
M  V30 14 1 14 15
M  V30 15 2 13 16
M  V30 16 2 7 17
M  V30 17 1 17 18
M  V30 18 1 18 19
M  V30 19 1 19 20
M  V30 20 2 19 21
M  V30 21 2 18 5
M  V30 22 1 16 10
M  V30 23 1 1 22
M  V30 24 1 1 23
M  V30 25 1 4 24
M  V30 26 1 11 25
M  V30 27 1 14 26
M  V30 28 1 14 27
M  V30 29 1 15 28
M  V30 30 1 16 29
M  V30 31 1 17 30
M  V30 32 1 20 31
M  V30 33 1 20 32
M  V30 END BOND
M  V30 END CTAB
M  END
>  <Dataset>  (468) 
ChEMBL_Kinases

>  <Ligand_Instance>  (468) 
nan

>  <PDB_ID>  (468) 
nan

>  <Standardized_SMILES>  (468) 
NC(=O)Nc1sc(C#Cc2csc(CO)c2)cc1C(N)=O

>  <Name>  (468) 
nan

>  <Pocket>  (468) 
nan

>  <ATP_Site>  (468) 
nan

>  <Peripheral>  (468) 
nan

>  <Num_H_Atoms_ProtBoundConf>  (468) 
nan

>  <Num_Resolved_Atoms>  (468) 
nan

>  <Num_Not_Resolved_Atoms>  (468) 
nan

$$$$
CHEMBL3652588
     RDKit          3D

  0  0  0  0  0  0  0  0  0  0999 V3000
M  V30 BEGIN CTAB
M  V30 COUNTS 58 62 0 0 0
M  V30 BEGIN ATOM
M  V30 1 C 1.620946 -1.454045 5.919022 0
M  V30 2 N 2.496449 -0.579858 5.128791 0
M  V30 3 C 2.618240 -0.675483 3.773120 0
M  V30 4 C 3.537113 0.327759 3.436406 0
M  V30 5 C 3.947922 0.556674 2.034207 0
M  V30 6 C 5.222427 1.023319 1.791425 0
M  V30 7 N 5.592516 1.228382 0.490740 0
M  V30 8 C 4.704887 0.968677 -0.482178 0
M  V30 9 N 4.761414 1.046516 -1.821297 0
M  V30 10 C 3.627750 0.668600 -2.429347 0
M  V30 11 C 2.712395 0.300815 -1.431529 0
M  V30 12 C 1.401039 -0.174472 -1.773490 0
M  V30 13 C 0.253193 -0.300900 -1.034015 0
M  V30 14 C -0.993973 -0.741404 -1.431598 0
M  V30 15 N -2.126021 -0.813923 -0.512197 0
M  V30 16 C -1.667443 -0.517845 0.781839 0
M  V30 17 C -2.461598 -0.825582 1.991957 0
M  V30 18 C -2.694932 -2.300597 2.220520 0
M  V30 19 N -3.372549 -2.993517 1.175861 0
M  V30 20 C -3.395661 -0.997332 -1.094661 0
M  V30 21 C -4.612115 -0.674067 -0.521783 0
M  V30 22 C -5.868208 -0.898435 -1.029939 0
M  V30 23 C -5.978549 -1.517217 -2.256235 0
M  V30 24 C -4.794846 -1.875449 -2.900205 0
M  V30 25 C -3.586828 -1.608164 -2.308282 0
M  V30 26 N -0.989787 -1.060107 -2.706964 0
M  V30 27 C 0.027909 -0.989678 -3.534661 0
M  V30 28 N -0.093133 -1.367026 -4.912555 0
M  V30 29 N 1.202720 -0.551559 -3.064489 0
M  V30 30 C 3.429351 0.505014 -0.279101 0
M  V30 31 C 3.050238 0.295548 1.022651 0
M  V30 32 C 3.933233 0.987055 4.592117 0
M  V30 33 N 3.258526 0.382153 5.593921 0
M  V30 34 H 2.046550 -1.572908 6.957430 0
M  V30 35 H 0.584942 -1.050373 5.980972 0
M  V30 36 H 1.590538 -2.446985 5.422924 0
M  V30 37 H 2.098557 -1.386099 3.143188 0
M  V30 38 H 5.951669 1.238290 2.560461 0
M  V30 39 H 5.634827 1.379766 -2.328139 0
M  V30 40 H 3.542292 0.684802 -3.528942 0
M  V30 41 H 0.422666 0.046955 -0.031514 0
M  V30 42 H -1.352208 0.566735 0.804793 0
M  V30 43 H -0.675248 -1.090764 0.990369 0
M  V30 44 H -1.756745 -0.540499 2.873497 0
M  V30 45 H -3.344139 -0.228430 2.202804 0
M  V30 46 H -3.291129 -2.469540 3.155313 0
M  V30 47 H -1.717503 -2.809730 2.406989 0
M  V30 48 H -2.779574 -3.780645 0.788793 0
M  V30 49 H -4.285082 -3.436191 1.494628 0
M  V30 50 H -4.656280 -0.179116 0.418347 0
M  V30 51 H -6.780740 -0.618923 -0.527190 0
M  V30 52 H -6.958855 -1.702150 -2.671033 0
M  V30 53 H -4.972193 -2.352325 -3.850771 0
M  V30 54 H -2.836171 -1.993593 -2.969937 0
M  V30 55 H -0.244961 -0.993539 -5.858906 0
M  V30 56 H 0.023181 -2.413018 -4.885945 0
M  V30 57 H 2.090762 -0.078223 1.303119 0
M  V30 58 H 4.646829 1.814799 4.607965 0
M  V30 END ATOM
M  V30 BEGIN BOND
M  V30 1 1 1 2
M  V30 2 1 2 3
M  V30 3 2 3 4
M  V30 4 1 4 5
M  V30 5 2 5 6
M  V30 6 1 6 7
M  V30 7 2 7 8
M  V30 8 1 8 9
M  V30 9 1 9 10
M  V30 10 2 10 11
M  V30 11 1 11 12
M  V30 12 2 12 13
M  V30 13 1 13 14
M  V30 14 1 14 15
M  V30 15 1 15 16
M  V30 16 1 16 17
M  V30 17 1 17 18
M  V30 18 1 18 19
M  V30 19 1 15 20
M  V30 20 2 20 21
M  V30 21 1 21 22
M  V30 22 2 22 23
M  V30 23 1 23 24
M  V30 24 2 24 25
M  V30 25 2 14 26
M  V30 26 1 26 27
M  V30 27 1 27 28
M  V30 28 2 27 29
M  V30 29 1 11 30
M  V30 30 2 30 31
M  V30 31 1 4 32
M  V30 32 2 32 33
M  V30 33 1 33 2
M  V30 34 1 31 5
M  V30 35 1 30 8
M  V30 36 1 29 12
M  V30 37 1 25 20
M  V30 38 1 1 34
M  V30 39 1 1 35
M  V30 40 1 1 36
M  V30 41 1 3 37
M  V30 42 1 6 38
M  V30 43 1 9 39
M  V30 44 1 10 40
M  V30 45 1 13 41
M  V30 46 1 16 42
M  V30 47 1 16 43
M  V30 48 1 17 44
M  V30 49 1 17 45
M  V30 50 1 18 46
M  V30 51 1 18 47
M  V30 52 1 19 48
M  V30 53 1 19 49
M  V30 54 1 21 50
M  V30 55 1 22 51
M  V30 56 1 23 52
M  V30 57 1 24 53
M  V30 58 1 25 54
M  V30 59 1 28 55
M  V30 60 1 28 56
M  V30 61 1 31 57
M  V30 62 1 32 58
M  V30 END BOND
M  V30 END CTAB
M  END
>  <Dataset>  (469) 
ChEMBL_Kinases

>  <Ligand_Instance>  (469) 
nan

>  <PDB_ID>  (469) 
nan

>  <Standardized_SMILES>  (469) 
Cn1cc(-c2cnc3[nH]cc(-c4cc(N(CCCN)c5ccccc5)nc(N)n4)c3c2)cn1

>  <Name>  (469) 
nan

>  <Pocket>  (469) 
nan

>  <ATP_Site>  (469) 
nan

>  <Peripheral>  (469) 
nan

>  <Num_H_Atoms_ProtBoundConf>  (469) 
nan

>  <Num_Resolved_Atoms>  (469) 
nan

>  <Num_Not_Resolved_Atoms>  (469) 
nan

$$$$
CHEMBL3652589
     RDKit          3D

  0  0  0  0  0  0  0  0  0  0999 V3000
M  V30 BEGIN CTAB
M  V30 COUNTS 57 61 0 0 0
M  V30 BEGIN ATOM
M  V30 1 C 3.115699 -5.243370 4.824162 0
M  V30 2 N 2.788010 -4.491657 3.620949 0
M  V30 3 C 3.614107 -3.529140 3.161285 0
M  V30 4 C 3.038680 -3.034593 2.035493 0
M  V30 5 C 3.487715 -1.988638 1.118928 0
M  V30 6 C 4.867275 -1.826281 0.934276 0
M  V30 7 N 5.347149 -0.897430 0.098884 0
M  V30 8 C 4.510920 -0.084068 -0.595044 0
M  V30 9 N 4.660632 0.897863 -1.496687 0
M  V30 10 C 3.469817 1.370765 -1.892947 0
M  V30 11 C 2.456164 0.675528 -1.227346 0
M  V30 12 C 1.070571 0.975341 -1.508315 0
M  V30 13 C -0.044845 0.675970 -0.776228 0
M  V30 14 C -1.353029 0.989228 -1.057778 0
M  V30 15 N -2.406758 0.588176 -0.143613 0
M  V30 16 C -2.884878 1.850767 0.299920 0
M  V30 17 C -4.127508 1.841591 1.159833 0
M  V30 18 C -5.295654 1.271860 0.446956 0
M  V30 19 N -6.560909 1.180268 1.054067 0
M  V30 20 O -5.206788 0.842553 -0.737014 0
M  V30 21 C -2.548349 -0.810710 0.025989 0
M  V30 22 C -3.355013 -1.426388 0.934624 0
M  V30 23 C -3.524358 -2.774925 1.112688 0
M  V30 24 C -2.776143 -3.561868 0.256811 0
M  V30 25 C -1.943908 -3.020013 -0.680604 0
M  V30 26 C -1.836766 -1.660448 -0.789153 0
M  V30 27 N -1.541932 1.686530 -2.214175 0
M  V30 28 C -0.486709 2.017857 -2.985808 0
M  V30 29 N -0.765623 2.746986 -4.183485 0
M  V30 30 N 0.748681 1.659844 -2.615190 0
M  V30 31 C 3.155401 -0.195254 -0.454462 0
M  V30 32 C 2.678299 -1.141459 0.395100 0
M  V30 33 C 1.846451 -3.724145 1.832916 0
M  V30 34 N 1.731752 -4.623445 2.846128 0
M  V30 35 H 3.337905 -4.557292 5.659959 0
M  V30 36 H 4.030519 -5.859144 4.626460 0
M  V30 37 H 2.297466 -5.939788 5.114328 0
M  V30 38 H 4.551882 -3.176974 3.561339 0
M  V30 39 H 5.554406 -2.467417 1.479737 0
M  V30 40 H 5.611498 1.232810 -1.828925 0
M  V30 41 H 3.407448 2.181038 -2.628171 0
M  V30 42 H 0.068185 0.147835 0.151863 0
M  V30 43 H -3.177936 2.483922 -0.607152 0
M  V30 44 H -2.082808 2.490963 0.790547 0
M  V30 45 H -4.415717 2.932216 1.332297 0
M  V30 46 H -3.967803 1.442656 2.167479 0
M  V30 47 H -7.227966 0.354508 1.002850 0
M  V30 48 H -7.321994 1.587338 1.639276 0
M  V30 49 H -3.932874 -0.843504 1.615375 0
M  V30 50 H -4.169362 -3.231841 1.834980 0
M  V30 51 H -2.845758 -4.637201 0.328484 0
M  V30 52 H -1.379889 -3.677533 -1.323655 0
M  V30 53 H -1.151559 -1.324998 -1.571404 0
M  V30 54 H -0.639772 2.395143 -5.173718 0
M  V30 55 H -1.122717 3.708702 -3.921223 0
M  V30 56 H 1.647049 -1.312603 0.556561 0
M  V30 57 H 1.063660 -3.679883 1.082644 0
M  V30 END ATOM
M  V30 BEGIN BOND
M  V30 1 1 1 2
M  V30 2 1 2 3
M  V30 3 2 3 4
M  V30 4 1 4 5
M  V30 5 2 5 6
M  V30 6 1 6 7
M  V30 7 2 7 8
M  V30 8 1 8 9
M  V30 9 1 9 10
M  V30 10 2 10 11
M  V30 11 1 11 12
M  V30 12 2 12 13
M  V30 13 1 13 14
M  V30 14 1 14 15
M  V30 15 1 15 16
M  V30 16 1 16 17
M  V30 17 1 17 18
M  V30 18 1 18 19
M  V30 19 2 18 20
M  V30 20 1 15 21
M  V30 21 2 21 22
M  V30 22 1 22 23
M  V30 23 2 23 24
M  V30 24 1 24 25
M  V30 25 2 25 26
M  V30 26 2 14 27
M  V30 27 1 27 28
M  V30 28 1 28 29
M  V30 29 2 28 30
M  V30 30 1 11 31
M  V30 31 2 31 32
M  V30 32 1 4 33
M  V30 33 2 33 34
M  V30 34 1 34 2
M  V30 35 1 32 5
M  V30 36 1 31 8
M  V30 37 1 30 12
M  V30 38 1 26 21
M  V30 39 1 1 35
M  V30 40 1 1 36
M  V30 41 1 1 37
M  V30 42 1 3 38
M  V30 43 1 6 39
M  V30 44 1 9 40
M  V30 45 1 10 41
M  V30 46 1 13 42
M  V30 47 1 16 43
M  V30 48 1 16 44
M  V30 49 1 17 45
M  V30 50 1 17 46
M  V30 51 1 19 47
M  V30 52 1 19 48
M  V30 53 1 22 49
M  V30 54 1 23 50
M  V30 55 1 24 51
M  V30 56 1 25 52
M  V30 57 1 26 53
M  V30 58 1 29 54
M  V30 59 1 29 55
M  V30 60 1 32 56
M  V30 61 1 33 57
M  V30 END BOND
M  V30 END CTAB
M  END
>  <Dataset>  (470) 
ChEMBL_Kinases

>  <Ligand_Instance>  (470) 
nan

>  <PDB_ID>  (470) 
nan

>  <Standardized_SMILES>  (470) 
Cn1cc(-c2cnc3[nH]cc(-c4cc(N(CCC(N)=O)c5ccccc5)nc(N)n4)c3c2)cn1

>  <Name>  (470) 
nan

>  <Pocket>  (470) 
nan

>  <ATP_Site>  (470) 
nan

>  <Peripheral>  (470) 
nan

>  <Num_H_Atoms_ProtBoundConf>  (470) 
nan

>  <Num_Resolved_Atoms>  (470) 
nan

>  <Num_Not_Resolved_Atoms>  (470) 
nan

$$$$
CHEMBL3652590
     RDKit          3D

  0  0  0  0  0  0  0  0  0  0999 V3000
M  V30 BEGIN CTAB
M  V30 COUNTS 52 57 0 0 0
M  V30 BEGIN ATOM
M  V30 1 C 7.530760 -2.725274 -2.839684 0
M  V30 2 N 6.254071 -2.796126 -2.147891 0
M  V30 3 C 5.952485 -2.078773 -1.036700 0
M  V30 4 C 4.651330 -2.358573 -0.598805 0
M  V30 5 C 3.988418 -1.773069 0.566121 0
M  V30 6 C 4.728524 -1.411678 1.689547 0
M  V30 7 N 4.067286 -0.868123 2.754040 0
M  V30 8 C 2.738975 -0.678461 2.738154 0
M  V30 9 N 1.969981 -0.157373 3.712197 0
M  V30 10 C 0.706020 -0.173132 3.229140 0
M  V30 11 C 0.643504 -0.697032 1.955394 0
M  V30 12 C -0.477704 -0.901677 1.067133 0
M  V30 13 C -1.751022 -0.524066 1.505105 0
M  V30 14 C -2.818120 -0.718666 0.653015 0
M  V30 15 C -4.209982 -0.340063 1.051350 0
M  V30 16 C -4.350945 1.108605 1.339800 0
M  V30 17 C -4.764349 1.408295 2.619970 0
M  V30 18 C -4.933206 2.739911 3.010912 0
M  V30 19 C -4.694641 3.784089 2.139080 0
M  V30 20 C -4.276043 3.470791 0.843950 0
M  V30 21 C -4.115094 2.152562 0.476574 0
M  V30 22 F -3.705004 1.794222 -0.784478 0
M  V30 23 C -5.336859 -1.001044 0.329643 0
M  V30 24 C -5.074566 -1.301528 1.790262 0
M  V30 25 N -2.590098 -1.266362 -0.570610 0
M  V30 26 C -1.374673 -1.629221 -0.993850 0
M  V30 27 N -1.155260 -2.201852 -2.279181 0
M  V30 28 N -0.336996 -1.436897 -0.158034 0
M  V30 29 C 1.964944 -1.020772 1.648000 0
M  V30 30 C 2.620677 -1.570257 0.567627 0
M  V30 31 C 4.206086 -3.284067 -1.520794 0
M  V30 32 N 5.180750 -3.523208 -2.428082 0
M  V30 33 H 7.938712 -1.704142 -2.684410 0
M  V30 34 H 8.222376 -3.534028 -2.565837 0
M  V30 35 H 7.318076 -2.783993 -3.930165 0
M  V30 36 H 6.619061 -1.390902 -0.557183 0
M  V30 37 H 5.809554 -1.555867 1.725615 0
M  V30 38 H 2.160245 0.215800 4.670562 0
M  V30 39 H -0.202611 0.174497 3.738786 0
M  V30 40 H -1.964291 -0.090389 2.461085 0
M  V30 41 H -4.984412 0.697945 3.396911 0
M  V30 42 H -5.260273 3.009956 4.020332 0
M  V30 43 H -4.834569 4.806693 2.473918 0
M  V30 44 H -4.082199 4.252691 0.141095 0
M  V30 45 H -6.176141 -0.340351 0.038771 0
M  V30 46 H -5.121773 -1.821088 -0.416929 0
M  V30 47 H -5.834562 -0.943903 2.499033 0
M  V30 48 H -4.664258 -2.313660 2.027399 0
M  V30 49 H -0.755113 -3.167929 -2.333018 0
M  V30 50 H -1.316269 -1.848392 -3.242480 0
M  V30 51 H 2.023270 -1.848216 -0.307057 0
M  V30 52 H 3.230265 -3.732444 -1.501642 0
M  V30 END ATOM
M  V30 BEGIN BOND
M  V30 1 1 1 2
M  V30 2 1 2 3
M  V30 3 2 3 4
M  V30 4 1 4 5
M  V30 5 2 5 6
M  V30 6 1 6 7
M  V30 7 2 7 8
M  V30 8 1 8 9
M  V30 9 1 9 10
M  V30 10 2 10 11
M  V30 11 1 11 12
M  V30 12 2 12 13
M  V30 13 1 13 14
M  V30 14 1 14 15
M  V30 15 1 15 16
M  V30 16 2 16 17
M  V30 17 1 17 18
M  V30 18 2 18 19
M  V30 19 1 19 20
M  V30 20 2 20 21
M  V30 21 1 21 22
M  V30 22 1 15 23
M  V30 23 1 23 24
M  V30 24 2 14 25
M  V30 25 1 25 26
M  V30 26 1 26 27
M  V30 27 2 26 28
M  V30 28 1 11 29
M  V30 29 2 29 30
M  V30 30 1 4 31
M  V30 31 2 31 32
M  V30 32 1 32 2
M  V30 33 1 30 5
M  V30 34 1 29 8
M  V30 35 1 28 12
M  V30 36 1 24 15
M  V30 37 1 21 16
M  V30 38 1 1 33
M  V30 39 1 1 34
M  V30 40 1 1 35
M  V30 41 1 3 36
M  V30 42 1 6 37
M  V30 43 1 9 38
M  V30 44 1 10 39
M  V30 45 1 13 40
M  V30 46 1 17 41
M  V30 47 1 18 42
M  V30 48 1 19 43
M  V30 49 1 20 44
M  V30 50 1 23 45
M  V30 51 1 23 46
M  V30 52 1 24 47
M  V30 53 1 24 48
M  V30 54 1 27 49
M  V30 55 1 27 50
M  V30 56 1 30 51
M  V30 57 1 31 52
M  V30 END BOND
M  V30 END CTAB
M  END
>  <Dataset>  (471) 
ChEMBL_Kinases

>  <Ligand_Instance>  (471) 
nan

>  <PDB_ID>  (471) 
nan

>  <Standardized_SMILES>  (471) 
Cn1cc(-c2cnc3[nH]cc(-c4cc(C5(c6ccccc6F)CC5)nc(N)n4)c3c2)cn1

>  <Name>  (471) 
nan

>  <Pocket>  (471) 
nan

>  <ATP_Site>  (471) 
nan

>  <Peripheral>  (471) 
nan

>  <Num_H_Atoms_ProtBoundConf>  (471) 
nan

>  <Num_Resolved_Atoms>  (471) 
nan

>  <Num_Not_Resolved_Atoms>  (471) 
nan

$$$$
CHEMBL3652591
     RDKit          3D

  0  0  0  0  0  0  0  0  0  0999 V3000
M  V30 BEGIN CTAB
M  V30 COUNTS 63 67 0 0 0
M  V30 BEGIN ATOM
M  V30 1 C 2.400971 0.890810 3.032970 0
M  V30 2 C 1.253863 0.056883 2.639767 0
M  V30 3 O 0.334428 0.877983 2.420123 0
M  V30 4 N 1.172371 -1.352002 2.525374 0
M  V30 5 C -0.073323 -1.948107 2.116978 0
M  V30 6 C -0.605219 -1.551378 0.798481 0
M  V30 7 C 0.157822 -1.877179 -0.434958 0
M  V30 8 N 1.477148 -1.329244 -0.436123 0
M  V30 9 C 2.544262 -2.103875 0.021077 0
M  V30 10 C 2.337298 -3.417152 0.429192 0
M  V30 11 C 3.326861 -4.251061 0.890486 0
M  V30 12 C 4.638036 -3.828995 0.984112 0
M  V30 13 C 4.912861 -2.535362 0.595285 0
M  V30 14 C 3.869191 -1.760134 0.143986 0
M  V30 15 C 1.662236 0.009070 -0.912561 0
M  V30 16 C 0.596602 0.763499 -1.336200 0
M  V30 17 C 0.600142 2.038570 -1.816235 0
M  V30 18 C -0.460866 2.903479 -2.257953 0
M  V30 19 C -0.223871 4.265208 -2.502194 0
M  V30 20 N -1.369200 4.828115 -2.910549 0
M  V30 21 C -2.387620 3.955638 -2.969109 0
M  V30 22 N -3.685576 4.005613 -3.309355 0
M  V30 23 C -4.494570 2.932195 -3.280951 0
M  V30 24 C -3.902688 1.754236 -2.874566 0
M  V30 25 C -4.776834 0.570208 -2.840260 0
M  V30 26 C -4.282600 -0.687437 -3.080785 0
M  V30 27 N -5.329941 -1.521691 -2.972918 0
M  V30 28 N -6.444742 -0.859250 -2.680107 0
M  V30 29 C -7.772661 -1.408890 -2.485180 0
M  V30 30 C -6.127308 0.442363 -2.592333 0
M  V30 31 C -2.576525 1.664721 -2.518165 0
M  V30 32 C -1.795336 2.781910 -2.562132 0
M  V30 33 N 1.844609 2.550027 -1.845087 0
M  V30 34 C 2.951669 1.904385 -1.456802 0
M  V30 35 N 4.212456 2.553336 -1.535891 0
M  V30 36 N 2.821077 0.664910 -1.007598 0
M  V30 37 H 2.703976 1.578324 2.194426 0
M  V30 38 H 2.212176 1.527876 3.909597 0
M  V30 39 H 3.269484 0.210262 3.222162 0
M  V30 40 H 2.130138 -1.727462 2.797502 0
M  V30 41 H -0.816828 -1.640963 2.920394 0
M  V30 42 H -0.013008 -3.061317 2.155097 0
M  V30 43 H -0.805640 -0.428911 0.881988 0
M  V30 44 H -1.684236 -1.934466 0.696809 0
M  V30 45 H -0.421138 -1.562038 -1.369667 0
M  V30 46 H 0.117496 -2.988554 -0.543290 0
M  V30 47 H 1.408727 -3.939312 0.444278 0
M  V30 48 H 3.184944 -5.284961 1.215259 0
M  V30 49 H 5.435994 -4.461363 1.342443 0
M  V30 50 H 5.924134 -2.198623 0.663805 0
M  V30 51 H 4.204017 -0.773010 -0.127199 0
M  V30 52 H -0.363213 0.326349 -1.279292 0
M  V30 53 H 0.676533 4.897369 -2.419909 0
M  V30 54 H -1.519887 5.848117 -3.173721 0
M  V30 55 H -5.531409 3.048342 -3.569018 0
M  V30 56 H -3.281119 -1.057446 -3.318190 0
M  V30 57 H -8.403054 -1.180497 -3.386111 0
M  V30 58 H -7.783018 -2.476297 -2.242975 0
M  V30 59 H -8.290892 -0.889429 -1.635094 0
M  V30 60 H -6.769254 1.297395 -2.369241 0
M  V30 61 H -2.231198 0.718814 -2.235510 0
M  V30 62 H 4.621268 2.111905 -2.396222 0
M  V30 63 H 4.722198 3.274033 -0.981108 0
M  V30 END ATOM
M  V30 BEGIN BOND
M  V30 1 1 1 2
M  V30 2 2 2 3
M  V30 3 1 2 4
M  V30 4 1 4 5
M  V30 5 1 5 6
M  V30 6 1 6 7
M  V30 7 1 7 8
M  V30 8 1 8 9
M  V30 9 2 9 10
M  V30 10 1 10 11
M  V30 11 2 11 12
M  V30 12 1 12 13
M  V30 13 2 13 14
M  V30 14 1 8 15
M  V30 15 2 15 16
M  V30 16 1 16 17
M  V30 17 1 17 18
M  V30 18 2 18 19
M  V30 19 1 19 20
M  V30 20 1 20 21
M  V30 21 2 21 22
M  V30 22 1 22 23
M  V30 23 2 23 24
M  V30 24 1 24 25
M  V30 25 1 25 26
M  V30 26 2 26 27
M  V30 27 1 27 28
M  V30 28 1 28 29
M  V30 29 1 28 30
M  V30 30 1 24 31
M  V30 31 2 31 32
M  V30 32 2 17 33
M  V30 33 1 33 34
M  V30 34 1 34 35
M  V30 35 2 34 36
M  V30 36 1 14 9
M  V30 37 1 36 15
M  V30 38 1 32 18
M  V30 39 1 32 21
M  V30 40 2 30 25
M  V30 41 1 1 37
M  V30 42 1 1 38
M  V30 43 1 1 39
M  V30 44 1 4 40
M  V30 45 1 5 41
M  V30 46 1 5 42
M  V30 47 1 6 43
M  V30 48 1 6 44
M  V30 49 1 7 45
M  V30 50 1 7 46
M  V30 51 1 10 47
M  V30 52 1 11 48
M  V30 53 1 12 49
M  V30 54 1 13 50
M  V30 55 1 14 51
M  V30 56 1 16 52
M  V30 57 1 19 53
M  V30 58 1 20 54
M  V30 59 1 23 55
M  V30 60 1 26 56
M  V30 61 1 29 57
M  V30 62 1 29 58
M  V30 63 1 29 59
M  V30 64 1 30 60
M  V30 65 1 31 61
M  V30 66 1 35 62
M  V30 67 1 35 63
M  V30 END BOND
M  V30 END CTAB
M  END
>  <Dataset>  (472) 
ChEMBL_Kinases

>  <Ligand_Instance>  (472) 
nan

>  <PDB_ID>  (472) 
nan

>  <Standardized_SMILES>  (472) 
CC(=O)NCCCN(c1ccccc1)c1cc(-c2c[nH]c3ncc(-c4cnn(C)c4)cc23)nc(N)n1

>  <Name>  (472) 
nan

>  <Pocket>  (472) 
nan

>  <ATP_Site>  (472) 
nan

>  <Peripheral>  (472) 
nan

>  <Num_H_Atoms_ProtBoundConf>  (472) 
nan

>  <Num_Resolved_Atoms>  (472) 
nan

>  <Num_Not_Resolved_Atoms>  (472) 
nan

$$$$
CHEMBL365281
     RDKit          3D

  0  0  0  0  0  0  0  0  0  0999 V3000
M  V30 BEGIN CTAB
M  V30 COUNTS 47 49 0 0 0
M  V30 BEGIN ATOM
M  V30 1 C -3.067549 -4.446679 3.960657 0
M  V30 2 O -3.107214 -4.738942 2.573596 0
M  V30 3 C -2.181645 -4.169349 1.714422 0
M  V30 4 C -1.186989 -3.308519 2.113531 0
M  V30 5 C -0.291734 -2.768486 1.224531 0
M  V30 6 C -0.358894 -3.077948 -0.138705 0
M  V30 7 C 0.629461 -2.465454 -1.027906 0
M  V30 8 C 0.235037 -1.138966 -1.617246 0
M  V30 9 N 1.330956 -0.667877 -2.478765 0
M  V30 10 C 0.018953 -0.092199 -0.614199 0
M  V30 11 C 1.053942 0.707516 -0.188980 0
M  V30 12 C 0.956405 1.709591 0.741733 0
M  V30 13 C 1.985180 2.593886 1.244907 0
M  V30 14 C 1.630139 3.528433 2.189593 0
M  V30 15 C 2.517123 4.416127 2.736222 0
M  V30 16 C 3.831102 4.419385 2.362765 0
M  V30 17 C 4.234636 3.500422 1.418250 0
M  V30 18 C 3.309398 2.635496 0.903114 0
M  V30 19 O 3.782912 1.741854 -0.038616 0
M  V30 20 N -0.287303 1.850017 1.223176 0
M  V30 21 C -1.336342 1.105938 0.852090 0
M  V30 22 N -2.593042 1.378537 1.456392 0
M  V30 23 C -1.235172 0.100779 -0.082481 0
M  V30 24 C -2.373624 -0.668374 -0.452320 0
M  V30 25 N -3.293484 -1.285785 -0.765776 0
M  V30 26 C -1.353469 -3.945075 -0.571603 0
M  V30 27 C -2.245109 -4.473612 0.363315 0
M  V30 28 H -2.295121 -5.054786 4.484537 0
M  V30 29 H -4.057962 -4.722526 4.386922 0
M  V30 30 H -2.849212 -3.386338 4.160796 0
M  V30 31 H -1.104546 -3.046785 3.159026 0
M  V30 32 H 0.481686 -2.092896 1.567710 0
M  V30 33 H 1.579891 -2.305689 -0.448852 0
M  V30 34 H 0.919024 -3.162776 -1.838723 0
M  V30 35 H -0.629129 -1.281598 -2.298922 0
M  V30 36 H 1.265151 -1.248297 -3.364912 0
M  V30 37 H 2.253366 -0.932450 -2.052040 0
M  V30 38 H 2.007699 0.522466 -0.627768 0
M  V30 39 H 0.601659 3.617254 2.564355 0
M  V30 40 H 2.215311 5.135663 3.471712 0
M  V30 41 H 4.553271 5.107380 2.776476 0
M  V30 42 H 5.270310 3.485802 1.108357 0
M  V30 43 H 4.591690 1.195022 0.212212 0
M  V30 44 H -3.219930 2.162866 1.141133 0
M  V30 45 H -3.156056 0.970909 2.231031 0
M  V30 46 H -1.416073 -4.191848 -1.620687 0
M  V30 47 H -3.024612 -5.156359 0.007538 0
M  V30 END ATOM
M  V30 BEGIN BOND
M  V30 1 1 1 2
M  V30 2 1 2 3
M  V30 3 2 3 4
M  V30 4 1 4 5
M  V30 5 2 5 6
M  V30 6 1 6 7
M  V30 7 1 7 8
M  V30 8 1 8 9
M  V30 9 1 8 10
M  V30 10 2 10 11
M  V30 11 1 11 12
M  V30 12 1 12 13
M  V30 13 2 13 14
M  V30 14 1 14 15
M  V30 15 2 15 16
M  V30 16 1 16 17
M  V30 17 2 17 18
M  V30 18 1 18 19
M  V30 19 2 12 20
M  V30 20 1 20 21
M  V30 21 1 21 22
M  V30 22 2 21 23
M  V30 23 1 23 24
M  V30 24 3 24 25
M  V30 25 1 6 26
M  V30 26 2 26 27
M  V30 27 1 27 3
M  V30 28 1 23 10
M  V30 29 1 18 13
M  V30 30 1 1 28
M  V30 31 1 1 29
M  V30 32 1 1 30
M  V30 33 1 4 31
M  V30 34 1 5 32
M  V30 35 1 7 33
M  V30 36 1 7 34
M  V30 37 1 8 35
M  V30 38 1 9 36
M  V30 39 1 9 37
M  V30 40 1 11 38
M  V30 41 1 14 39
M  V30 42 1 15 40
M  V30 43 1 16 41
M  V30 44 1 17 42
M  V30 45 1 19 43
M  V30 46 1 22 44
M  V30 47 1 22 45
M  V30 48 1 26 46
M  V30 49 1 27 47
M  V30 END BOND
M  V30 END CTAB
M  END
>  <Dataset>  (473) 
ChEMBL_Kinases

>  <Ligand_Instance>  (473) 
nan

>  <PDB_ID>  (473) 
nan

>  <Standardized_SMILES>  (473) 
COc1ccc(CC(N)c2cc(-c3ccccc3O)nc(N)c2C#N)cc1

>  <Name>  (473) 
nan

>  <Pocket>  (473) 
nan

>  <ATP_Site>  (473) 
nan

>  <Peripheral>  (473) 
nan

>  <Num_H_Atoms_ProtBoundConf>  (473) 
nan

>  <Num_Resolved_Atoms>  (473) 
nan

>  <Num_Not_Resolved_Atoms>  (473) 
nan

$$$$
CHEMBL365286
     RDKit          3D

  0  0  0  0  0  0  0  0  0  0999 V3000
M  V30 BEGIN CTAB
M  V30 COUNTS 28 30 0 0 0
M  V30 BEGIN ATOM
M  V30 1 C -0.333329 -2.790856 2.539351 0
M  V30 2 C 0.104662 -1.339667 2.742102 0
M  V30 3 N 0.149977 -0.674660 1.452169 0
M  V30 4 C 1.207806 -0.606184 0.629800 0
M  V30 5 C 2.543024 -1.163794 0.812256 0
M  V30 6 N 3.033119 -1.870512 1.830476 0
M  V30 7 O 4.270190 -2.157365 1.563985 0
M  V30 8 N 4.615723 -1.668136 0.410700 0
M  V30 9 C 3.564044 -1.030645 -0.108616 0
M  V30 10 N 3.604012 -0.377526 -1.372412 0
M  V30 11 N 0.817627 0.097606 -0.448483 0
M  V30 12 C -0.487286 0.463312 -0.287170 0
M  V30 13 C -1.348391 1.184728 -1.090520 0
M  V30 14 C -2.650928 1.393088 -0.632554 0
M  V30 15 C -3.077105 0.898556 0.583672 0
M  V30 16 C -2.212000 0.177871 1.383021 0
M  V30 17 C -0.917280 -0.035079 0.938871 0
M  V30 18 H -0.232392 -3.047293 1.446896 0
M  V30 19 H -1.419239 -2.936717 2.744350 0
M  V30 20 H 0.239517 -3.495538 3.140776 0
M  V30 21 H 1.121309 -1.375639 3.158633 0
M  V30 22 H -0.612298 -0.840965 3.428722 0
M  V30 23 H 3.483990 0.607569 -1.697179 0
M  V30 24 H 3.795471 -0.990149 -2.195089 0
M  V30 25 H -1.067256 1.587329 -2.037529 0
M  V30 26 H -3.409466 1.942253 -1.176663 0
M  V30 27 H -4.073021 1.030507 0.985695 0
M  V30 28 H -2.504872 -0.235081 2.357348 0
M  V30 END ATOM
M  V30 BEGIN BOND
M  V30 1 1 1 2
M  V30 2 1 2 3
M  V30 3 1 3 4
M  V30 4 1 4 5
M  V30 5 2 5 6
M  V30 6 1 6 7
M  V30 7 1 7 8
M  V30 8 2 8 9
M  V30 9 1 9 10
M  V30 10 2 4 11
M  V30 11 1 11 12
M  V30 12 2 12 13
M  V30 13 1 13 14
M  V30 14 2 14 15
M  V30 15 1 15 16
M  V30 16 2 16 17
M  V30 17 1 17 3
M  V30 18 1 9 5
M  V30 19 1 17 12
M  V30 20 1 1 18
M  V30 21 1 1 19
M  V30 22 1 1 20
M  V30 23 1 2 21
M  V30 24 1 2 22
M  V30 25 1 10 23
M  V30 26 1 10 24
M  V30 27 1 13 25
M  V30 28 1 14 26
M  V30 29 1 15 27
M  V30 30 1 16 28
M  V30 END BOND
M  V30 END CTAB
M  END
>  <Dataset>  (474) 
ChEMBL_Kinases

>  <Ligand_Instance>  (474) 
nan

>  <PDB_ID>  (474) 
nan

>  <Standardized_SMILES>  (474) 
CCn1c(-c2nonc2N)nc2ccccc21

>  <Name>  (474) 
GW549034X

>  <Pocket>  (474) 
nan

>  <ATP_Site>  (474) 
nan

>  <Peripheral>  (474) 
nan

>  <Num_H_Atoms_ProtBoundConf>  (474) 
nan

>  <Num_Resolved_Atoms>  (474) 
nan

>  <Num_Not_Resolved_Atoms>  (474) 
nan

$$$$
CHEMBL365297
     RDKit          3D

  0  0  0  0  0  0  0  0  0  0999 V3000
M  V30 BEGIN CTAB
M  V30 COUNTS 50 55 0 0 0
M  V30 BEGIN ATOM
M  V30 1 F 4.394784 -3.016927 3.897147 0
M  V30 2 C 4.280743 -1.970504 3.053591 0
M  V30 3 C 4.854795 -0.747231 3.328217 0
M  V30 4 C 4.754590 0.337141 2.488317 0
M  V30 5 C 4.053892 0.208363 1.320916 0
M  V30 6 C 3.788560 1.181276 0.250518 0
M  V30 7 N 4.736277 1.761682 -0.529257 0
M  V30 8 N 4.188304 2.586811 -1.405416 0
M  V30 9 N 4.676609 3.368751 -2.356315 0
M  V30 10 C 3.870736 4.130197 -3.126162 0
M  V30 11 C 2.496156 4.129515 -2.957605 0
M  V30 12 C 1.943544 3.322968 -1.970523 0
M  V30 13 C 2.852952 2.583742 -1.238489 0
M  V30 14 C 2.577498 1.711885 -0.207363 0
M  V30 15 C 1.356154 1.275357 0.453343 0
M  V30 16 C 1.025715 1.910723 1.628266 0
M  V30 17 C -0.124737 1.485233 2.251487 0
M  V30 18 N -0.849783 0.502623 1.704480 0
M  V30 19 C -0.549752 -0.130159 0.564481 0
M  V30 20 N -1.292065 -1.173262 -0.036363 0
M  V30 21 C -2.499883 -1.742659 0.424304 0
M  V30 22 C -3.241191 -1.320082 1.500020 0
M  V30 23 C -4.413291 -1.884809 1.951342 0
M  V30 24 C -4.891497 -2.976584 1.262154 0
M  V30 25 C -4.196980 -3.452793 0.172076 0
M  V30 26 C -3.034212 -2.837570 -0.219294 0
M  V30 27 O -4.772592 -4.542977 -0.428623 0
M  V30 28 C -5.457275 -5.566639 0.233481 0
M  V30 29 C -6.235592 -5.032268 1.408904 0
M  V30 30 O -6.043113 -3.655537 1.579297 0
M  V30 31 N 0.575246 0.301567 -0.024586 0
M  V30 32 C 3.461787 -1.021146 1.017545 0
M  V30 33 C 3.563616 -2.109223 1.862368 0
M  V30 34 H 5.424929 -0.581063 4.240964 0
M  V30 35 H 5.160680 1.323148 2.610469 0
M  V30 36 H 4.255336 4.781813 -3.917687 0
M  V30 37 H 1.807937 4.723442 -3.551904 0
M  V30 38 H 0.875018 3.260158 -1.769204 0
M  V30 39 H 1.553356 2.706895 2.129401 0
M  V30 40 H -0.530484 1.871753 3.177269 0
M  V30 41 H -0.899659 -1.574972 -0.934971 0
M  V30 42 H -2.914057 -0.473475 2.066998 0
M  V30 43 H -4.953844 -1.509139 2.807494 0
M  V30 44 H -2.521210 -3.257061 -1.092110 0
M  V30 45 H -4.786882 -6.384803 0.581711 0
M  V30 46 H -6.198367 -6.028540 -0.477466 0
M  V30 47 H -7.339464 -5.231657 1.280496 0
M  V30 48 H -5.888964 -5.532434 2.355966 0
M  V30 49 H 2.876574 -1.273517 0.127267 0
M  V30 50 H 3.130628 -3.079450 1.682312 0
M  V30 END ATOM
M  V30 BEGIN BOND
M  V30 1 1 1 2
M  V30 2 2 2 3
M  V30 3 1 3 4
M  V30 4 2 4 5
M  V30 5 1 5 6
M  V30 6 2 6 7
M  V30 7 1 7 8
M  V30 8 1 8 9
M  V30 9 2 9 10
M  V30 10 1 10 11
M  V30 11 2 11 12
M  V30 12 1 12 13
M  V30 13 2 13 14
M  V30 14 1 14 15
M  V30 15 2 15 16
M  V30 16 1 16 17
M  V30 17 2 17 18
M  V30 18 1 18 19
M  V30 19 1 19 20
M  V30 20 1 20 21
M  V30 21 2 21 22
M  V30 22 1 22 23
M  V30 23 2 23 24
M  V30 24 1 24 25
M  V30 25 2 25 26
M  V30 26 1 25 27
M  V30 27 1 27 28
M  V30 28 1 28 29
M  V30 29 1 29 30
M  V30 30 2 19 31
M  V30 31 1 5 32
M  V30 32 2 32 33
M  V30 33 1 33 2
M  V30 34 1 14 6
M  V30 35 1 31 15
M  V30 36 1 13 8
M  V30 37 1 26 21
M  V30 38 1 30 24
M  V30 39 1 3 34
M  V30 40 1 4 35
M  V30 41 1 10 36
M  V30 42 1 11 37
M  V30 43 1 12 38
M  V30 44 1 16 39
M  V30 45 1 17 40
M  V30 46 1 20 41
M  V30 47 1 22 42
M  V30 48 1 23 43
M  V30 49 1 26 44
M  V30 50 1 28 45
M  V30 51 1 28 46
M  V30 52 1 29 47
M  V30 53 1 29 48
M  V30 54 1 32 49
M  V30 55 1 33 50
M  V30 END BOND
M  V30 END CTAB
M  END
>  <Dataset>  (475) 
ChEMBL_Kinases

>  <Ligand_Instance>  (475) 
nan

>  <PDB_ID>  (475) 
nan

>  <Standardized_SMILES>  (475) 
Fc1ccc(-c2nn3ncccc3c2-c2ccnc(Nc3ccc4c(c3)OCCO4)n2)cc1

>  <Name>  (475) 
GW827099X

>  <Pocket>  (475) 
nan

>  <ATP_Site>  (475) 
nan

>  <Peripheral>  (475) 
nan

>  <Num_H_Atoms_ProtBoundConf>  (475) 
nan

>  <Num_Resolved_Atoms>  (475) 
nan

>  <Num_Not_Resolved_Atoms>  (475) 
nan

$$$$
CHEMBL365328
     RDKit          3D

  0  0  0  0  0  0  0  0  0  0999 V3000
M  V30 BEGIN CTAB
M  V30 COUNTS 56 60 0 0 0
M  V30 BEGIN ATOM
M  V30 1 N -1.652031 -3.157977 1.427635 0
M  V30 2 C -1.541462 -4.028277 0.271149 0
M  V30 3 C -0.305833 -4.884515 0.146268 0
M  V30 4 N 0.871134 -4.134542 0.087394 0
M  V30 5 C 1.332646 -3.424622 1.206824 0
M  V30 6 C 2.640357 -2.752273 0.804238 0
M  V30 7 C 2.438176 -1.924888 -0.472563 0
M  V30 8 C 1.680061 -0.701656 -0.096524 0
M  V30 9 C 2.205831 0.529992 0.231494 0
M  V30 10 C 1.180896 1.422733 0.514211 0
M  V30 11 C 1.192603 2.831679 0.910018 0
M  V30 12 C 0.666195 3.875228 0.164949 0
M  V30 13 C 0.733336 5.167794 0.649068 0
M  V30 14 N 1.297998 5.481319 1.838388 0
M  V30 15 C 1.824093 4.477834 2.593248 0
M  V30 16 C 1.762152 3.190594 2.121161 0
M  V30 17 C -0.001163 0.691684 0.346400 0
M  V30 18 C -1.347200 1.254288 0.549491 0
M  V30 19 C -2.174479 1.384484 -0.544895 0
M  V30 20 C -3.451598 1.909835 -0.390444 0
M  V30 21 C -3.871641 2.295207 0.868610 0
M  V30 22 F -5.123370 2.818319 1.066641 0
M  V30 23 C -3.053661 2.168906 1.966031 0
M  V30 24 C -1.775824 1.642568 1.807062 0
M  V30 25 N 0.348922 -0.552515 -0.012913 0
M  V30 26 C 1.810310 -2.717791 -1.556336 0
M  V30 27 C 1.672593 -4.164525 -1.076747 0
M  V30 28 C -2.848837 -4.745612 -0.111554 0
M  V30 29 C -2.315353 -3.636684 -0.929888 0
M  V30 30 H -1.771358 -3.729201 2.276760 0
M  V30 31 H -2.427405 -2.486088 1.347508 0
M  V30 32 H -0.305237 -5.526982 1.073641 0
M  V30 33 H -0.354557 -5.564557 -0.731425 0
M  V30 34 H 1.548269 -4.043220 2.104376 0
M  V30 35 H 0.637418 -2.608877 1.467621 0
M  V30 36 H 3.468401 -3.455398 0.664424 0
M  V30 37 H 2.909586 -2.000291 1.593296 0
M  V30 38 H 3.468925 -1.626381 -0.772842 0
M  V30 39 H 3.256268 0.824573 0.279660 0
M  V30 40 H 0.224473 3.601401 -0.772681 0
M  V30 41 H 0.300297 5.916500 0.008321 0
M  V30 42 H 2.292567 4.686399 3.566206 0
M  V30 43 H 2.185059 2.433496 2.741736 0
M  V30 44 H -1.889974 1.096131 -1.549414 0
M  V30 45 H -4.138870 2.035615 -1.205178 0
M  V30 46 H -3.387236 2.470296 2.948899 0
M  V30 47 H -1.077145 1.513174 2.629765 0
M  V30 48 H -0.395916 -1.244008 -0.185140 0
M  V30 49 H 0.756190 -2.372166 -1.734526 0
M  V30 50 H 2.404638 -2.730938 -2.484883 0
M  V30 51 H 2.715025 -4.531071 -0.896331 0
M  V30 52 H 1.261461 -4.825388 -1.843291 0
M  V30 53 H -3.678847 -4.639763 0.590662 0
M  V30 54 H -2.750701 -5.774880 -0.531937 0
M  V30 55 H -2.874544 -2.675809 -0.889598 0
M  V30 56 H -1.948137 -3.865019 -1.951201 0
M  V30 END ATOM
M  V30 BEGIN BOND
M  V30 1 1 1 2
M  V30 2 1 2 3
M  V30 3 1 3 4
M  V30 4 1 4 5
M  V30 5 1 5 6
M  V30 6 1 6 7
M  V30 7 1 7 8
M  V30 8 2 8 9
M  V30 9 1 9 10
M  V30 10 1 10 11
M  V30 11 2 11 12
M  V30 12 1 12 13
M  V30 13 2 13 14
M  V30 14 1 14 15
M  V30 15 2 15 16
M  V30 16 2 10 17
M  V30 17 1 17 18
M  V30 18 2 18 19
M  V30 19 1 19 20
M  V30 20 2 20 21
M  V30 21 1 21 22
M  V30 22 1 21 23
M  V30 23 2 23 24
M  V30 24 1 17 25
M  V30 25 1 7 26
M  V30 26 1 26 27
M  V30 27 1 2 28
M  V30 28 1 28 29
M  V30 29 1 29 2
M  V30 30 1 27 4
M  V30 31 1 25 8
M  V30 32 1 16 11
M  V30 33 1 24 18
M  V30 34 1 1 30
M  V30 35 1 1 31
M  V30 36 1 3 32
M  V30 37 1 3 33
M  V30 38 1 5 34
M  V30 39 1 5 35
M  V30 40 1 6 36
M  V30 41 1 6 37
M  V30 42 1 7 38
M  V30 43 1 9 39
M  V30 44 1 12 40
M  V30 45 1 13 41
M  V30 46 1 15 42
M  V30 47 1 16 43
M  V30 48 1 19 44
M  V30 49 1 20 45
M  V30 50 1 23 46
M  V30 51 1 24 47
M  V30 52 1 25 48
M  V30 53 1 26 49
M  V30 54 1 26 50
M  V30 55 1 27 51
M  V30 56 1 27 52
M  V30 57 1 28 53
M  V30 58 1 28 54
M  V30 59 1 29 55
M  V30 60 1 29 56
M  V30 END BOND
M  V30 END CTAB
M  END
>  <Dataset>  (476) 
ChEMBL_Kinases

>  <Ligand_Instance>  (476) 
nan

>  <PDB_ID>  (476) 
nan

>  <Standardized_SMILES>  (476) 
NC1(CN2CCC(c3cc(-c4ccncc4)c(-c4ccc(F)cc4)[nH]3)CC2)CC1

>  <Name>  (476) 
nan

>  <Pocket>  (476) 
nan

>  <ATP_Site>  (476) 
nan

>  <Peripheral>  (476) 
nan

>  <Num_H_Atoms_ProtBoundConf>  (476) 
nan

>  <Num_Resolved_Atoms>  (476) 
nan

>  <Num_Not_Resolved_Atoms>  (476) 
nan

$$$$
CHEMBL3652587
     RDKit          3D

  0  0  0  0  0  0  0  0  0  0999 V3000
M  V30 BEGIN CTAB
M  V30 COUNTS 48 52 0 0 0
M  V30 BEGIN ATOM
M  V30 1 C 3.403629 0.547248 -2.827981 0
M  V30 2 N 3.492392 0.086894 -1.446447 0
M  V30 3 C 4.783570 -0.059333 -0.873804 0
M  V30 4 C 5.863763 0.246158 -1.668424 0
M  V30 5 C 7.167537 0.127006 -1.211423 0
M  V30 6 C 7.306849 -0.323238 0.109071 0
M  V30 7 C 6.241257 -0.642443 0.945240 0
M  V30 8 F 6.515917 -1.067561 2.201688 0
M  V30 9 C 4.974892 -0.498744 0.419657 0
M  V30 10 C 2.248296 -0.180648 -0.818642 0
M  V30 11 C 1.184454 0.658422 -0.517528 0
M  V30 12 C 0.057352 0.170566 0.109057 0
M  V30 13 C -1.011120 1.127848 0.366674 0
M  V30 14 C -1.087245 2.479361 0.106685 0
M  V30 15 N -2.294973 2.916449 0.521883 0
M  V30 16 C -3.015349 1.886332 1.048724 0
M  V30 17 N -4.242156 1.794899 1.583169 0
M  V30 18 C -4.754680 0.636105 2.047919 0
M  V30 19 C -4.019292 -0.521362 1.989106 0
M  V30 20 C -4.446452 -1.849351 2.450615 0
M  V30 21 C -4.044071 -3.051948 1.897278 0
M  V30 22 N -4.657763 -4.011810 2.603186 0
M  V30 23 N -5.413686 -3.512270 3.556105 0
M  V30 24 C -6.193263 -4.321189 4.473645 0
M  V30 25 C -5.302131 -2.175544 3.485005 0
M  V30 26 C -2.744272 -0.410025 1.429778 0
M  V30 27 C -2.206903 0.770754 0.949133 0
M  V30 28 N 0.038902 -1.137701 0.410272 0
M  V30 29 C 1.026546 -1.983040 0.145614 0
M  V30 30 N 2.107448 -1.484906 -0.462557 0
M  V30 31 H 4.038083 1.472900 -2.926079 0
M  V30 32 H 3.768300 -0.225007 -3.518165 0
M  V30 33 H 2.370488 0.884707 -3.098754 0
M  V30 34 H 5.848772 0.598320 -2.697547 0
M  V30 35 H 8.050443 0.352868 -1.792570 0
M  V30 36 H 8.319074 -0.431522 0.511616 0
M  V30 37 H 4.144881 -0.741032 1.051125 0
M  V30 38 H 1.381081 1.680313 -0.834075 0
M  V30 39 H -0.309726 3.062908 -0.347979 0
M  V30 40 H -2.644402 3.912310 0.453697 0
M  V30 41 H -5.750753 0.545303 2.485653 0
M  V30 42 H -3.359410 -3.113334 1.055707 0
M  V30 43 H -6.780770 -3.635369 5.123928 0
M  V30 44 H -6.811934 -5.090160 3.961186 0
M  V30 45 H -5.458335 -4.876190 5.120760 0
M  V30 46 H -5.782433 -1.465174 4.111248 0
M  V30 47 H -2.130502 -1.316443 1.368500 0
M  V30 48 H 0.871719 -2.999541 0.443778 0
M  V30 END ATOM
M  V30 BEGIN BOND
M  V30 1 1 1 2
M  V30 2 1 2 3
M  V30 3 2 3 4
M  V30 4 1 4 5
M  V30 5 2 5 6
M  V30 6 1 6 7
M  V30 7 1 7 8
M  V30 8 2 7 9
M  V30 9 1 2 10
M  V30 10 2 10 11
M  V30 11 1 11 12
M  V30 12 1 12 13
M  V30 13 2 13 14
M  V30 14 1 14 15
M  V30 15 1 15 16
M  V30 16 2 16 17
M  V30 17 1 17 18
M  V30 18 2 18 19
M  V30 19 1 19 20
M  V30 20 1 20 21
M  V30 21 2 21 22
M  V30 22 1 22 23
M  V30 23 1 23 24
M  V30 24 1 23 25
M  V30 25 1 19 26
M  V30 26 2 26 27
M  V30 27 2 12 28
M  V30 28 1 28 29
M  V30 29 2 29 30
M  V30 30 1 9 3
M  V30 31 1 30 10
M  V30 32 1 27 13
M  V30 33 1 27 16
M  V30 34 2 25 20
M  V30 35 1 1 31
M  V30 36 1 1 32
M  V30 37 1 1 33
M  V30 38 1 4 34
M  V30 39 1 5 35
M  V30 40 1 6 36
M  V30 41 1 9 37
M  V30 42 1 11 38
M  V30 43 1 14 39
M  V30 44 1 15 40
M  V30 45 1 18 41
M  V30 46 1 21 42
M  V30 47 1 24 43
M  V30 48 1 24 44
M  V30 49 1 24 45
M  V30 50 1 25 46
M  V30 51 1 26 47
M  V30 52 1 29 48
M  V30 END BOND
M  V30 END CTAB
M  END
>  <Dataset>  (477) 
ChEMBL_Kinases

>  <Ligand_Instance>  (477) 
nan

>  <PDB_ID>  (477) 
nan

>  <Standardized_SMILES>  (477) 
CN(c1cccc(F)c1)c1cc(-c2c[nH]c3ncc(-c4cnn(C)c4)cc23)ncn1

>  <Name>  (477) 
nan

>  <Pocket>  (477) 
nan

>  <ATP_Site>  (477) 
nan

>  <Peripheral>  (477) 
nan

>  <Num_H_Atoms_ProtBoundConf>  (477) 
nan

>  <Num_Resolved_Atoms>  (477) 
nan

>  <Num_Not_Resolved_Atoms>  (477) 
nan

$$$$
CHEMBL3654492
     RDKit          3D

  0  0  0  0  0  0  0  0  0  0999 V3000
M  V30 BEGIN CTAB
M  V30 COUNTS 69 73 0 0 0
M  V30 BEGIN ATOM
M  V30 1 C 3.246114 0.334793 3.590864 0
M  V30 2 C 4.548538 -0.301739 3.099928 0
M  V30 3 C 4.426810 -0.813747 1.706697 0
M  V30 4 O 4.103817 0.108551 0.726549 0
M  V30 5 C 4.732145 1.217222 0.292266 0
M  V30 6 C 5.900867 1.814488 0.657580 0
M  V30 7 C 6.450404 2.959123 0.137683 0
M  V30 8 C 5.734195 3.566776 -0.866374 0
M  V30 9 C 4.540440 3.034448 -1.302337 0
M  V30 10 C 4.031444 1.867260 -0.735069 0
M  V30 11 C 2.748104 1.376320 -1.278255 0
M  V30 12 N 1.598384 1.571965 -0.520444 0
M  V30 13 C 1.200723 2.887732 -0.186525 0
M  V30 14 C -0.237551 2.991413 0.262948 0
M  V30 15 C -0.705342 1.842004 1.099985 0
M  V30 16 C -0.071763 0.532737 0.770049 0 CFG=1
M  V30 17 N -1.011522 -0.570937 0.712229 0
M  V30 18 C -0.723441 -1.714290 1.506794 0
M  V30 19 O 0.312915 -1.731073 2.218931 0
M  V30 20 C -1.590623 -2.885983 1.531680 0
M  V30 21 C -1.191953 -3.946087 2.341186 0
M  V30 22 C -1.948386 -5.111944 2.433842 0
M  V30 23 C -3.117912 -5.202319 1.699535 0
M  V30 24 N -4.083141 -6.123771 1.526990 0
M  V30 25 N -5.013029 -5.686224 0.681939 0
M  V30 26 C -4.683731 -4.441781 0.264446 0
M  V30 27 C -5.523896 -3.705848 -0.672729 0
M  V30 28 C -6.886177 -3.749185 -0.396300 0
M  V30 29 C -7.851675 -3.115988 -1.163598 0
M  V30 30 N -7.407474 -2.419165 -2.244110 0
M  V30 31 C -6.084922 -2.369478 -2.523545 0
M  V30 32 C -5.667176 -1.594482 -3.713593 0
M  V30 33 C -5.115336 -2.989304 -1.776361 0
M  V30 34 C -3.496369 -4.130508 0.897747 0
M  V30 35 C -2.754760 -2.976880 0.801424 0
M  V30 36 C 0.563464 0.604771 -0.602809 0
M  V30 37 H 2.397760 -0.363410 3.568732 0
M  V30 38 H 3.040769 1.294264 3.075877 0
M  V30 39 H 3.451334 0.616037 4.650426 0
M  V30 40 H 5.341883 0.404980 3.309403 0
M  V30 41 H 4.709379 -1.156847 3.820926 0
M  V30 42 H 3.717930 -1.671512 1.737782 0
M  V30 43 H 5.411801 -1.288360 1.451946 0
M  V30 44 H 6.442998 1.310526 1.442970 0
M  V30 45 H 7.382370 3.335885 0.509096 0
M  V30 46 H 6.135824 4.470425 -1.300259 0
M  V30 47 H 4.028734 3.562183 -2.094930 0
M  V30 48 H 2.839602 0.262658 -1.466031 0
M  V30 49 H 2.576030 1.789759 -2.292713 0
M  V30 50 H 1.903842 3.349376 0.537244 0
M  V30 51 H 1.282291 3.513604 -1.111380 0
M  V30 52 H -0.915539 3.153327 -0.613892 0
M  V30 53 H -0.320001 3.916819 0.869913 0
M  V30 54 H -1.798740 1.728728 0.927793 0
M  V30 55 H -0.582840 2.047805 2.181918 0
M  V30 56 H 0.748667 0.302925 1.475101 0
M  V30 57 H -1.852934 -0.527666 0.119758 0
M  V30 58 H -0.286708 -3.939677 2.942026 0
M  V30 59 H -1.664475 -5.952411 3.053867 0
M  V30 60 H -3.987660 -7.032289 2.056119 0
M  V30 61 H -7.279800 -4.291881 0.452464 0
M  V30 62 H -8.899192 -3.167206 -0.925007 0
M  V30 63 H -6.198753 -1.992319 -4.620184 0
M  V30 64 H -4.580070 -1.547372 -3.824423 0
M  V30 65 H -6.030411 -0.552620 -3.585081 0
M  V30 66 H -4.069111 -2.977542 -1.957410 0
M  V30 67 H -3.066358 -2.162472 0.176292 0
M  V30 68 H 0.975452 -0.340804 -0.941814 0
M  V30 69 H -0.217416 0.970441 -1.301445 0
M  V30 END ATOM
M  V30 BEGIN BOND
M  V30 1 1 1 2
M  V30 2 1 2 3
M  V30 3 1 3 4
M  V30 4 1 4 5
M  V30 5 2 5 6
M  V30 6 1 6 7
M  V30 7 2 7 8
M  V30 8 1 8 9
M  V30 9 2 9 10
M  V30 10 1 10 11
M  V30 11 1 11 12
M  V30 12 1 12 13
M  V30 13 1 13 14
M  V30 14 1 14 15
M  V30 15 1 15 16
M  V30 16 1 16 17
M  V30 17 1 17 18
M  V30 18 2 18 19
M  V30 19 1 18 20
M  V30 20 2 20 21
M  V30 21 1 21 22
M  V30 22 2 22 23
M  V30 23 1 23 24
M  V30 24 1 24 25
M  V30 25 2 25 26
M  V30 26 1 26 27
M  V30 27 2 27 28
M  V30 28 1 28 29
M  V30 29 2 29 30
M  V30 30 1 30 31
M  V30 31 1 31 32
M  V30 32 2 31 33
M  V30 33 1 26 34
M  V30 34 2 34 35
M  V30 35 1 16 36
M  V30 36 1 10 5
M  V30 37 1 36 12
M  V30 38 1 35 20
M  V30 39 1 34 23
M  V30 40 1 33 27
M  V30 41 1 1 37
M  V30 42 1 1 38
M  V30 43 1 1 39
M  V30 44 1 2 40
M  V30 45 1 2 41
M  V30 46 1 3 42
M  V30 47 1 3 43
M  V30 48 1 6 44
M  V30 49 1 7 45
M  V30 50 1 8 46
M  V30 51 1 9 47
M  V30 52 1 11 48
M  V30 53 1 11 49
M  V30 54 1 13 50
M  V30 55 1 13 51
M  V30 56 1 14 52
M  V30 57 1 14 53
M  V30 58 1 15 54
M  V30 59 1 15 55
M  V30 60 1 16 56 CFG=1
M  V30 61 1 17 57
M  V30 62 1 21 58
M  V30 63 1 22 59
M  V30 64 1 24 60
M  V30 65 1 28 61
M  V30 66 1 29 62
M  V30 67 1 32 63
M  V30 68 1 32 64
M  V30 69 1 32 65
M  V30 70 1 33 66
M  V30 71 1 35 67
M  V30 72 1 36 68
M  V30 73 1 36 69
M  V30 END BOND
M  V30 END CTAB
M  END
>  <Dataset>  (478) 
ChEMBL_Kinases

>  <Ligand_Instance>  (478) 
nan

>  <PDB_ID>  (478) 
nan

>  <Standardized_SMILES>  (478) 
CCCOc1ccccc1CN1CCC[C@@H](NC(=O)c2ccc3[nH]nc(-c4ccnc(C)c4)c3c2)C1

>  <Name>  (478) 
nan

>  <Pocket>  (478) 
nan

>  <ATP_Site>  (478) 
nan

>  <Peripheral>  (478) 
nan

>  <Num_H_Atoms_ProtBoundConf>  (478) 
nan

>  <Num_Resolved_Atoms>  (478) 
nan

>  <Num_Not_Resolved_Atoms>  (478) 
nan

$$$$
CHEMBL3654491
     RDKit          3D

  0  0  0  0  0  0  0  0  0  0999 V3000
M  V30 BEGIN CTAB
M  V30 COUNTS 69 73 0 0 0
M  V30 BEGIN ATOM
M  V30 1 C 1.631255 0.058998 1.256540 0
M  V30 2 O 1.251940 1.306060 0.771793 0
M  V30 3 C 1.795862 2.515478 1.153727 0
M  V30 4 C 2.799750 2.682356 2.078555 0
M  V30 5 C 3.315967 3.906823 2.442171 0
M  V30 6 C 2.769934 5.009668 1.821869 0
M  V30 7 C 1.763633 4.834938 0.894499 0
M  V30 8 C 1.231331 3.591940 0.516357 0
M  V30 9 C 0.212300 3.752773 -0.528664 0
M  V30 10 N 0.636039 3.668153 -1.885476 0
M  V30 11 C -0.502350 3.899676 -2.756877 0
M  V30 12 C -0.407797 3.153004 -4.046276 0
M  V30 13 C -0.332285 1.661997 -3.873812 0
M  V30 14 C 0.179088 1.412518 -2.446711 0 CFG=1
M  V30 15 N 0.676615 0.059219 -2.320971 0
M  V30 16 C 0.026370 -0.906643 -1.535824 0
M  V30 17 O -1.025959 -0.472115 -0.957900 0
M  V30 18 C 0.481999 -2.283634 -1.373595 0
M  V30 19 C 1.596322 -2.815962 -1.987413 0
M  V30 20 C 1.989230 -4.134836 -1.798315 0
M  V30 21 C 1.256439 -4.963024 -0.972112 0
M  V30 22 N 1.320151 -6.238321 -0.560664 0
M  V30 23 N 0.306744 -6.473630 0.255931 0
M  V30 24 C -0.465087 -5.382277 0.421905 0
M  V30 25 C -1.652749 -5.381228 1.279238 0
M  V30 26 C -2.613994 -6.374619 1.287335 0
M  V30 27 C -3.688104 -6.284382 2.126731 0
M  V30 28 C -3.861401 -5.238554 2.975635 0
M  V30 29 O -4.960784 -5.169104 3.819167 0
M  V30 30 C -2.942663 -4.216160 3.018394 0
M  V30 31 N -3.052389 -3.078242 3.884437 0
M  V30 32 C -2.539396 -2.944077 5.213157 0
M  V30 33 C -2.745014 -1.695981 5.962357 0
M  V30 34 O -1.898608 -3.803115 5.862646 0
M  V30 35 C -1.844798 -4.316388 2.154898 0
M  V30 36 C 0.130282 -4.405242 -0.358894 0
M  V30 37 C -0.268763 -3.105404 -0.536905 0
M  V30 38 C 1.256696 2.427113 -2.203965 0
M  V30 39 H 0.708382 -0.550756 1.385005 0
M  V30 40 H 2.224712 0.075481 2.167850 0
M  V30 41 H 2.271436 -0.407587 0.452548 0
M  V30 42 H 3.209843 1.802571 2.548617 0
M  V30 43 H 4.093942 3.945764 3.168646 0
M  V30 44 H 3.180152 5.958328 2.114483 0
M  V30 45 H 1.440148 5.809725 0.496073 0
M  V30 46 H -0.386463 4.690150 -0.371792 0
M  V30 47 H -0.564885 2.947836 -0.291528 0
M  V30 48 H -0.480693 4.982795 -2.996764 0
M  V30 49 H -1.483150 3.729405 -2.232439 0
M  V30 50 H -1.327236 3.418427 -4.628705 0
M  V30 51 H 0.446820 3.560700 -4.622477 0
M  V30 52 H -1.288164 1.133979 -4.057615 0
M  V30 53 H 0.469252 1.306322 -4.572501 0
M  V30 54 H -0.706604 1.610616 -1.814887 0
M  V30 55 H 1.547591 -0.196838 -2.833971 0
M  V30 56 H 2.179468 -2.164510 -2.642325 0
M  V30 57 H 2.862709 -4.531364 -2.286314 0
M  V30 58 H 2.064501 -6.880596 -0.867902 0
M  V30 59 H -2.473842 -7.219015 0.601422 0
M  V30 60 H -4.446792 -7.046091 2.148444 0
M  V30 61 H -5.348227 -4.256102 4.013205 0
M  V30 62 H -3.578239 -2.292684 3.433584 0
M  V30 63 H -1.806712 -1.355757 6.480700 0
M  V30 64 H -3.103394 -0.849564 5.315639 0
M  V30 65 H -3.500438 -1.795445 6.789802 0
M  V30 66 H -1.137035 -3.510135 2.202984 0
M  V30 67 H -1.146217 -2.697386 -0.051186 0
M  V30 68 H 1.773618 2.609678 -3.221869 0
M  V30 69 H 2.088546 2.108503 -1.575375 0
M  V30 END ATOM
M  V30 BEGIN BOND
M  V30 1 1 1 2
M  V30 2 1 2 3
M  V30 3 2 3 4
M  V30 4 1 4 5
M  V30 5 2 5 6
M  V30 6 1 6 7
M  V30 7 2 7 8
M  V30 8 1 8 9
M  V30 9 1 9 10
M  V30 10 1 10 11
M  V30 11 1 11 12
M  V30 12 1 12 13
M  V30 13 1 13 14
M  V30 14 1 14 15
M  V30 15 1 15 16
M  V30 16 2 16 17
M  V30 17 1 16 18
M  V30 18 2 18 19
M  V30 19 1 19 20
M  V30 20 2 20 21
M  V30 21 1 21 22
M  V30 22 1 22 23
M  V30 23 2 23 24
M  V30 24 1 24 25
M  V30 25 2 25 26
M  V30 26 1 26 27
M  V30 27 2 27 28
M  V30 28 1 28 29
M  V30 29 1 28 30
M  V30 30 1 30 31
M  V30 31 1 31 32
M  V30 32 1 32 33
M  V30 33 2 32 34
M  V30 34 2 30 35
M  V30 35 1 24 36
M  V30 36 2 36 37
M  V30 37 1 14 38
M  V30 38 1 8 3
M  V30 39 1 38 10
M  V30 40 1 37 18
M  V30 41 1 36 21
M  V30 42 1 35 25
M  V30 43 1 1 39
M  V30 44 1 1 40
M  V30 45 1 1 41
M  V30 46 1 4 42
M  V30 47 1 5 43
M  V30 48 1 6 44
M  V30 49 1 7 45
M  V30 50 1 9 46
M  V30 51 1 9 47
M  V30 52 1 11 48
M  V30 53 1 11 49
M  V30 54 1 12 50
M  V30 55 1 12 51
M  V30 56 1 13 52
M  V30 57 1 13 53
M  V30 58 1 14 54 CFG=1
M  V30 59 1 15 55
M  V30 60 1 19 56
M  V30 61 1 20 57
M  V30 62 1 22 58
M  V30 63 1 26 59
M  V30 64 1 27 60
M  V30 65 1 29 61
M  V30 66 1 31 62
M  V30 67 1 33 63
M  V30 68 1 33 64
M  V30 69 1 33 65
M  V30 70 1 35 66
M  V30 71 1 37 67
M  V30 72 1 38 68
M  V30 73 1 38 69
M  V30 END BOND
M  V30 END CTAB
M  END
>  <Dataset>  (479) 
ChEMBL_Kinases

>  <Ligand_Instance>  (479) 
nan

>  <PDB_ID>  (479) 
nan

>  <Standardized_SMILES>  (479) 
COc1ccccc1CN1CCC[C@@H](NC(=O)c2ccc3[nH]nc(-c4ccc(O)c(NC(C)=O)c4)c3c2)C1

>  <Name>  (479) 
nan

>  <Pocket>  (479) 
nan

>  <ATP_Site>  (479) 
nan

>  <Peripheral>  (479) 
nan

>  <Num_H_Atoms_ProtBoundConf>  (479) 
nan

>  <Num_Resolved_Atoms>  (479) 
nan

>  <Num_Not_Resolved_Atoms>  (479) 
nan

$$$$
CHEMBL3654490
     RDKit          3D

  0  0  0  0  0  0  0  0  0  0999 V3000
M  V30 BEGIN CTAB
M  V30 COUNTS 65 69 0 0 0
M  V30 BEGIN ATOM
M  V30 1 C 3.899384 -3.201006 1.035588 0
M  V30 2 C 4.244840 -1.773014 0.894147 0
M  V30 3 O 5.244785 -1.442192 0.198307 0
M  V30 4 N 3.456279 -0.801290 1.535785 0
M  V30 5 C 3.360756 0.596810 1.710054 0
M  V30 6 C 2.625016 1.376779 0.843113 0
M  V30 7 C 2.544907 2.736367 1.033155 0
M  V30 8 C 1.812215 3.685579 0.207867 0
M  V30 9 N 2.367390 4.862167 -0.172111 0
M  V30 10 N 1.495216 5.553213 -0.921616 0
M  V30 11 C 0.360665 4.850052 -1.047155 0
M  V30 12 C -0.838890 5.058620 -1.684874 0
M  V30 13 C -1.801542 4.057374 -1.577167 0
M  V30 14 C -1.609231 2.880189 -0.868648 0
M  V30 15 C -2.711372 1.924777 -0.846999 0
M  V30 16 O -3.756527 2.220538 -1.461117 0
M  V30 17 N -2.627242 0.687000 -0.156542 0
M  V30 18 C -3.680814 -0.316801 -0.088127 0 CFG=2
M  V30 19 C -4.049058 -0.504288 1.343961 0
M  V30 20 C -3.975106 -1.906376 1.842468 0
M  V30 21 C -2.851180 -2.725250 1.306274 0
M  V30 22 N -2.510621 -2.502821 -0.034931 0
M  V30 23 C -1.282579 -3.011683 -0.501918 0
M  V30 24 C -1.156701 -4.488770 -0.394664 0
M  V30 25 C -1.876773 -5.191243 -1.368616 0
M  V30 26 F -2.638645 -4.607232 -2.346904 0
M  V30 27 C -1.866802 -6.589668 -1.410125 0
M  V30 28 C -1.126869 -7.266678 -0.463983 0
M  V30 29 C -0.416188 -6.570108 0.497364 0
M  V30 30 C -0.425498 -5.191290 0.539019 0
M  V30 31 F 0.243909 -4.434092 1.448724 0
M  V30 32 C -3.197240 -1.547167 -0.794881 0
M  V30 33 C -0.406102 2.673170 -0.230137 0
M  V30 34 C 0.547587 3.681240 -0.345348 0
M  V30 35 C 3.239195 3.251157 2.130298 0
M  V30 36 C 3.990420 2.485004 3.022160 0
M  V30 37 C 4.037135 1.131318 2.786225 0
M  V30 38 O 4.797597 0.404825 3.699966 0
M  V30 39 H 4.501270 -3.655489 1.875208 0
M  V30 40 H 2.840920 -3.277877 1.346845 0
M  V30 41 H 4.051349 -3.739200 0.071540 0
M  V30 42 H 2.621549 -1.103768 2.114731 0
M  V30 43 H 2.098800 0.977687 0.009464 0
M  V30 44 H 1.657832 6.499279 -1.351719 0
M  V30 45 H -1.024920 5.965177 -2.247262 0
M  V30 46 H -2.728732 4.276188 -2.100706 0
M  V30 47 H -1.764627 0.416687 0.364149 0
M  V30 48 H -4.549510 0.086103 -0.684274 0
M  V30 49 H -3.458368 0.158463 2.017793 0
M  V30 50 H -5.112359 -0.169221 1.475041 0
M  V30 51 H -4.974078 -2.404488 1.690903 0
M  V30 52 H -3.859048 -1.847661 2.962271 0
M  V30 53 H -3.109201 -3.798119 1.458795 0
M  V30 54 H -1.929046 -2.577264 1.929266 0
M  V30 55 H -0.424077 -2.495827 0.016572 0
M  V30 56 H -1.167304 -2.753009 -1.578824 0
M  V30 57 H -2.423492 -7.140013 -2.163318 0
M  V30 58 H -1.064802 -8.352377 -0.424942 0
M  V30 59 H 0.181091 -7.058593 1.263496 0
M  V30 60 H -4.077639 -2.046770 -1.294669 0
M  V30 61 H -2.552161 -1.246456 -1.662435 0
M  V30 62 H -0.245453 1.774466 0.316873 0
M  V30 63 H 3.203968 4.323333 2.319808 0
M  V30 64 H 4.492257 2.991164 3.845124 0
M  V30 65 H 4.672399 0.544569 4.676448 0
M  V30 END ATOM
M  V30 BEGIN BOND
M  V30 1 1 1 2
M  V30 2 2 2 3
M  V30 3 1 2 4
M  V30 4 1 4 5
M  V30 5 2 5 6
M  V30 6 1 6 7
M  V30 7 1 7 8
M  V30 8 2 8 9
M  V30 9 1 9 10
M  V30 10 1 10 11
M  V30 11 2 11 12
M  V30 12 1 12 13
M  V30 13 2 13 14
M  V30 14 1 14 15
M  V30 15 2 15 16
M  V30 16 1 15 17
M  V30 17 1 17 18
M  V30 18 1 18 19
M  V30 19 1 19 20
M  V30 20 1 20 21
M  V30 21 1 21 22
M  V30 22 1 22 23
M  V30 23 1 23 24
M  V30 24 2 24 25
M  V30 25 1 25 26
M  V30 26 1 25 27
M  V30 27 2 27 28
M  V30 28 1 28 29
M  V30 29 2 29 30
M  V30 30 1 30 31
M  V30 31 1 22 32
M  V30 32 1 14 33
M  V30 33 2 33 34
M  V30 34 2 7 35
M  V30 35 1 35 36
M  V30 36 2 36 37
M  V30 37 1 37 38
M  V30 38 1 37 5
M  V30 39 1 34 8
M  V30 40 1 34 11
M  V30 41 1 32 18
M  V30 42 1 30 24
M  V30 43 1 1 39
M  V30 44 1 1 40
M  V30 45 1 1 41
M  V30 46 1 4 42
M  V30 47 1 6 43
M  V30 48 1 10 44
M  V30 49 1 12 45
M  V30 50 1 13 46
M  V30 51 1 17 47
M  V30 52 1 18 48 CFG=3
M  V30 53 1 19 49
M  V30 54 1 19 50
M  V30 55 1 20 51
M  V30 56 1 20 52
M  V30 57 1 21 53
M  V30 58 1 21 54
M  V30 59 1 23 55
M  V30 60 1 23 56
M  V30 61 1 27 57
M  V30 62 1 28 58
M  V30 63 1 29 59
M  V30 64 1 32 60
M  V30 65 1 32 61
M  V30 66 1 33 62
M  V30 67 1 35 63
M  V30 68 1 36 64
M  V30 69 1 38 65
M  V30 END BOND
M  V30 END CTAB
M  END
>  <Dataset>  (480) 
ChEMBL_Kinases

>  <Ligand_Instance>  (480) 
nan

>  <PDB_ID>  (480) 
nan

>  <Standardized_SMILES>  (480) 
CC(=O)Nc1cc(-c2n[nH]c3ccc(C(=O)N[C@@H]4CCCN(Cc5c(F)cccc5F)C4)cc23)ccc1O

>  <Name>  (480) 
nan

>  <Pocket>  (480) 
nan

>  <ATP_Site>  (480) 
nan

>  <Peripheral>  (480) 
nan

>  <Num_H_Atoms_ProtBoundConf>  (480) 
nan

>  <Num_Resolved_Atoms>  (480) 
nan

>  <Num_Not_Resolved_Atoms>  (480) 
nan

$$$$
CHEMBL3654489
     RDKit          3D

  0  0  0  0  0  0  0  0  0  0999 V3000
M  V30 BEGIN CTAB
M  V30 COUNTS 69 73 0 0 0
M  V30 BEGIN ATOM
M  V30 1 C 5.170438 -0.935856 0.431890 0
M  V30 2 O 4.743737 0.130876 -0.333807 0
M  V30 3 C 4.275453 1.355320 0.060455 0
M  V30 4 C 4.163269 1.703661 1.390647 0
M  V30 5 C 3.691990 2.936496 1.786792 0
M  V30 6 C 3.314966 3.866049 0.839696 0
M  V30 7 C 3.422410 3.529998 -0.490884 0
M  V30 8 F 3.068390 4.401411 -1.464840 0
M  V30 9 C 3.899361 2.281585 -0.912586 0
M  V30 10 C 4.000697 1.957917 -2.337873 0
M  V30 11 N 3.014034 1.103582 -2.865944 0
M  V30 12 C 3.081068 0.765582 -4.229067 0
M  V30 13 C 1.845974 0.083316 -4.716769 0
M  V30 14 C 1.412761 -0.929654 -3.678161 0
M  V30 15 C 0.967685 -0.182925 -2.445537 0 CFG=1
M  V30 16 N 1.021857 -0.986858 -1.255628 0
M  V30 17 C -0.148172 -1.337282 -0.528218 0
M  V30 18 O -1.252759 -0.898513 -0.988352 0
M  V30 19 C -0.088927 -2.155435 0.679719 0
M  V30 20 C 1.083840 -2.652088 1.244900 0
M  V30 21 C 1.054649 -3.423195 2.390519 0
M  V30 22 C -0.135929 -3.727451 3.013267 0
M  V30 23 N -0.519047 -4.427385 4.102222 0
M  V30 24 N -1.836933 -4.370572 4.207586 0
M  V30 25 C -2.377203 -3.645331 3.214285 0
M  V30 26 C -3.815824 -3.413774 3.076464 0
M  V30 27 C -4.627779 -4.514629 3.243100 0
M  V30 28 C -5.983879 -4.300298 3.115111 0
M  V30 29 C -6.491955 -3.052439 2.836147 0
M  V30 30 O -7.887787 -2.909504 2.720092 0
M  V30 31 C -5.683437 -1.951659 2.669232 0
M  V30 32 N -6.286740 -0.700492 2.383463 0
M  V30 33 C -5.692849 0.568861 2.171796 0
M  V30 34 C -6.473200 1.796288 1.879657 0
M  V30 35 O -4.446165 0.654731 2.235658 0
M  V30 36 C -4.345872 -2.195174 2.801729 0
M  V30 37 C -1.297862 -3.235248 2.453252 0
M  V30 38 C -1.285376 -2.463422 1.309113 0
M  V30 39 C 1.728948 1.095940 -2.242241 0
M  V30 40 H 5.423680 -0.718911 1.469591 0
M  V30 41 H 4.357708 -1.701648 0.467667 0
M  V30 42 H 6.053479 -1.479486 0.006142 0
M  V30 43 H 4.447609 1.005932 2.177523 0
M  V30 44 H 3.579057 3.275319 2.806641 0
M  V30 45 H 2.928711 4.870269 1.053890 0
M  V30 46 H 5.027727 1.548221 -2.569881 0
M  V30 47 H 3.968894 2.914131 -2.920586 0
M  V30 48 H 3.958299 0.161389 -4.528964 0
M  V30 49 H 3.147377 1.731497 -4.810167 0
M  V30 50 H 2.017097 -0.512491 -5.659156 0
M  V30 51 H 1.013139 0.769374 -4.914527 0
M  V30 52 H 0.611154 -1.555827 -4.121123 0
M  V30 53 H 2.273652 -1.602052 -3.502690 0
M  V30 54 H -0.095613 0.074457 -2.609949 0
M  V30 55 H 1.968981 -1.303198 -0.949657 0
M  V30 56 H 2.006897 -2.414036 0.758225 0
M  V30 57 H 1.974168 -3.800300 2.816988 0
M  V30 58 H 0.134126 -4.927781 4.746109 0
M  V30 59 H -4.278540 -5.515057 3.462325 0
M  V30 60 H -6.686095 -5.113713 3.232499 0
M  V30 61 H -8.322601 -2.787684 1.813391 0
M  V30 62 H -7.328966 -0.651778 2.306331 0
M  V30 63 H -7.349245 1.575755 1.236547 0
M  V30 64 H -5.827090 2.469298 1.277901 0
M  V30 65 H -6.748798 2.352145 2.798518 0
M  V30 66 H -3.638738 -1.411226 2.691989 0
M  V30 67 H -2.212650 -2.083886 0.881738 0
M  V30 68 H 1.146157 1.917300 -2.708276 0
M  V30 69 H 1.775432 1.285779 -1.171597 0
M  V30 END ATOM
M  V30 BEGIN BOND
M  V30 1 1 1 2
M  V30 2 1 2 3
M  V30 3 2 3 4
M  V30 4 1 4 5
M  V30 5 2 5 6
M  V30 6 1 6 7
M  V30 7 1 7 8
M  V30 8 2 7 9
M  V30 9 1 9 10
M  V30 10 1 10 11
M  V30 11 1 11 12
M  V30 12 1 12 13
M  V30 13 1 13 14
M  V30 14 1 14 15
M  V30 15 1 15 16
M  V30 16 1 16 17
M  V30 17 2 17 18
M  V30 18 1 17 19
M  V30 19 2 19 20
M  V30 20 1 20 21
M  V30 21 2 21 22
M  V30 22 1 22 23
M  V30 23 1 23 24
M  V30 24 2 24 25
M  V30 25 1 25 26
M  V30 26 2 26 27
M  V30 27 1 27 28
M  V30 28 2 28 29
M  V30 29 1 29 30
M  V30 30 1 29 31
M  V30 31 1 31 32
M  V30 32 1 32 33
M  V30 33 1 33 34
M  V30 34 2 33 35
M  V30 35 2 31 36
M  V30 36 1 25 37
M  V30 37 2 37 38
M  V30 38 1 15 39
M  V30 39 1 9 3
M  V30 40 1 39 11
M  V30 41 1 38 19
M  V30 42 1 37 22
M  V30 43 1 36 26
M  V30 44 1 1 40
M  V30 45 1 1 41
M  V30 46 1 1 42
M  V30 47 1 4 43
M  V30 48 1 5 44
M  V30 49 1 6 45
M  V30 50 1 10 46
M  V30 51 1 10 47
M  V30 52 1 12 48
M  V30 53 1 12 49
M  V30 54 1 13 50
M  V30 55 1 13 51
M  V30 56 1 14 52
M  V30 57 1 14 53
M  V30 58 1 15 54 CFG=3
M  V30 59 1 16 55
M  V30 60 1 20 56
M  V30 61 1 21 57
M  V30 62 1 23 58
M  V30 63 1 27 59
M  V30 64 1 28 60
M  V30 65 1 30 61
M  V30 66 1 32 62
M  V30 67 1 34 63
M  V30 68 1 34 64
M  V30 69 1 34 65
M  V30 70 1 36 66
M  V30 71 1 38 67
M  V30 72 1 39 68
M  V30 73 1 39 69
M  V30 END BOND
M  V30 END CTAB
M  END
>  <Dataset>  (481) 
ChEMBL_Kinases

>  <Ligand_Instance>  (481) 
nan

>  <PDB_ID>  (481) 
nan

>  <Standardized_SMILES>  (481) 
COc1cccc(F)c1CN1CCC[C@@H](NC(=O)c2ccc3[nH]nc(-c4ccc(O)c(NC(C)=O)c4)c3c2)C1

>  <Name>  (481) 
nan

>  <Pocket>  (481) 
nan

>  <ATP_Site>  (481) 
nan

>  <Peripheral>  (481) 
nan

>  <Num_H_Atoms_ProtBoundConf>  (481) 
nan

>  <Num_Resolved_Atoms>  (481) 
nan

>  <Num_Not_Resolved_Atoms>  (481) 
nan

$$$$
CHEMBL3654488
     RDKit          3D

  0  0  0  0  0  0  0  0  0  0999 V3000
M  V30 BEGIN CTAB
M  V30 COUNTS 65 69 0 0 0
M  V30 BEGIN ATOM
M  V30 1 C 3.362179 -3.618330 0.860906 0
M  V30 2 C 3.512017 -2.335965 1.569041 0
M  V30 3 O 4.144918 -2.390508 2.643248 0
M  V30 4 N 3.045147 -1.055269 1.211047 0
M  V30 5 C 3.091978 0.242523 1.746926 0
M  V30 6 C 2.464596 1.209078 1.001126 0
M  V30 7 C 2.440432 2.511486 1.422928 0
M  V30 8 C 1.768197 3.526928 0.627134 0
M  V30 9 N 2.348728 4.700060 0.395344 0
M  V30 10 N 1.588400 5.497067 -0.343629 0
M  V30 11 C 0.439540 4.850039 -0.633483 0
M  V30 12 C -0.732507 5.090808 -1.329204 0
M  V30 13 C -1.740115 4.120144 -1.401479 0
M  V30 14 C -1.583724 2.898697 -0.777295 0
M  V30 15 C -2.677618 1.940493 -0.899695 0
M  V30 16 O -3.689718 2.297045 -1.545504 0
M  V30 17 N -2.665667 0.638566 -0.336455 0
M  V30 18 C -3.791045 -0.297215 -0.483424 0 CFG=2
M  V30 19 C -4.293457 -0.603632 0.882581 0
M  V30 20 C -3.733229 -1.867816 1.495601 0
M  V30 21 C -3.636046 -2.975955 0.475930 0
M  V30 22 N -2.932668 -2.616260 -0.689626 0
M  V30 23 C -1.523012 -2.660614 -0.707096 0
M  V30 24 C -0.871508 -3.931987 -0.382748 0
M  V30 25 C -0.437208 -4.792525 -1.400632 0
M  V30 26 C 0.166929 -6.019979 -1.247566 0
M  V30 27 C 0.366672 -6.449770 0.060855 0
M  V30 28 C -0.031746 -5.662413 1.115053 0
M  V30 29 C -0.629164 -4.446137 0.872942 0
M  V30 30 F -0.964269 -3.730318 1.946099 0
M  V30 31 C -3.485609 -1.456411 -1.361165 0
M  V30 32 C -0.427818 2.624980 -0.074533 0
M  V30 33 C 0.537981 3.611117 -0.030181 0
M  V30 34 C 3.041579 2.886308 2.600287 0
M  V30 35 C 3.683021 1.956258 3.382910 0
M  V30 36 C 3.672539 0.675763 2.909173 0
M  V30 37 O 4.325080 -0.226043 3.720648 0
M  V30 38 H 4.309405 -3.972121 0.405890 0
M  V30 39 H 2.937869 -4.414151 1.514664 0
M  V30 40 H 2.647456 -3.507544 0.018038 0
M  V30 41 H 2.546549 -1.224968 0.285849 0
M  V30 42 H 1.960263 1.008753 0.047613 0
M  V30 43 H 1.718437 6.465944 -0.711195 0
M  V30 44 H -0.808421 6.055089 -1.798123 0
M  V30 45 H -2.635641 4.398467 -1.975263 0
M  V30 46 H -1.821049 0.350843 0.200810 0
M  V30 47 H -4.565071 0.324505 -1.032246 0
M  V30 48 H -5.398083 -0.738898 0.861658 0
M  V30 49 H -4.117303 0.242864 1.601582 0
M  V30 50 H -2.706370 -1.638157 1.840210 0
M  V30 51 H -4.321470 -2.161397 2.383265 0
M  V30 52 H -3.342559 -3.938517 0.899465 0
M  V30 53 H -4.717363 -3.139673 0.150768 0
M  V30 54 H -1.201022 -2.401571 -1.760304 0
M  V30 55 H -1.028717 -1.876208 -0.088481 0
M  V30 56 H -0.594985 -4.450856 -2.432749 0
M  V30 57 H 0.452474 -6.580068 -2.123003 0
M  V30 58 H 0.837816 -7.406563 0.176911 0
M  V30 59 H 0.132801 -6.012682 2.136529 0
M  V30 60 H -4.413671 -1.753447 -1.934463 0
M  V30 61 H -2.743078 -1.144322 -2.125878 0
M  V30 62 H -0.301515 1.671794 0.418258 0
M  V30 63 H 2.994220 3.924217 2.886569 0
M  V30 64 H 4.143226 2.261085 4.288043 0
M  V30 65 H 5.200936 -0.090437 4.174311 0
M  V30 END ATOM
M  V30 BEGIN BOND
M  V30 1 1 1 2
M  V30 2 2 2 3
M  V30 3 1 2 4
M  V30 4 1 4 5
M  V30 5 2 5 6
M  V30 6 1 6 7
M  V30 7 1 7 8
M  V30 8 2 8 9
M  V30 9 1 9 10
M  V30 10 1 10 11
M  V30 11 2 11 12
M  V30 12 1 12 13
M  V30 13 2 13 14
M  V30 14 1 14 15
M  V30 15 2 15 16
M  V30 16 1 15 17
M  V30 17 1 17 18
M  V30 18 1 18 19
M  V30 19 1 19 20
M  V30 20 1 20 21
M  V30 21 1 21 22
M  V30 22 1 22 23
M  V30 23 1 23 24
M  V30 24 2 24 25
M  V30 25 1 25 26
M  V30 26 2 26 27
M  V30 27 1 27 28
M  V30 28 2 28 29
M  V30 29 1 29 30
M  V30 30 1 22 31
M  V30 31 1 14 32
M  V30 32 2 32 33
M  V30 33 2 7 34
M  V30 34 1 34 35
M  V30 35 2 35 36
M  V30 36 1 36 37
M  V30 37 1 36 5
M  V30 38 1 33 8
M  V30 39 1 33 11
M  V30 40 1 31 18
M  V30 41 1 29 24
M  V30 42 1 1 38
M  V30 43 1 1 39
M  V30 44 1 1 40
M  V30 45 1 4 41
M  V30 46 1 6 42
M  V30 47 1 10 43
M  V30 48 1 12 44
M  V30 49 1 13 45
M  V30 50 1 17 46
M  V30 51 1 18 47 CFG=3
M  V30 52 1 19 48
M  V30 53 1 19 49
M  V30 54 1 20 50
M  V30 55 1 20 51
M  V30 56 1 21 52
M  V30 57 1 21 53
M  V30 58 1 23 54
M  V30 59 1 23 55
M  V30 60 1 25 56
M  V30 61 1 26 57
M  V30 62 1 27 58
M  V30 63 1 28 59
M  V30 64 1 31 60
M  V30 65 1 31 61
M  V30 66 1 32 62
M  V30 67 1 34 63
M  V30 68 1 35 64
M  V30 69 1 37 65
M  V30 END BOND
M  V30 END CTAB
M  END
>  <Dataset>  (482) 
ChEMBL_Kinases

>  <Ligand_Instance>  (482) 
nan

>  <PDB_ID>  (482) 
nan

>  <Standardized_SMILES>  (482) 
CC(=O)Nc1cc(-c2n[nH]c3ccc(C(=O)N[C@@H]4CCCN(Cc5ccccc5F)C4)cc23)ccc1O

>  <Name>  (482) 
nan

>  <Pocket>  (482) 
nan

>  <ATP_Site>  (482) 
nan

>  <Peripheral>  (482) 
nan

>  <Num_H_Atoms_ProtBoundConf>  (482) 
nan

>  <Num_Resolved_Atoms>  (482) 
nan

>  <Num_Not_Resolved_Atoms>  (482) 
nan

$$$$
CHEMBL3654487
     RDKit          3D

  0  0  0  0  0  0  0  0  0  0999 V3000
M  V30 BEGIN CTAB
M  V30 COUNTS 59 63 0 0 0
M  V30 BEGIN ATOM
M  V30 1 C 3.561932 -3.925205 4.600600 0
M  V30 2 C 3.100459 -2.585317 4.147080 0
M  V30 3 C 3.884442 -1.874390 3.237123 0
M  V30 4 C 3.463668 -0.612728 2.800787 0
M  V30 5 C 4.186917 0.227153 1.860769 0
M  V30 6 N 5.510552 0.473531 1.902790 0
M  V30 7 N 5.870299 1.279405 0.904009 0
M  V30 8 C 4.794811 1.599232 0.158726 0
M  V30 9 C 4.519392 2.357477 -0.958041 0
M  V30 10 C 3.252144 2.486634 -1.498973 0
M  V30 11 C 2.204053 1.824784 -0.894686 0
M  V30 12 C 0.879748 1.973377 -1.478356 0
M  V30 13 O 0.725541 2.689983 -2.494985 0
M  V30 14 N -0.246346 1.318243 -0.915564 0
M  V30 15 C -1.637386 1.332424 -1.337789 0 CFG=2
M  V30 16 C -2.429119 1.892367 -0.205012 0
M  V30 17 C -3.595243 1.082223 0.241531 0
M  V30 18 C -3.297999 -0.402610 0.389498 0
M  V30 19 N -2.343146 -0.867831 -0.527654 0
M  V30 20 C -1.893224 -2.189753 -0.516742 0
M  V30 21 C -2.972555 -3.174395 -0.726877 0
M  V30 22 C -3.872303 -3.631402 0.210332 0
M  V30 23 F -3.784130 -3.195251 1.466089 0
M  V30 24 C -4.868840 -4.540865 -0.066157 0
M  V30 25 C -5.010469 -5.049248 -1.337961 0
M  V30 26 C -4.152712 -4.648195 -2.340755 0
M  V30 27 C -3.184579 -3.739035 -1.990469 0
M  V30 28 F -2.322451 -3.330849 -2.978232 0
M  V30 29 C -2.121607 -0.064231 -1.672796 0
M  V30 30 C 2.482431 1.067547 0.221748 0
M  V30 31 C 3.744424 0.938392 0.761476 0
M  V30 32 C 2.260838 -0.130671 3.311979 0
M  V30 33 C 1.501657 -0.854445 4.213131 0
M  V30 34 N 1.935911 -2.078302 4.619396 0
M  V30 35 H 4.432878 -3.830253 5.274152 0
M  V30 36 H 3.853221 -4.589375 3.764744 0
M  V30 37 H 2.744755 -4.422761 5.163967 0
M  V30 38 H 4.818112 -2.243313 2.837269 0
M  V30 39 H 6.814749 1.654825 0.661172 0
M  V30 40 H 5.394355 2.848894 -1.379689 0
M  V30 41 H 3.181790 3.124503 -2.392277 0
M  V30 42 H -0.192118 0.708533 -0.071415 0
M  V30 43 H -1.708940 1.976727 -2.237995 0
M  V30 44 H -2.845347 2.891906 -0.522912 0
M  V30 45 H -1.797056 2.140264 0.691585 0
M  V30 46 H -3.859575 1.439258 1.277415 0
M  V30 47 H -4.511233 1.264464 -0.369362 0
M  V30 48 H -4.273181 -0.904546 0.213303 0
M  V30 49 H -2.989322 -0.646880 1.426318 0
M  V30 50 H -1.185202 -2.320008 -1.379880 0
M  V30 51 H -1.272609 -2.469246 0.371816 0
M  V30 52 H -5.551283 -4.865166 0.717106 0
M  V30 53 H -5.772777 -5.764463 -1.613130 0
M  V30 54 H -4.202927 -5.003318 -3.360898 0
M  V30 55 H -1.489532 -0.579781 -2.403994 0
M  V30 56 H -3.113879 0.084001 -2.176417 0
M  V30 57 H 1.672945 0.541079 0.706009 0
M  V30 58 H 1.808747 0.818410 3.073999 0
M  V30 59 H 0.565189 -0.516739 4.632644 0
M  V30 END ATOM
M  V30 BEGIN BOND
M  V30 1 1 1 2
M  V30 2 2 2 3
M  V30 3 1 3 4
M  V30 4 1 4 5
M  V30 5 2 5 6
M  V30 6 1 6 7
M  V30 7 1 7 8
M  V30 8 2 8 9
M  V30 9 1 9 10
M  V30 10 2 10 11
M  V30 11 1 11 12
M  V30 12 2 12 13
M  V30 13 1 12 14
M  V30 14 1 14 15
M  V30 15 1 15 16
M  V30 16 1 16 17
M  V30 17 1 17 18
M  V30 18 1 18 19
M  V30 19 1 19 20
M  V30 20 1 20 21
M  V30 21 2 21 22
M  V30 22 1 22 23
M  V30 23 1 22 24
M  V30 24 2 24 25
M  V30 25 1 25 26
M  V30 26 2 26 27
M  V30 27 1 27 28
M  V30 28 1 19 29
M  V30 29 1 11 30
M  V30 30 2 30 31
M  V30 31 2 4 32
M  V30 32 1 32 33
M  V30 33 2 33 34
M  V30 34 1 34 2
M  V30 35 1 31 5
M  V30 36 1 31 8
M  V30 37 1 29 15
M  V30 38 1 27 21
M  V30 39 1 1 35
M  V30 40 1 1 36
M  V30 41 1 1 37
M  V30 42 1 3 38
M  V30 43 1 7 39
M  V30 44 1 9 40
M  V30 45 1 10 41
M  V30 46 1 14 42
M  V30 47 1 15 43 CFG=3
M  V30 48 1 16 44
M  V30 49 1 16 45
M  V30 50 1 17 46
M  V30 51 1 17 47
M  V30 52 1 18 48
M  V30 53 1 18 49
M  V30 54 1 20 50
M  V30 55 1 20 51
M  V30 56 1 24 52
M  V30 57 1 25 53
M  V30 58 1 26 54
M  V30 59 1 29 55
M  V30 60 1 29 56
M  V30 61 1 30 57
M  V30 62 1 32 58
M  V30 63 1 33 59
M  V30 END BOND
M  V30 END CTAB
M  END
>  <Dataset>  (483) 
ChEMBL_Kinases

>  <Ligand_Instance>  (483) 
nan

>  <PDB_ID>  (483) 
nan

>  <Standardized_SMILES>  (483) 
Cc1cc(-c2n[nH]c3ccc(C(=O)N[C@@H]4CCCN(Cc5c(F)cccc5F)C4)cc23)ccn1

>  <Name>  (483) 
nan

>  <Pocket>  (483) 
nan

>  <ATP_Site>  (483) 
nan

>  <Peripheral>  (483) 
nan

>  <Num_H_Atoms_ProtBoundConf>  (483) 
nan

>  <Num_Resolved_Atoms>  (483) 
nan

>  <Num_Not_Resolved_Atoms>  (483) 
nan

$$$$
CHEMBL3654486
     RDKit          3D

  0  0  0  0  0  0  0  0  0  0999 V3000
M  V30 BEGIN CTAB
M  V30 COUNTS 63 67 0 0 0
M  V30 BEGIN ATOM
M  V30 1 C 1.348817 0.683805 5.504196 0
M  V30 2 O 2.155747 0.591846 4.362351 0
M  V30 3 C 3.140107 1.516264 4.019385 0
M  V30 4 C 3.324283 2.594890 4.874841 0
M  V30 5 C 4.291064 3.528115 4.563744 0
M  V30 6 C 5.096505 3.461000 3.446591 0
M  V30 7 C 4.885897 2.377908 2.621169 0
M  V30 8 F 5.607852 2.181641 1.480693 0
M  V30 9 C 3.921160 1.402829 2.887431 0
M  V30 10 C 3.689966 0.227918 2.000210 0
M  V30 11 N 2.536740 0.317083 1.205139 0
M  V30 12 C 2.387472 1.376481 0.295945 0
M  V30 13 C 0.897318 1.599630 0.003006 0
M  V30 14 C 0.068528 1.302781 1.237407 0
M  V30 15 C 0.168325 -0.142671 1.660474 0 CFG=1
M  V30 16 N -0.799942 -0.981413 0.986282 0
M  V30 17 C -1.765848 -1.784375 1.610399 0
M  V30 18 O -1.796685 -1.776451 2.868156 0
M  V30 19 C -2.733645 -2.624434 0.911261 0
M  V30 20 C -3.614309 -3.345025 1.682099 0
M  V30 21 C -4.557151 -4.162871 1.051878 0
M  V30 22 C -4.626744 -4.265745 -0.320249 0
M  V30 23 N -5.376394 -4.929761 -1.207753 0
M  V30 24 N -4.995504 -4.647621 -2.442459 0
M  V30 25 C -3.970504 -3.778226 -2.400982 0
M  V30 26 C -3.312676 -3.261475 -3.593566 0
M  V30 27 C -3.030416 -4.230118 -4.556110 0
M  V30 28 C -2.406897 -3.889933 -5.739907 0
M  V30 29 N -2.081966 -2.605890 -5.935860 0
M  V30 30 C -2.332648 -1.637164 -5.039759 0
M  V30 31 C -2.003722 -0.201674 -5.183426 0
M  V30 32 C -2.953697 -1.945127 -3.849228 0
M  V30 33 C -3.729356 -3.530237 -1.066131 0
M  V30 34 C -2.787479 -2.713831 -0.463366 0
M  V30 35 C 1.535509 -0.662384 1.305065 0
M  V30 36 H 1.834763 1.059157 6.404957 0
M  V30 37 H 0.957871 -0.345968 5.733709 0
M  V30 38 H 0.446403 1.331877 5.325252 0
M  V30 39 H 2.764320 2.772484 5.783302 0
M  V30 40 H 4.458398 4.389310 5.221732 0
M  V30 41 H 5.852922 4.191768 3.202841 0
M  V30 42 H 3.641938 -0.689547 2.620475 0
M  V30 43 H 4.571107 0.043058 1.316907 0
M  V30 44 H 2.829394 1.063993 -0.678897 0
M  V30 45 H 2.847595 2.331463 0.586513 0
M  V30 46 H 0.683286 2.615354 -0.330709 0
M  V30 47 H 0.575824 0.873707 -0.759053 0
M  V30 48 H -0.961471 1.592516 1.038702 0
M  V30 49 H 0.446464 1.988337 2.025569 0
M  V30 50 H 0.051846 -0.171659 2.764725 0
M  V30 51 H -0.752027 -0.968515 -0.055050 0
M  V30 52 H -3.641701 -3.334054 2.755730 0
M  V30 53 H -5.286809 -4.762472 1.591577 0
M  V30 54 H -6.155357 -5.579900 -0.892257 0
M  V30 55 H -3.284272 -5.289351 -4.425303 0
M  V30 56 H -2.144610 -4.557009 -6.546389 0
M  V30 57 H -1.247670 -0.056885 -5.991511 0
M  V30 58 H -2.863451 0.414519 -5.452063 0
M  V30 59 H -1.491652 0.123282 -4.233679 0
M  V30 60 H -3.200221 -1.259038 -3.068489 0
M  V30 61 H -2.089214 -2.142936 -1.058853 0
M  V30 62 H 1.456474 -1.179667 0.327286 0
M  V30 63 H 1.864673 -1.432157 2.034343 0
M  V30 END ATOM
M  V30 BEGIN BOND
M  V30 1 1 1 2
M  V30 2 1 2 3
M  V30 3 2 3 4
M  V30 4 1 4 5
M  V30 5 2 5 6
M  V30 6 1 6 7
M  V30 7 1 7 8
M  V30 8 2 7 9
M  V30 9 1 9 10
M  V30 10 1 10 11
M  V30 11 1 11 12
M  V30 12 1 12 13
M  V30 13 1 13 14
M  V30 14 1 14 15
M  V30 15 1 15 16
M  V30 16 1 16 17
M  V30 17 2 17 18
M  V30 18 1 17 19
M  V30 19 2 19 20
M  V30 20 1 20 21
M  V30 21 2 21 22
M  V30 22 1 22 23
M  V30 23 1 23 24
M  V30 24 2 24 25
M  V30 25 1 25 26
M  V30 26 2 26 27
M  V30 27 1 27 28
M  V30 28 2 28 29
M  V30 29 1 29 30
M  V30 30 1 30 31
M  V30 31 2 30 32
M  V30 32 1 25 33
M  V30 33 2 33 34
M  V30 34 1 15 35
M  V30 35 1 9 3
M  V30 36 1 35 11
M  V30 37 1 34 19
M  V30 38 1 33 22
M  V30 39 1 32 26
M  V30 40 1 1 36
M  V30 41 1 1 37
M  V30 42 1 1 38
M  V30 43 1 4 39
M  V30 44 1 5 40
M  V30 45 1 6 41
M  V30 46 1 10 42
M  V30 47 1 10 43
M  V30 48 1 12 44
M  V30 49 1 12 45
M  V30 50 1 13 46
M  V30 51 1 13 47
M  V30 52 1 14 48
M  V30 53 1 14 49
M  V30 54 1 15 50 CFG=1
M  V30 55 1 16 51
M  V30 56 1 20 52
M  V30 57 1 21 53
M  V30 58 1 23 54
M  V30 59 1 27 55
M  V30 60 1 28 56
M  V30 61 1 31 57
M  V30 62 1 31 58
M  V30 63 1 31 59
M  V30 64 1 32 60
M  V30 65 1 34 61
M  V30 66 1 35 62
M  V30 67 1 35 63
M  V30 END BOND
M  V30 END CTAB
M  END
>  <Dataset>  (484) 
ChEMBL_Kinases

>  <Ligand_Instance>  (484) 
nan

>  <PDB_ID>  (484) 
nan

>  <Standardized_SMILES>  (484) 
COc1cccc(F)c1CN1CCC[C@@H](NC(=O)c2ccc3[nH]nc(-c4ccnc(C)c4)c3c2)C1

>  <Name>  (484) 
nan

>  <Pocket>  (484) 
nan

>  <ATP_Site>  (484) 
nan

>  <Peripheral>  (484) 
nan

>  <Num_H_Atoms_ProtBoundConf>  (484) 
nan

>  <Num_Resolved_Atoms>  (484) 
nan

>  <Num_Not_Resolved_Atoms>  (484) 
nan

$$$$
CHEMBL3654485
     RDKit          3D

  0  0  0  0  0  0  0  0  0  0999 V3000
M  V30 BEGIN CTAB
M  V30 COUNTS 60 64 0 0 0
M  V30 BEGIN ATOM
M  V30 1 C 1.841694 -5.246957 4.385648 0
M  V30 2 C 1.312674 -3.856033 4.219646 0
M  V30 3 C 2.197299 -2.819529 4.089518 0
M  V30 4 C 1.729171 -1.513408 3.932692 0
M  V30 5 C 2.757815 -0.481058 3.802488 0
M  V30 6 N 3.865721 -0.348791 4.551638 0
M  V30 7 N 4.579351 0.704282 4.153651 0
M  V30 8 C 3.968213 1.318465 3.115224 0
M  V30 9 C 4.238807 2.418929 2.325596 0
M  V30 10 C 3.329067 2.745556 1.313559 0
M  V30 11 C 2.179315 2.025811 1.065747 0
M  V30 12 C 1.294453 2.446262 -0.012658 0
M  V30 13 O 1.660122 3.471112 -0.649317 0
M  V30 14 N 0.106596 1.724723 -0.299259 0
M  V30 15 C -0.888711 1.976394 -1.312374 0 CFG=2
M  V30 16 C -2.277927 2.177367 -0.750808 0
M  V30 17 C -2.654990 0.967013 0.071909 0
M  V30 18 C -2.428591 -0.284175 -0.742406 0
M  V30 19 N -2.049059 0.020493 -2.062540 0
M  V30 20 C -2.714666 -0.595230 -3.126541 0
M  V30 21 C -2.639214 -2.074885 -3.144635 0
M  V30 22 C -3.737754 -2.825739 -2.750574 0
M  V30 23 C -3.839120 -4.204779 -2.705262 0
M  V30 24 C -2.717479 -4.901961 -3.097645 0
M  V30 25 C -1.575245 -4.211754 -3.506864 0
M  V30 26 C -1.549884 -2.828731 -3.525265 0
M  V30 27 O -0.415518 -2.123479 -3.931733 0
M  V30 28 C -0.918184 0.820485 -2.289826 0
M  V30 29 C 1.970904 0.940834 1.890145 0
M  V30 30 C 2.827492 0.571683 2.899345 0
M  V30 31 C 0.365999 -1.300463 3.913060 0
M  V30 32 C -0.509130 -2.369074 4.047064 0
M  V30 33 N -0.031402 -3.625216 4.197716 0
M  V30 34 H 2.625644 -5.218387 5.176128 0
M  V30 35 H 2.351112 -5.483939 3.407641 0
M  V30 36 H 1.055102 -5.978907 4.567042 0
M  V30 37 H 3.268014 -3.020626 4.109053 0
M  V30 38 H 5.493552 1.033265 4.571508 0
M  V30 39 H 5.133315 2.998176 2.500671 0
M  V30 40 H 3.629168 3.635859 0.738215 0
M  V30 41 H -0.191084 0.877604 0.230837 0
M  V30 42 H -0.623114 2.891110 -1.919327 0
M  V30 43 H -2.409178 3.117996 -0.225589 0
M  V30 44 H -2.968428 2.171871 -1.635984 0
M  V30 45 H -3.727613 1.063641 0.383174 0
M  V30 46 H -2.072034 0.997064 1.009418 0
M  V30 47 H -1.711499 -0.932137 -0.175618 0
M  V30 48 H -3.397738 -0.861240 -0.809042 0
M  V30 49 H -2.300202 -0.212668 -4.087898 0
M  V30 50 H -3.785342 -0.307313 -3.138665 0
M  V30 51 H -4.627960 -2.274492 -2.439108 0
M  V30 52 H -4.744277 -4.672360 -2.381579 0
M  V30 53 H -2.735227 -5.974457 -3.083883 0
M  V30 54 H -0.712110 -4.789453 -3.808336 0
M  V30 55 H 0.511294 -2.454439 -3.759501 0
M  V30 56 H -0.960189 1.182755 -3.346220 0
M  V30 57 H 0.049669 0.251190 -2.231627 0
M  V30 58 H 1.080550 0.350861 1.727448 0
M  V30 59 H 0.035135 -0.278693 3.790848 0
M  V30 60 H -1.587704 -2.175390 4.028328 0
M  V30 END ATOM
M  V30 BEGIN BOND
M  V30 1 1 1 2
M  V30 2 2 2 3
M  V30 3 1 3 4
M  V30 4 1 4 5
M  V30 5 2 5 6
M  V30 6 1 6 7
M  V30 7 1 7 8
M  V30 8 2 8 9
M  V30 9 1 9 10
M  V30 10 2 10 11
M  V30 11 1 11 12
M  V30 12 2 12 13
M  V30 13 1 12 14
M  V30 14 1 14 15
M  V30 15 1 15 16
M  V30 16 1 16 17
M  V30 17 1 17 18
M  V30 18 1 18 19
M  V30 19 1 19 20
M  V30 20 1 20 21
M  V30 21 2 21 22
M  V30 22 1 22 23
M  V30 23 2 23 24
M  V30 24 1 24 25
M  V30 25 2 25 26
M  V30 26 1 26 27
M  V30 27 1 19 28
M  V30 28 1 11 29
M  V30 29 2 29 30
M  V30 30 2 4 31
M  V30 31 1 31 32
M  V30 32 2 32 33
M  V30 33 1 33 2
M  V30 34 1 30 5
M  V30 35 1 30 8
M  V30 36 1 28 15
M  V30 37 1 26 21
M  V30 38 1 1 34
M  V30 39 1 1 35
M  V30 40 1 1 36
M  V30 41 1 3 37
M  V30 42 1 7 38
M  V30 43 1 9 39
M  V30 44 1 10 40
M  V30 45 1 14 41
M  V30 46 1 15 42 CFG=3
M  V30 47 1 16 43
M  V30 48 1 16 44
M  V30 49 1 17 45
M  V30 50 1 17 46
M  V30 51 1 18 47
M  V30 52 1 18 48
M  V30 53 1 20 49
M  V30 54 1 20 50
M  V30 55 1 22 51
M  V30 56 1 23 52
M  V30 57 1 24 53
M  V30 58 1 25 54
M  V30 59 1 27 55
M  V30 60 1 28 56
M  V30 61 1 28 57
M  V30 62 1 29 58
M  V30 63 1 31 59
M  V30 64 1 32 60
M  V30 END BOND
M  V30 END CTAB
M  END
>  <Dataset>  (485) 
ChEMBL_Kinases

>  <Ligand_Instance>  (485) 
nan

>  <PDB_ID>  (485) 
nan

>  <Standardized_SMILES>  (485) 
Cc1cc(-c2n[nH]c3ccc(C(=O)N[C@@H]4CCCN(Cc5ccccc5O)C4)cc23)ccn1

>  <Name>  (485) 
nan

>  <Pocket>  (485) 
nan

>  <ATP_Site>  (485) 
nan

>  <Peripheral>  (485) 
nan

>  <Num_H_Atoms_ProtBoundConf>  (485) 
nan

>  <Num_Resolved_Atoms>  (485) 
nan

>  <Num_Not_Resolved_Atoms>  (485) 
nan

$$$$
CHEMBL3654484
     RDKit          3D

  0  0  0  0  0  0  0  0  0  0999 V3000
M  V30 BEGIN CTAB
M  V30 COUNTS 69 75 0 0 0
M  V30 BEGIN ATOM
M  V30 1 C 4.363572 -4.390321 2.459931 0
M  V30 2 N 4.406641 -3.081960 1.824359 0
M  V30 3 C 3.403200 -2.194337 1.706378 0
M  V30 4 C 3.827160 -1.049621 1.033229 0
M  V30 5 C 2.951717 0.114948 0.743499 0
M  V30 6 N 2.529971 0.151922 -0.638747 0
M  V30 7 C 1.777688 -1.051102 -0.996490 0
M  V30 8 C 1.724517 -1.000781 -2.509143 0
M  V30 9 C 0.728004 0.064744 -2.876280 0
M  V30 10 C 0.753876 1.263385 -1.984504 0 CFG=1
M  V30 11 N -0.616544 1.519665 -1.563710 0
M  V30 12 C -1.480510 2.592644 -1.890135 0
M  V30 13 O -1.080939 3.487102 -2.643382 0
M  V30 14 C -2.829695 2.632991 -1.336577 0
M  V30 15 C -3.635593 3.691725 -1.702841 0
M  V30 16 C -4.937867 3.780264 -1.199721 0
M  V30 17 C -5.449022 2.827559 -0.335563 0
M  V30 18 N -6.610878 2.611072 0.311923 0
M  V30 19 N -6.546609 1.500722 1.033429 0
M  V30 20 C -5.329464 0.923400 0.897829 0
M  V30 21 C -4.875062 -0.308569 1.531516 0
M  V30 22 C -3.634942 -0.326330 2.113178 0
M  V30 23 C -3.097035 -1.452415 2.745407 0
M  V30 24 C -3.838893 -2.621262 2.798238 0
M  V30 25 C -5.081018 -2.593246 2.212325 0
M  V30 26 C -5.600893 -1.481203 1.593197 0
M  V30 27 C -5.669517 -3.943258 2.397931 0
M  V30 28 C -4.665242 -4.734795 3.202746 0
M  V30 29 O -3.578892 -3.865208 3.341449 0
M  V30 30 C -4.636576 1.768038 0.028634 0
M  V30 31 C -3.356265 1.705729 -0.482926 0
M  V30 32 C 1.693709 1.272310 -0.855871 0
M  V30 33 C 5.156211 -1.301236 0.749962 0
M  V30 34 C 6.044372 -0.476362 0.088613 0
M  V30 35 C 7.338393 -0.921817 -0.091376 0
M  V30 36 C 7.709819 -2.149485 0.380120 0
M  V30 37 C 6.817347 -2.979525 1.045194 0
M  V30 38 C 5.498952 -2.555373 1.242737 0
M  V30 39 H 3.435020 -4.544497 3.028509 0
M  V30 40 H 5.221355 -4.557388 3.152109 0
M  V30 41 H 4.374983 -5.172017 1.660339 0
M  V30 42 H 2.407978 -2.420523 2.115686 0
M  V30 43 H 3.594827 1.022572 0.878675 0
M  V30 44 H 2.136821 0.141143 1.476270 0
M  V30 45 H 0.767520 -0.987988 -0.542731 0
M  V30 46 H 2.274149 -1.965672 -0.624052 0
M  V30 47 H 2.729267 -0.711825 -2.871417 0
M  V30 48 H 1.402836 -1.987943 -2.879718 0
M  V30 49 H 0.919327 0.317304 -3.940309 0
M  V30 50 H -0.257829 -0.452054 -2.863688 0
M  V30 51 H 0.990139 2.152102 -2.643337 0
M  V30 52 H -0.868567 0.722924 -0.939100 0
M  V30 53 H -3.324152 4.480415 -2.369873 0
M  V30 54 H -5.595741 4.609443 -1.475044 0
M  V30 55 H -7.424086 3.236928 0.240587 0
M  V30 56 H -2.943124 0.498837 2.156255 0
M  V30 57 H -2.124104 -1.491304 3.210225 0
M  V30 58 H -6.584956 -1.486714 1.138363 0
M  V30 59 H -6.616013 -3.776548 2.968004 0
M  V30 60 H -5.868555 -4.390968 1.399229 0
M  V30 61 H -4.407007 -5.670844 2.662502 0
M  V30 62 H -5.110915 -5.060126 4.182020 0
M  V30 63 H -2.749933 0.884904 -0.193079 0
M  V30 64 H 2.356836 2.181575 -0.851776 0
M  V30 65 H 1.096188 1.405197 0.094874 0
M  V30 66 H 5.743279 0.497563 -0.283547 0
M  V30 67 H 8.015046 -0.258006 -0.611975 0
M  V30 68 H 8.739911 -2.503120 0.236442 0
M  V30 69 H 7.104643 -3.949162 1.419322 0
M  V30 END ATOM
M  V30 BEGIN BOND
M  V30 1 1 1 2
M  V30 2 1 2 3
M  V30 3 2 3 4
M  V30 4 1 4 5
M  V30 5 1 5 6
M  V30 6 1 6 7
M  V30 7 1 7 8
M  V30 8 1 8 9
M  V30 9 1 9 10
M  V30 10 1 10 11
M  V30 11 1 11 12
M  V30 12 2 12 13
M  V30 13 1 12 14
M  V30 14 2 14 15
M  V30 15 1 15 16
M  V30 16 2 16 17
M  V30 17 1 17 18
M  V30 18 1 18 19
M  V30 19 2 19 20
M  V30 20 1 20 21
M  V30 21 2 21 22
M  V30 22 1 22 23
M  V30 23 2 23 24
M  V30 24 1 24 25
M  V30 25 2 25 26
M  V30 26 1 25 27
M  V30 27 1 27 28
M  V30 28 1 28 29
M  V30 29 1 20 30
M  V30 30 2 30 31
M  V30 31 1 10 32
M  V30 32 1 4 33
M  V30 33 2 33 34
M  V30 34 1 34 35
M  V30 35 2 35 36
M  V30 36 1 36 37
M  V30 37 2 37 38
M  V30 38 1 38 2
M  V30 39 1 32 6
M  V30 40 1 38 33
M  V30 41 1 31 14
M  V30 42 1 30 17
M  V30 43 1 26 21
M  V30 44 1 29 24
M  V30 45 1 1 39
M  V30 46 1 1 40
M  V30 47 1 1 41
M  V30 48 1 3 42
M  V30 49 1 5 43
M  V30 50 1 5 44
M  V30 51 1 7 45
M  V30 52 1 7 46
M  V30 53 1 8 47
M  V30 54 1 8 48
M  V30 55 1 9 49
M  V30 56 1 9 50
M  V30 57 1 10 51 CFG=3
M  V30 58 1 11 52
M  V30 59 1 15 53
M  V30 60 1 16 54
M  V30 61 1 18 55
M  V30 62 1 22 56
M  V30 63 1 23 57
M  V30 64 1 26 58
M  V30 65 1 27 59
M  V30 66 1 27 60
M  V30 67 1 28 61
M  V30 68 1 28 62
M  V30 69 1 31 63
M  V30 70 1 32 64
M  V30 71 1 32 65
M  V30 72 1 34 66
M  V30 73 1 35 67
M  V30 74 1 36 68
M  V30 75 1 37 69
M  V30 END BOND
M  V30 END CTAB
M  END
>  <Dataset>  (486) 
ChEMBL_Kinases

>  <Ligand_Instance>  (486) 
nan

>  <PDB_ID>  (486) 
nan

>  <Standardized_SMILES>  (486) 
Cn1cc(CN2CCC[C@@H](NC(=O)c3ccc4[nH]nc(-c5ccc6c(c5)CCO6)c4c3)C2)c2ccccc21

>  <Name>  (486) 
nan

>  <Pocket>  (486) 
nan

>  <ATP_Site>  (486) 
nan

>  <Peripheral>  (486) 
nan

>  <Num_H_Atoms_ProtBoundConf>  (486) 
nan

>  <Num_Resolved_Atoms>  (486) 
nan

>  <Num_Not_Resolved_Atoms>  (486) 
nan

$$$$
CHEMBL3654483
     RDKit          3D

  0  0  0  0  0  0  0  0  0  0999 V3000
M  V30 BEGIN CTAB
M  V30 COUNTS 59 63 0 0 0
M  V30 BEGIN ATOM
M  V30 1 C 2.350552 -3.315046 4.555381 0
M  V30 2 C 2.047370 -3.067854 3.109630 0
M  V30 3 C 1.402923 -1.691921 2.871852 0
M  V30 4 C 1.516283 -1.477252 1.403841 0
M  V30 5 N 1.165883 -0.178833 0.945838 0
M  V30 6 C 1.839642 0.894661 0.303504 0
M  V30 7 O 3.057378 0.817408 0.003212 0
M  V30 8 C 1.113019 2.119122 -0.019630 0
M  V30 9 C 1.846951 3.111783 -0.632781 0
M  V30 10 C 1.200156 4.306314 -0.963992 0
M  V30 11 C -0.135840 4.524865 -0.700982 0
M  V30 12 N -1.042971 5.498476 -0.869815 0
M  V30 13 N -2.227723 5.140910 -0.404320 0
M  V30 14 C -2.166496 3.894082 0.104306 0
M  V30 15 C -3.290639 3.184024 0.701351 0
M  V30 16 C -3.304880 2.457034 1.872308 0
M  V30 17 C -4.455313 1.835692 2.312690 0
M  V30 18 N -5.589976 1.937729 1.588568 0
M  V30 19 C -5.635999 2.637322 0.432337 0
M  V30 20 C -4.477430 3.262647 -0.010381 0
M  V30 21 C -0.850792 3.507378 -0.082632 0
M  V30 22 C -0.221459 2.319022 0.250774 0
M  V30 23 C 0.765696 -2.583203 0.655585 0
M  V30 24 N 1.201058 -3.870686 1.022594 0
M  V30 25 C 0.478499 -4.907213 0.343928 0
M  V30 26 C 0.590649 -4.818301 -1.108253 0
M  V30 27 C 1.577441 -5.586878 -1.718265 0
M  V30 28 C 1.865817 -5.621320 -3.073508 0
M  V30 29 C 1.125507 -4.836863 -3.902322 0
M  V30 30 C 0.137362 -4.056380 -3.364766 0
M  V30 31 C -0.101948 -4.062886 -2.026986 0
M  V30 32 F -1.112443 -3.299317 -1.565699 0
M  V30 33 C 1.125989 -4.059693 2.480782 0
M  V30 34 H 3.098489 -4.160905 4.563587 0
M  V30 35 H 1.492546 -3.680788 5.132145 0
M  V30 36 H 2.841656 -2.430091 4.972765 0
M  V30 37 H 2.980077 -3.064822 2.505615 0
M  V30 38 H 0.360718 -1.818629 3.245822 0
M  V30 39 H 1.921983 -0.932397 3.455978 0
M  V30 40 H 2.601578 -1.642012 1.155280 0
M  V30 41 H 0.157606 -0.169661 1.217378 0
M  V30 42 H 2.879048 3.040733 -0.877036 0
M  V30 43 H 1.743751 5.120338 -1.451199 0
M  V30 44 H -0.759818 6.404614 -1.327326 0
M  V30 45 H -2.350984 2.425483 2.393730 0
M  V30 46 H -4.425987 1.271152 3.241509 0
M  V30 47 H -6.576678 2.668360 -0.080548 0
M  V30 48 H -4.578994 3.797724 -0.928031 0
M  V30 49 H -0.792048 1.550636 0.726232 0
M  V30 50 H -0.293333 -2.361900 0.775271 0
M  V30 51 H 1.045233 -2.385711 -0.422304 0
M  V30 52 H 0.852021 -5.906225 0.674388 0
M  V30 53 H -0.607800 -4.908649 0.660488 0
M  V30 54 H 2.211074 -6.242361 -1.107502 0
M  V30 55 H 2.638049 -6.236652 -3.467655 0
M  V30 56 H 1.319627 -4.836226 -4.954882 0
M  V30 57 H -0.456828 -3.428316 -4.020894 0
M  V30 58 H 1.497343 -5.111931 2.641154 0
M  V30 59 H 0.076274 -3.991523 2.771434 0
M  V30 END ATOM
M  V30 BEGIN BOND
M  V30 1 1 1 2
M  V30 2 1 2 3
M  V30 3 1 3 4
M  V30 4 1 4 5
M  V30 5 1 5 6
M  V30 6 2 6 7
M  V30 7 1 6 8
M  V30 8 2 8 9
M  V30 9 1 9 10
M  V30 10 2 10 11
M  V30 11 1 11 12
M  V30 12 1 12 13
M  V30 13 2 13 14
M  V30 14 1 14 15
M  V30 15 2 15 16
M  V30 16 1 16 17
M  V30 17 2 17 18
M  V30 18 1 18 19
M  V30 19 2 19 20
M  V30 20 1 14 21
M  V30 21 2 21 22
M  V30 22 1 4 23
M  V30 23 1 23 24
M  V30 24 1 24 25
M  V30 25 1 25 26
M  V30 26 2 26 27
M  V30 27 1 27 28
M  V30 28 2 28 29
M  V30 29 1 29 30
M  V30 30 2 30 31
M  V30 31 1 31 32
M  V30 32 1 24 33
M  V30 33 1 33 2
M  V30 34 1 22 8
M  V30 35 1 31 26
M  V30 36 1 21 11
M  V30 37 1 20 15
M  V30 38 1 1 34
M  V30 39 1 1 35
M  V30 40 1 1 36
M  V30 41 1 2 37
M  V30 42 1 3 38
M  V30 43 1 3 39
M  V30 44 1 4 40
M  V30 45 1 5 41
M  V30 46 1 9 42
M  V30 47 1 10 43
M  V30 48 1 12 44
M  V30 49 1 16 45
M  V30 50 1 17 46
M  V30 51 1 19 47
M  V30 52 1 20 48
M  V30 53 1 22 49
M  V30 54 1 23 50
M  V30 55 1 23 51
M  V30 56 1 25 52
M  V30 57 1 25 53
M  V30 58 1 27 54
M  V30 59 1 28 55
M  V30 60 1 29 56
M  V30 61 1 30 57
M  V30 62 1 33 58
M  V30 63 1 33 59
M  V30 END BOND
M  V30 END CTAB
M  END
>  <Dataset>  (487) 
ChEMBL_Kinases

>  <Ligand_Instance>  (487) 
nan

>  <PDB_ID>  (487) 
nan

>  <Standardized_SMILES>  (487) 
CC1CC(NC(=O)c2ccc3[nH]nc(-c4ccncc4)c3c2)CN(Cc2ccccc2F)C1

>  <Name>  (487) 
nan

>  <Pocket>  (487) 
nan

>  <ATP_Site>  (487) 
nan

>  <Peripheral>  (487) 
nan

>  <Num_H_Atoms_ProtBoundConf>  (487) 
nan

>  <Num_Resolved_Atoms>  (487) 
nan

>  <Num_Not_Resolved_Atoms>  (487) 
nan

$$$$
CHEMBL3654482
     RDKit          3D

  0  0  0  0  0  0  0  0  0  0999 V3000
M  V30 BEGIN CTAB
M  V30 COUNTS 66 71 0 0 0
M  V30 BEGIN ATOM
M  V30 1 C -0.434805 -0.749761 4.506420 0
M  V30 2 O 0.573095 -0.291917 3.638782 0
M  V30 3 C 1.832762 0.026543 4.116189 0
M  V30 4 C 2.162359 -0.088402 5.444780 0
M  V30 5 C 3.414659 0.226671 5.905697 0
M  V30 6 C 4.356774 0.668444 5.002994 0
M  V30 7 C 3.980111 0.766226 3.692254 0
M  V30 8 F 4.975021 1.213622 2.854727 0
M  V30 9 C 2.718720 0.460872 3.158244 0
M  V30 10 C 2.553088 0.677076 1.702598 0
M  V30 11 N 1.946978 1.881956 1.299648 0
M  V30 12 C 0.624296 2.100035 1.703918 0
M  V30 13 C -0.023216 3.324411 1.085796 0
M  V30 14 C 0.209953 3.466965 -0.376161 0
M  V30 15 C 1.339510 2.663669 -0.940000 0
M  V30 16 N 0.808892 1.437092 -1.472779 0
M  V30 17 C 0.916914 1.037685 -2.832954 0
M  V30 18 O 1.516480 1.808902 -3.620066 0
M  V30 19 C 0.381492 -0.202285 -3.378858 0
M  V30 20 C 0.578018 -0.439387 -4.722915 0
M  V30 21 C 0.080641 -1.616287 -5.294983 0
M  V30 22 C -0.602720 -2.534243 -4.518029 0
M  V30 23 N -1.184449 -3.722866 -4.767315 0
M  V30 24 N -1.721973 -4.227668 -3.671337 0
M  V30 25 C -1.511420 -3.373253 -2.631991 0
M  V30 26 C -1.939527 -3.547929 -1.249133 0
M  V30 27 C -1.217678 -3.335496 -0.107073 0
M  V30 28 C -1.847799 -3.573414 1.114391 0
M  V30 29 C -3.155057 -4.008829 1.186351 0
M  V30 30 C -3.899317 -4.228242 0.023159 0
M  V30 31 C -3.266052 -3.989642 -1.180830 0
M  V30 32 C -5.249632 -4.686385 0.446748 0
M  V30 33 C -5.326650 -4.040890 1.832620 0
M  V30 34 O -3.988661 -4.311108 2.274595 0
M  V30 35 C -0.806453 -2.308394 -3.168913 0
M  V30 36 C -0.304692 -1.142739 -2.639914 0
M  V30 37 C 2.391702 2.490846 0.100274 0
M  V30 38 H -0.537518 0.014671 5.305671 0
M  V30 39 H -0.182189 -1.725037 4.991536 0
M  V30 40 H -1.393720 -0.830832 3.918097 0
M  V30 41 H 1.358391 -0.447163 6.104343 0
M  V30 42 H 3.588553 0.107290 6.965219 0
M  V30 43 H 5.340821 0.917909 5.351442 0
M  V30 44 H 1.946198 -0.190798 1.273994 0
M  V30 45 H 3.558478 0.501862 1.227292 0
M  V30 46 H 0.000373 1.215562 1.482226 0
M  V30 47 H 0.581430 2.274532 2.797851 0
M  V30 48 H -1.132787 3.162447 1.218892 0
M  V30 49 H 0.197260 4.261782 1.634352 0
M  V30 50 H 0.458868 4.547081 -0.592184 0
M  V30 51 H -0.705936 3.286675 -0.990958 0
M  V30 52 H 1.820151 3.196538 -1.810990 0
M  V30 53 H 0.304053 0.768631 -0.852368 0
M  V30 54 H 1.106411 0.234390 -5.404727 0
M  V30 55 H 0.178990 -1.898494 -6.333231 0
M  V30 56 H -1.226434 -4.215298 -5.693848 0
M  V30 57 H -0.218648 -3.000443 -0.257440 0
M  V30 58 H -1.253373 -3.397327 2.006802 0
M  V30 59 H -3.917865 -4.185506 -2.033178 0
M  V30 60 H -6.051507 -4.348117 -0.214259 0
M  V30 61 H -5.245254 -5.779263 0.619431 0
M  V30 62 H -5.389544 -2.946804 1.689861 0
M  V30 63 H -6.090860 -4.484965 2.468780 0
M  V30 64 H -0.463111 -0.967142 -1.589582 0
M  V30 65 H 2.732902 3.530587 0.377080 0
M  V30 66 H 3.311282 1.991055 -0.259801 0
M  V30 END ATOM
M  V30 BEGIN BOND
M  V30 1 1 1 2
M  V30 2 1 2 3
M  V30 3 2 3 4
M  V30 4 1 4 5
M  V30 5 2 5 6
M  V30 6 1 6 7
M  V30 7 1 7 8
M  V30 8 2 7 9
M  V30 9 1 9 10
M  V30 10 1 10 11
M  V30 11 1 11 12
M  V30 12 1 12 13
M  V30 13 1 13 14
M  V30 14 1 14 15
M  V30 15 1 15 16
M  V30 16 1 16 17
M  V30 17 2 17 18
M  V30 18 1 17 19
M  V30 19 2 19 20
M  V30 20 1 20 21
M  V30 21 2 21 22
M  V30 22 1 22 23
M  V30 23 1 23 24
M  V30 24 2 24 25
M  V30 25 1 25 26
M  V30 26 2 26 27
M  V30 27 1 27 28
M  V30 28 2 28 29
M  V30 29 1 29 30
M  V30 30 2 30 31
M  V30 31 1 30 32
M  V30 32 1 32 33
M  V30 33 1 33 34
M  V30 34 1 25 35
M  V30 35 2 35 36
M  V30 36 1 15 37
M  V30 37 1 9 3
M  V30 38 1 37 11
M  V30 39 1 36 19
M  V30 40 1 35 22
M  V30 41 1 31 26
M  V30 42 1 34 29
M  V30 43 1 1 38
M  V30 44 1 1 39
M  V30 45 1 1 40
M  V30 46 1 4 41
M  V30 47 1 5 42
M  V30 48 1 6 43
M  V30 49 1 10 44
M  V30 50 1 10 45
M  V30 51 1 12 46
M  V30 52 1 12 47
M  V30 53 1 13 48
M  V30 54 1 13 49
M  V30 55 1 14 50
M  V30 56 1 14 51
M  V30 57 1 15 52
M  V30 58 1 16 53
M  V30 59 1 20 54
M  V30 60 1 21 55
M  V30 61 1 23 56
M  V30 62 1 27 57
M  V30 63 1 28 58
M  V30 64 1 31 59
M  V30 65 1 32 60
M  V30 66 1 32 61
M  V30 67 1 33 62
M  V30 68 1 33 63
M  V30 69 1 36 64
M  V30 70 1 37 65
M  V30 71 1 37 66
M  V30 END BOND
M  V30 END CTAB
M  END
>  <Dataset>  (488) 
ChEMBL_Kinases

>  <Ligand_Instance>  (488) 
nan

>  <PDB_ID>  (488) 
nan

>  <Standardized_SMILES>  (488) 
COc1cccc(F)c1CN1CCCC(NC(=O)c2ccc3[nH]nc(-c4ccc5c(c4)CCO5)c3c2)C1

>  <Name>  (488) 
nan

>  <Pocket>  (488) 
nan

>  <ATP_Site>  (488) 
nan

>  <Peripheral>  (488) 
nan

>  <Num_H_Atoms_ProtBoundConf>  (488) 
nan

>  <Num_Resolved_Atoms>  (488) 
nan

>  <Num_Not_Resolved_Atoms>  (488) 
nan

$$$$
CHEMBL3654481
     RDKit          3D

  0  0  0  0  0  0  0  0  0  0999 V3000
M  V30 BEGIN CTAB
M  V30 COUNTS 59 63 0 0 0
M  V30 BEGIN ATOM
M  V30 1 O 0.520830 -1.030404 0.809216 0
M  V30 2 C -0.445593 -1.309989 1.549699 0
M  V30 3 N -0.269018 -0.987564 2.944621 0
M  V30 4 C 0.929861 -0.393688 3.419123 0 CFG=2
M  V30 5 C 1.698112 -1.176426 4.438613 0
M  V30 6 C 2.868541 -0.343478 4.902680 0
M  V30 7 C 3.120205 0.857876 4.002085 0
M  V30 8 N 1.978385 1.692203 4.047236 0
M  V30 9 C 2.041922 2.979237 3.472951 0
M  V30 10 C 2.364517 3.057507 2.040020 0
M  V30 11 C 1.345047 3.247561 1.097715 0
M  V30 12 C 1.482140 3.326719 -0.275223 0
M  V30 13 C 2.748688 3.207275 -0.775348 0
M  V30 14 C 3.796687 3.019324 0.092291 0
M  V30 15 C 3.605847 2.948113 1.449522 0
M  V30 16 F 4.670325 2.775695 2.266967 0
M  V30 17 C 0.717818 1.014136 3.970384 0
M  V30 18 C -1.713461 -1.923942 1.128403 0
M  V30 19 C -2.807891 -2.228973 1.911253 0
M  V30 20 C -3.911717 -2.812042 1.322664 0
M  V30 21 C -3.963145 -3.102971 -0.025237 0
M  V30 22 N -4.889445 -3.657066 -0.830943 0
M  V30 23 N -4.415185 -3.704971 -2.066382 0
M  V30 24 C -3.173550 -3.189128 -2.112706 0
M  V30 25 C -2.325726 -3.067596 -3.269970 0
M  V30 26 C -1.599976 -1.958576 -3.634823 0
M  V30 27 C -0.792520 -1.873418 -4.746966 0
M  V30 28 N -0.753004 -3.003675 -5.498852 0
M  V30 29 C -1.432922 -4.122169 -5.205945 0
M  V30 30 C -1.333540 -5.326920 -6.087194 0
M  V30 31 F -1.318173 -6.447205 -5.306431 0
M  V30 32 F -2.444397 -5.377256 -6.879532 0
M  V30 33 F -0.159834 -5.293795 -6.829928 0
M  V30 34 C -2.248467 -4.187709 -4.070173 0
M  V30 35 C -2.866423 -2.799179 -0.820290 0
M  V30 36 C -1.755488 -2.214487 -0.238302 0
M  V30 37 H -0.985248 -1.161038 3.684452 0
M  V30 38 H 1.616615 -0.250066 2.555783 0
M  V30 39 H 2.054315 -2.106915 3.912628 0
M  V30 40 H 1.051039 -1.438942 5.274860 0
M  V30 41 H 2.731769 0.044125 5.931715 0
M  V30 42 H 3.797225 -0.951185 4.872970 0
M  V30 43 H 3.984882 1.379500 4.458046 0
M  V30 44 H 3.442639 0.531364 2.989381 0
M  V30 45 H 2.714503 3.612589 4.091951 0
M  V30 46 H 1.024690 3.451871 3.610754 0
M  V30 47 H 0.327609 3.341736 1.512513 0
M  V30 48 H 0.594381 3.476237 -0.868745 0
M  V30 49 H 2.873008 3.265533 -1.836057 0
M  V30 50 H 4.810491 2.924645 -0.322569 0
M  V30 51 H 0.251761 0.926937 4.967159 0
M  V30 52 H -0.019835 1.495319 3.302049 0
M  V30 53 H -2.698475 -1.975294 2.951562 0
M  V30 54 H -4.735855 -3.029160 1.976693 0
M  V30 55 H -5.817488 -3.976076 -0.465093 0
M  V30 56 H -1.669559 -1.086711 -3.000707 0
M  V30 57 H -0.243177 -0.984635 -4.992061 0
M  V30 58 H -2.769955 -5.093733 -3.874699 0
M  V30 59 H -0.935915 -2.004058 -0.914236 0
M  V30 END ATOM
M  V30 BEGIN BOND
M  V30 1 2 1 2
M  V30 2 1 2 3
M  V30 3 1 3 4
M  V30 4 1 4 5
M  V30 5 1 5 6
M  V30 6 1 6 7
M  V30 7 1 7 8
M  V30 8 1 8 9
M  V30 9 1 9 10
M  V30 10 2 10 11
M  V30 11 1 11 12
M  V30 12 2 12 13
M  V30 13 1 13 14
M  V30 14 2 14 15
M  V30 15 1 15 16
M  V30 16 1 8 17
M  V30 17 1 2 18
M  V30 18 2 18 19
M  V30 19 1 19 20
M  V30 20 2 20 21
M  V30 21 1 21 22
M  V30 22 1 22 23
M  V30 23 2 23 24
M  V30 24 1 24 25
M  V30 25 2 25 26
M  V30 26 1 26 27
M  V30 27 2 27 28
M  V30 28 1 28 29
M  V30 29 1 29 30
M  V30 30 1 30 31
M  V30 31 1 30 32
M  V30 32 1 30 33
M  V30 33 2 29 34
M  V30 34 1 24 35
M  V30 35 2 35 36
M  V30 36 1 17 4
M  V30 37 1 36 18
M  V30 38 1 15 10
M  V30 39 1 35 21
M  V30 40 1 34 25
M  V30 41 1 3 37
M  V30 42 1 4 38 CFG=3
M  V30 43 1 5 39
M  V30 44 1 5 40
M  V30 45 1 6 41
M  V30 46 1 6 42
M  V30 47 1 7 43
M  V30 48 1 7 44
M  V30 49 1 9 45
M  V30 50 1 9 46
M  V30 51 1 11 47
M  V30 52 1 12 48
M  V30 53 1 13 49
M  V30 54 1 14 50
M  V30 55 1 17 51
M  V30 56 1 17 52
M  V30 57 1 19 53
M  V30 58 1 20 54
M  V30 59 1 22 55
M  V30 60 1 26 56
M  V30 61 1 27 57
M  V30 62 1 34 58
M  V30 63 1 36 59
M  V30 END BOND
M  V30 END CTAB
M  END
>  <Dataset>  (489) 
ChEMBL_Kinases

>  <Ligand_Instance>  (489) 
nan

>  <PDB_ID>  (489) 
nan

>  <Standardized_SMILES>  (489) 
O=C(N[C@@H]1CCCN(Cc2ccccc2F)C1)c1ccc2[nH]nc(-c3ccnc(C(F)(F)F)c3)c2c1

>  <Name>  (489) 
nan

>  <Pocket>  (489) 
nan

>  <ATP_Site>  (489) 
nan

>  <Peripheral>  (489) 
nan

>  <Num_H_Atoms_ProtBoundConf>  (489) 
nan

>  <Num_Resolved_Atoms>  (489) 
nan

>  <Num_Not_Resolved_Atoms>  (489) 
nan

$$$$
CHEMBL3654480
     RDKit          3D

  0  0  0  0  0  0  0  0  0  0999 V3000
M  V30 BEGIN CTAB
M  V30 COUNTS 59 63 0 0 0
M  V30 BEGIN ATOM
M  V30 1 C 3.505584 -4.579253 5.265898 0
M  V30 2 C 2.871492 -3.271324 4.932942 0
M  V30 3 C 3.589427 -2.373351 4.157379 0
M  V30 4 C 3.036098 -1.164705 3.833992 0
M  V30 5 C 3.813949 -0.242235 3.018539 0
M  V30 6 N 5.131356 0.016832 3.248758 0
M  V30 7 N 5.547718 0.888986 2.344015 0
M  V30 8 C 4.537562 1.222032 1.509753 0
M  V30 9 C 4.395729 2.055343 0.419224 0
M  V30 10 C 3.159889 2.161706 -0.229338 0
M  V30 11 C 2.054075 1.447871 0.191404 0
M  V30 12 C 0.806170 1.625047 -0.550132 0
M  V30 13 O 0.831232 2.421694 -1.521323 0
M  V30 14 N -0.382197 0.929570 -0.191666 0
M  V30 15 C -1.576896 1.133337 -0.944071 0 CFG=2
M  V30 16 C -2.636320 1.696499 -0.019764 0
M  V30 17 C -4.019192 1.576085 -0.560582 0
M  V30 18 C -3.995147 1.248692 -2.043655 0
M  V30 19 N -3.339220 -0.008793 -2.205341 0
M  V30 20 C -4.183638 -1.151229 -2.314322 0
M  V30 21 C -3.308099 -2.365766 -2.471166 0
M  V30 22 C -3.119901 -3.214404 -1.400349 0
M  V30 23 C -2.342248 -4.351299 -1.430537 0
M  V30 24 C -1.698174 -4.671783 -2.623119 0
M  V30 25 C -1.875083 -3.836603 -3.700292 0
M  V30 26 C -2.659009 -2.706229 -3.640316 0
M  V30 27 F -2.821875 -1.898019 -4.705465 0
M  V30 28 C -2.133332 -0.184034 -1.466624 0
M  V30 29 C 2.204719 0.617012 1.282543 0
M  V30 30 C 3.425619 0.508562 1.927526 0
M  V30 31 C 1.785481 -0.844579 4.271896 0
M  V30 32 C 1.097793 -1.758421 5.040794 0
M  V30 33 N 1.647365 -2.938958 5.352259 0
M  V30 34 H 4.394917 -4.346447 5.901273 0
M  V30 35 H 2.805906 -5.236056 5.785354 0
M  V30 36 H 3.912046 -5.015579 4.329704 0
M  V30 37 H 4.583764 -2.610875 3.800639 0
M  V30 38 H 6.511132 1.281561 2.261069 0
M  V30 39 H 5.270023 2.587437 0.126450 0
M  V30 40 H 3.137229 2.828012 -1.063284 0
M  V30 41 H -0.409995 0.266913 0.613394 0
M  V30 42 H -1.455251 1.857926 -1.778148 0
M  V30 43 H -2.586392 1.128299 0.940573 0
M  V30 44 H -2.418592 2.772362 0.190144 0
M  V30 45 H -4.596908 2.509122 -0.389907 0
M  V30 46 H -4.548299 0.725499 -0.082753 0
M  V30 47 H -5.061848 1.096903 -2.328775 0
M  V30 48 H -3.493191 2.015609 -2.639749 0
M  V30 49 H -4.812395 -1.070162 -3.228456 0
M  V30 50 H -4.791147 -1.288828 -1.414429 0
M  V30 51 H -3.622563 -2.961297 -0.474753 0
M  V30 52 H -2.269544 -4.948498 -0.510436 0
M  V30 53 H -1.100437 -5.574141 -2.593079 0
M  V30 54 H -1.361860 -4.106280 -4.623617 0
M  V30 55 H -2.259643 -0.844736 -0.586038 0
M  V30 56 H -1.320452 -0.647804 -2.064295 0
M  V30 57 H 1.346761 0.053070 1.620700 0
M  V30 58 H 1.348843 0.104421 4.019431 0
M  V30 59 H 0.115838 -1.579649 5.419675 0
M  V30 END ATOM
M  V30 BEGIN BOND
M  V30 1 1 1 2
M  V30 2 2 2 3
M  V30 3 1 3 4
M  V30 4 1 4 5
M  V30 5 2 5 6
M  V30 6 1 6 7
M  V30 7 1 7 8
M  V30 8 2 8 9
M  V30 9 1 9 10
M  V30 10 2 10 11
M  V30 11 1 11 12
M  V30 12 2 12 13
M  V30 13 1 12 14
M  V30 14 1 14 15
M  V30 15 1 15 16
M  V30 16 1 16 17
M  V30 17 1 17 18
M  V30 18 1 18 19
M  V30 19 1 19 20
M  V30 20 1 20 21
M  V30 21 2 21 22
M  V30 22 1 22 23
M  V30 23 2 23 24
M  V30 24 1 24 25
M  V30 25 2 25 26
M  V30 26 1 26 27
M  V30 27 1 19 28
M  V30 28 1 11 29
M  V30 29 2 29 30
M  V30 30 2 4 31
M  V30 31 1 31 32
M  V30 32 2 32 33
M  V30 33 1 33 2
M  V30 34 1 30 5
M  V30 35 1 30 8
M  V30 36 1 28 15
M  V30 37 1 26 21
M  V30 38 1 1 34
M  V30 39 1 1 35
M  V30 40 1 1 36
M  V30 41 1 3 37
M  V30 42 1 7 38
M  V30 43 1 9 39
M  V30 44 1 10 40
M  V30 45 1 14 41
M  V30 46 1 15 42 CFG=3
M  V30 47 1 16 43
M  V30 48 1 16 44
M  V30 49 1 17 45
M  V30 50 1 17 46
M  V30 51 1 18 47
M  V30 52 1 18 48
M  V30 53 1 20 49
M  V30 54 1 20 50
M  V30 55 1 22 51
M  V30 56 1 23 52
M  V30 57 1 24 53
M  V30 58 1 25 54
M  V30 59 1 28 55
M  V30 60 1 28 56
M  V30 61 1 29 57
M  V30 62 1 31 58
M  V30 63 1 32 59
M  V30 END BOND
M  V30 END CTAB
M  END
>  <Dataset>  (490) 
ChEMBL_Kinases

>  <Ligand_Instance>  (490) 
nan

>  <PDB_ID>  (490) 
nan

>  <Standardized_SMILES>  (490) 
Cc1cc(-c2n[nH]c3ccc(C(=O)N[C@@H]4CCCN(Cc5ccccc5F)C4)cc23)ccn1

>  <Name>  (490) 
nan

>  <Pocket>  (490) 
nan

>  <ATP_Site>  (490) 
nan

>  <Peripheral>  (490) 
nan

>  <Num_H_Atoms_ProtBoundConf>  (490) 
nan

>  <Num_Resolved_Atoms>  (490) 
nan

>  <Num_Not_Resolved_Atoms>  (490) 
nan

$$$$
CHEMBL3654479
     RDKit          3D

  0  0  0  0  0  0  0  0  0  0999 V3000
M  V30 BEGIN CTAB
M  V30 COUNTS 62 66 0 0 0
M  V30 BEGIN ATOM
M  V30 1 C 4.173542 -2.570055 4.463125 0
M  V30 2 C 4.058054 -1.285212 5.282995 0
M  V30 3 C 3.042554 -0.416005 4.631819 0
M  V30 4 C 3.394140 0.501550 3.659340 0
M  V30 5 C 2.428807 1.300338 3.068052 0
M  V30 6 C 2.702088 2.295642 2.037397 0
M  V30 7 N 3.734106 3.142804 2.155289 0
M  V30 8 N 3.780994 3.957158 1.093091 0
M  V30 9 C 2.769592 3.645723 0.263688 0
M  V30 10 C 2.287045 4.090671 -0.949047 0
M  V30 11 C 1.177739 3.521559 -1.546011 0
M  V30 12 C 0.495392 2.462936 -0.938113 0
M  V30 13 C -0.668761 1.909447 -1.625209 0
M  V30 14 O -0.978646 2.428718 -2.726558 0
M  V30 15 N -1.398195 0.839965 -1.060048 0
M  V30 16 C -2.568008 0.183184 -1.612366 0 CFG=2
M  V30 17 C -3.764173 0.284608 -0.721727 0
M  V30 18 C -4.845816 -0.614865 -1.240302 0
M  V30 19 C -4.330472 -2.042581 -1.291283 0
M  V30 20 N -3.268131 -2.093365 -2.219440 0
M  V30 21 C -2.877521 -3.356573 -2.735014 0
M  V30 22 C -2.353636 -4.296256 -1.721315 0
M  V30 23 C -0.964904 -4.394723 -1.647233 0
M  V30 24 C -0.286155 -5.200690 -0.759391 0
M  V30 25 C -0.970990 -5.970900 0.124219 0
M  V30 26 C -2.347273 -5.899558 0.079746 0
M  V30 27 C -3.011494 -5.089899 -0.813020 0
M  V30 28 F -4.361435 -5.040829 -0.856498 0
M  V30 29 C -2.161658 -1.221118 -1.916096 0
M  V30 30 C 0.978481 2.018905 0.274067 0
M  V30 31 C 2.080286 2.601784 0.842803 0
M  V30 32 C 1.095292 1.161174 3.472571 0
M  V30 33 C 0.773525 0.227603 4.454734 0
M  V30 34 N 1.738330 -0.531132 5.006816 0
M  V30 35 H 5.014001 -2.483431 3.733911 0
M  V30 36 H 3.212724 -2.710675 3.927090 0
M  V30 37 H 4.315825 -3.449372 5.130226 0
M  V30 38 H 3.676354 -1.532981 6.301840 0
M  V30 39 H 5.053078 -0.760974 5.321160 0
M  V30 40 H 4.419514 0.619337 3.337607 0
M  V30 41 H 4.453662 4.736420 0.857364 0
M  V30 42 H 2.836935 4.914440 -1.397957 0
M  V30 43 H 0.892266 3.965342 -2.511665 0
M  V30 44 H -1.160136 0.393982 -0.148302 0
M  V30 45 H -2.797010 0.679376 -2.572736 0
M  V30 46 H -4.159955 1.335277 -0.826173 0
M  V30 47 H -3.559861 0.009248 0.326315 0
M  V30 48 H -5.065530 -0.297392 -2.278949 0
M  V30 49 H -5.726690 -0.602194 -0.591434 0
M  V30 50 H -5.170750 -2.662340 -1.720389 0
M  V30 51 H -4.125535 -2.441830 -0.297304 0
M  V30 52 H -2.144099 -3.269835 -3.576705 0
M  V30 53 H -3.773868 -3.822294 -3.210459 0
M  V30 54 H -0.329971 -3.820567 -2.309219 0
M  V30 55 H 0.792490 -5.245121 -0.737747 0
M  V30 56 H -0.483316 -6.608544 0.828229 0
M  V30 57 H -2.961138 -6.493495 0.763061 0
M  V30 58 H -1.564213 -1.584736 -1.066843 0
M  V30 59 H -1.505322 -1.192504 -2.828488 0
M  V30 60 H 0.466730 1.201988 0.760775 0
M  V30 61 H 0.249375 1.723405 3.090391 0
M  V30 62 H -0.209439 0.027223 4.849027 0
M  V30 END ATOM
M  V30 BEGIN BOND
M  V30 1 1 1 2
M  V30 2 1 2 3
M  V30 3 2 3 4
M  V30 4 1 4 5
M  V30 5 1 5 6
M  V30 6 2 6 7
M  V30 7 1 7 8
M  V30 8 1 8 9
M  V30 9 2 9 10
M  V30 10 1 10 11
M  V30 11 2 11 12
M  V30 12 1 12 13
M  V30 13 2 13 14
M  V30 14 1 13 15
M  V30 15 1 15 16
M  V30 16 1 16 17
M  V30 17 1 17 18
M  V30 18 1 18 19
M  V30 19 1 19 20
M  V30 20 1 20 21
M  V30 21 1 21 22
M  V30 22 2 22 23
M  V30 23 1 23 24
M  V30 24 2 24 25
M  V30 25 1 25 26
M  V30 26 2 26 27
M  V30 27 1 27 28
M  V30 28 1 20 29
M  V30 29 1 12 30
M  V30 30 2 30 31
M  V30 31 2 5 32
M  V30 32 1 32 33
M  V30 33 2 33 34
M  V30 34 1 34 3
M  V30 35 1 31 6
M  V30 36 1 31 9
M  V30 37 1 29 16
M  V30 38 1 27 22
M  V30 39 1 1 35
M  V30 40 1 1 36
M  V30 41 1 1 37
M  V30 42 1 2 38
M  V30 43 1 2 39
M  V30 44 1 4 40
M  V30 45 1 8 41
M  V30 46 1 10 42
M  V30 47 1 11 43
M  V30 48 1 15 44
M  V30 49 1 16 45 CFG=3
M  V30 50 1 17 46
M  V30 51 1 17 47
M  V30 52 1 18 48
M  V30 53 1 18 49
M  V30 54 1 19 50
M  V30 55 1 19 51
M  V30 56 1 21 52
M  V30 57 1 21 53
M  V30 58 1 23 54
M  V30 59 1 24 55
M  V30 60 1 25 56
M  V30 61 1 26 57
M  V30 62 1 29 58
M  V30 63 1 29 59
M  V30 64 1 30 60
M  V30 65 1 32 61
M  V30 66 1 33 62
M  V30 END BOND
M  V30 END CTAB
M  END
>  <Dataset>  (491) 
ChEMBL_Kinases

>  <Ligand_Instance>  (491) 
nan

>  <PDB_ID>  (491) 
nan

>  <Standardized_SMILES>  (491) 
CCc1cc(-c2n[nH]c3ccc(C(=O)N[C@@H]4CCCN(Cc5ccccc5F)C4)cc23)ccn1

>  <Name>  (491) 
nan

>  <Pocket>  (491) 
nan

>  <ATP_Site>  (491) 
nan

>  <Peripheral>  (491) 
nan

>  <Num_H_Atoms_ProtBoundConf>  (491) 
nan

>  <Num_Resolved_Atoms>  (491) 
nan

>  <Num_Not_Resolved_Atoms>  (491) 
nan

$$$$
CHEMBL3654478
     RDKit          3D

  0  0  0  0  0  0  0  0  0  0999 V3000
M  V30 BEGIN CTAB
M  V30 COUNTS 63 68 0 0 0
M  V30 BEGIN ATOM
M  V30 1 O -0.574153 1.324902 -1.986229 0
M  V30 2 C -0.627139 0.176966 -1.471239 0
M  V30 3 N 0.473734 -0.254629 -0.680933 0
M  V30 4 C 1.646051 0.569869 -0.447612 0 CFG=2
M  V30 5 C 2.877333 0.010948 -1.063501 0
M  V30 6 C 3.930508 -0.221283 -0.012832 0
M  V30 7 C 4.239501 1.046409 0.756816 0
M  V30 8 N 3.027070 1.726462 1.161018 0
M  V30 9 C 2.929208 3.038179 0.571989 0
M  V30 10 C 1.712370 3.716560 1.067805 0
M  V30 11 C 0.510002 3.986312 0.474294 0
M  V30 12 C -0.486929 4.653546 1.153700 0
M  V30 13 C -0.341277 5.086506 2.453992 0
M  V30 14 C 0.880333 4.818244 3.070804 0
M  V30 15 C 1.893723 4.143127 2.389797 0
M  V30 16 F 3.010351 3.977952 3.156350 0
M  V30 17 C 1.851511 0.924308 0.971624 0
M  V30 18 C -1.790835 -0.639525 -1.706155 0
M  V30 19 C -2.785674 -0.138145 -2.518370 0
M  V30 20 C -3.952198 -0.812996 -2.832992 0
M  V30 21 C -4.057193 -2.071686 -2.255288 0
M  V30 22 N -5.065354 -2.951912 -2.382623 0
M  V30 23 N -4.762104 -4.026753 -1.671978 0
M  V30 24 C -3.552457 -3.874646 -1.065653 0
M  V30 25 C -2.825655 -4.798511 -0.198547 0
M  V30 26 C -2.706685 -6.142034 -0.570670 0
M  V30 27 C -2.015132 -7.031706 0.258493 0
M  V30 28 N -1.458965 -6.607331 1.418797 0
M  V30 29 C -1.585581 -5.316419 1.756014 0
M  V30 30 C -0.940680 -4.953999 3.054332 0
M  V30 31 C -1.590144 -3.939277 3.926237 0
M  V30 32 C -0.413893 -3.511010 3.121884 0
M  V30 33 C -2.249101 -4.379023 0.996110 0
M  V30 34 C -3.089533 -2.609514 -1.439521 0
M  V30 35 C -1.951118 -1.895097 -1.161110 0
M  V30 36 H 0.479628 -1.194429 -0.231107 0
M  V30 37 H 1.416223 1.523457 -1.015758 0
M  V30 38 H 3.258333 0.635324 -1.893174 0
M  V30 39 H 2.653576 -1.005332 -1.492624 0
M  V30 40 H 3.647142 -1.004963 0.696027 0
M  V30 41 H 4.874859 -0.536512 -0.508324 0
M  V30 42 H 4.768656 0.704113 1.671438 0
M  V30 43 H 4.948630 1.683683 0.194154 0
M  V30 44 H 3.857495 3.596179 0.876627 0
M  V30 45 H 2.890293 2.982988 -0.546795 0
M  V30 46 H 0.458678 3.628473 -0.542448 0
M  V30 47 H -1.406409 4.827380 0.617307 0
M  V30 48 H -1.154634 5.607333 2.944268 0
M  V30 49 H 0.960449 5.170841 4.088764 0
M  V30 50 H 1.874226 -0.015418 1.561503 0
M  V30 51 H 0.992155 1.567404 1.281572 0
M  V30 52 H -2.693402 0.858656 -2.970246 0
M  V30 53 H -4.699842 -0.365314 -3.478412 0
M  V30 54 H -5.943519 -2.863601 -2.921693 0
M  V30 55 H -3.132807 -6.519875 -1.482568 0
M  V30 56 H -1.939180 -8.073702 -0.057060 0
M  V30 57 H -0.338805 -5.732173 3.556084 0
M  V30 58 H -1.414752 -4.028470 5.014441 0
M  V30 59 H -2.594268 -3.587366 3.644175 0
M  V30 60 H 0.567625 -3.337883 3.605399 0
M  V30 61 H -0.629297 -2.809484 2.316545 0
M  V30 62 H -2.323933 -3.347874 1.314924 0
M  V30 63 H -1.192479 -2.320799 -0.517527 0
M  V30 END ATOM
M  V30 BEGIN BOND
M  V30 1 2 1 2
M  V30 2 1 2 3
M  V30 3 1 3 4
M  V30 4 1 4 5
M  V30 5 1 5 6
M  V30 6 1 6 7
M  V30 7 1 7 8
M  V30 8 1 8 9
M  V30 9 1 9 10
M  V30 10 2 10 11
M  V30 11 1 11 12
M  V30 12 2 12 13
M  V30 13 1 13 14
M  V30 14 2 14 15
M  V30 15 1 15 16
M  V30 16 1 8 17
M  V30 17 1 2 18
M  V30 18 2 18 19
M  V30 19 1 19 20
M  V30 20 2 20 21
M  V30 21 1 21 22
M  V30 22 1 22 23
M  V30 23 2 23 24
M  V30 24 1 24 25
M  V30 25 2 25 26
M  V30 26 1 26 27
M  V30 27 2 27 28
M  V30 28 1 28 29
M  V30 29 1 29 30
M  V30 30 1 30 31
M  V30 31 1 31 32
M  V30 32 2 29 33
M  V30 33 1 24 34
M  V30 34 2 34 35
M  V30 35 1 17 4
M  V30 36 1 35 18
M  V30 37 1 15 10
M  V30 38 1 34 21
M  V30 39 1 33 25
M  V30 40 1 32 30
M  V30 41 1 3 36
M  V30 42 1 4 37 CFG=3
M  V30 43 1 5 38
M  V30 44 1 5 39
M  V30 45 1 6 40
M  V30 46 1 6 41
M  V30 47 1 7 42
M  V30 48 1 7 43
M  V30 49 1 9 44
M  V30 50 1 9 45
M  V30 51 1 11 46
M  V30 52 1 12 47
M  V30 53 1 13 48
M  V30 54 1 14 49
M  V30 55 1 17 50
M  V30 56 1 17 51
M  V30 57 1 19 52
M  V30 58 1 20 53
M  V30 59 1 22 54
M  V30 60 1 26 55
M  V30 61 1 27 56
M  V30 62 1 30 57
M  V30 63 1 31 58
M  V30 64 1 31 59
M  V30 65 1 32 60
M  V30 66 1 32 61
M  V30 67 1 33 62
M  V30 68 1 35 63
M  V30 END BOND
M  V30 END CTAB
M  END
>  <Dataset>  (492) 
ChEMBL_Kinases

>  <Ligand_Instance>  (492) 
nan

>  <PDB_ID>  (492) 
nan

>  <Standardized_SMILES>  (492) 
O=C(N[C@@H]1CCCN(Cc2ccccc2F)C1)c1ccc2[nH]nc(-c3ccnc(C4CC4)c3)c2c1

>  <Name>  (492) 
nan

>  <Pocket>  (492) 
nan

>  <ATP_Site>  (492) 
nan

>  <Peripheral>  (492) 
nan

>  <Num_H_Atoms_ProtBoundConf>  (492) 
nan

>  <Num_Resolved_Atoms>  (492) 
nan

>  <Num_Not_Resolved_Atoms>  (492) 
nan

$$$$
CHEMBL3654460
     RDKit          3D

  0  0  0  0  0  0  0  0  0  0999 V3000
M  V30 BEGIN CTAB
M  V30 COUNTS 56 60 0 0 0
M  V30 BEGIN ATOM
M  V30 1 O -0.875188 0.935365 1.170055 0
M  V30 2 C -0.881387 -0.266952 0.788314 0
M  V30 3 N 0.312727 -0.977908 1.073112 0
M  V30 4 C 1.450780 -0.408038 1.737837 0
M  V30 5 C 1.822142 -1.052531 3.034933 0
M  V30 6 C 3.004479 -0.285020 3.593331 0
M  V30 7 C 3.298411 0.956761 2.806600 0
M  V30 8 N 3.550168 0.655098 1.426255 0
M  V30 9 C 3.750178 1.803457 0.617967 0
M  V30 10 C 2.616716 2.756274 0.572532 0
M  V30 11 C 1.585691 2.702514 -0.349774 0
M  V30 12 C 0.551127 3.614434 -0.350800 0
M  V30 13 C 0.505521 4.632819 0.585392 0
M  V30 14 C 1.530569 4.682430 1.498676 0
M  V30 15 C 2.590970 3.772321 1.523259 0
M  V30 16 C 2.686033 -0.353990 0.884378 0
M  V30 17 C -2.053616 -0.813337 0.116389 0
M  V30 18 C -3.107411 0.064186 -0.056124 0
M  V30 19 C -4.260242 -0.375662 -0.686234 0
M  V30 20 C -4.311898 -1.691920 -1.123283 0
M  V30 21 N -5.317334 -2.327182 -1.752189 0
M  V30 22 N -4.901419 -3.565359 -1.965310 0
M  V30 23 C -3.637114 -3.734022 -1.479541 0
M  V30 24 C -2.873353 -4.975101 -1.545306 0
M  V30 25 C -3.574398 -6.109560 -1.203670 0
M  V30 26 C -2.950738 -7.333115 -1.231369 0
M  V30 27 N -1.666131 -7.402972 -1.591570 0
M  V30 28 C -0.982429 -6.292976 -1.925197 0
M  V30 29 C -1.546668 -5.031906 -1.919201 0
M  V30 30 C -3.218568 -2.542277 -0.925349 0
M  V30 31 C -2.078527 -2.114747 -0.304576 0
M  V30 32 H 0.351937 -1.988873 0.771094 0
M  V30 33 H 1.172147 0.645509 1.951190 0
M  V30 34 H 2.163020 -2.107424 2.864267 0
M  V30 35 H 0.969685 -1.044406 3.761061 0
M  V30 36 H 2.787316 0.058713 4.640407 0
M  V30 37 H 3.923542 -0.884735 3.638323 0
M  V30 38 H 2.543233 1.764467 2.965566 0
M  V30 39 H 4.241810 1.386786 3.203381 0
M  V30 40 H 4.005801 1.436055 -0.414280 0
M  V30 41 H 4.663881 2.333354 0.953215 0
M  V30 42 H 1.605120 1.925285 -1.077282 0
M  V30 43 H -0.257836 3.581412 -1.065692 0
M  V30 44 H -0.290233 5.347772 0.597567 0
M  V30 45 H 1.468183 5.498502 2.227049 0
M  V30 46 H 3.331871 3.931724 2.301600 0
M  V30 47 H 2.428407 -0.139205 -0.171596 0
M  V30 48 H 3.260144 -1.311896 0.970116 0
M  V30 49 H -3.087617 1.096442 0.277786 0
M  V30 50 H -5.095257 0.313161 -0.824980 0
M  V30 51 H -6.237074 -1.952091 -2.025979 0
M  V30 52 H -4.624569 -6.094908 -0.903961 0
M  V30 53 H -3.483058 -8.250790 -0.965000 0
M  V30 54 H 0.061619 -6.361227 -2.216519 0
M  V30 55 H -1.028213 -4.119153 -2.180971 0
M  V30 56 H -1.269448 -2.791422 -0.173055 0
M  V30 END ATOM
M  V30 BEGIN BOND
M  V30 1 2 1 2
M  V30 2 1 2 3
M  V30 3 1 3 4
M  V30 4 1 4 5
M  V30 5 1 5 6
M  V30 6 1 6 7
M  V30 7 1 7 8
M  V30 8 1 8 9
M  V30 9 1 9 10
M  V30 10 2 10 11
M  V30 11 1 11 12
M  V30 12 2 12 13
M  V30 13 1 13 14
M  V30 14 2 14 15
M  V30 15 1 8 16
M  V30 16 1 2 17
M  V30 17 2 17 18
M  V30 18 1 18 19
M  V30 19 2 19 20
M  V30 20 1 20 21
M  V30 21 1 21 22
M  V30 22 2 22 23
M  V30 23 1 23 24
M  V30 24 2 24 25
M  V30 25 1 25 26
M  V30 26 2 26 27
M  V30 27 1 27 28
M  V30 28 2 28 29
M  V30 29 1 23 30
M  V30 30 2 30 31
M  V30 31 1 16 4
M  V30 32 1 31 17
M  V30 33 1 15 10
M  V30 34 1 30 20
M  V30 35 1 29 24
M  V30 36 1 3 32
M  V30 37 1 4 33
M  V30 38 1 5 34
M  V30 39 1 5 35
M  V30 40 1 6 36
M  V30 41 1 6 37
M  V30 42 1 7 38
M  V30 43 1 7 39
M  V30 44 1 9 40
M  V30 45 1 9 41
M  V30 46 1 11 42
M  V30 47 1 12 43
M  V30 48 1 13 44
M  V30 49 1 14 45
M  V30 50 1 15 46
M  V30 51 1 16 47
M  V30 52 1 16 48
M  V30 53 1 18 49
M  V30 54 1 19 50
M  V30 55 1 21 51
M  V30 56 1 25 52
M  V30 57 1 26 53
M  V30 58 1 28 54
M  V30 59 1 29 55
M  V30 60 1 31 56
M  V30 END BOND
M  V30 END CTAB
M  END
>  <Dataset>  (493) 
ChEMBL_Kinases

>  <Ligand_Instance>  (493) 
nan

>  <PDB_ID>  (493) 
nan

>  <Standardized_SMILES>  (493) 
O=C(NC1CCCN(Cc2ccccc2)C1)c1ccc2[nH]nc(-c3ccncc3)c2c1

>  <Name>  (493) 
nan

>  <Pocket>  (493) 
nan

>  <ATP_Site>  (493) 
nan

>  <Peripheral>  (493) 
nan

>  <Num_H_Atoms_ProtBoundConf>  (493) 
nan

>  <Num_Resolved_Atoms>  (493) 
nan

>  <Num_Not_Resolved_Atoms>  (493) 
nan

$$$$
CHEMBL3654461
     RDKit          3D

  0  0  0  0  0  0  0  0  0  0999 V3000
M  V30 BEGIN CTAB
M  V30 COUNTS 62 67 0 0 0
M  V30 BEGIN ATOM
M  V30 1 O 0.523199 -1.733485 1.585953 0
M  V30 2 C -0.285386 -0.850569 1.225211 0
M  V30 3 N 0.141135 0.479362 1.493822 0
M  V30 4 C 1.324740 1.042230 2.102348 0
M  V30 5 C 1.023051 1.930486 3.266119 0
M  V30 6 C 2.341689 2.246421 3.950103 0
M  V30 7 C 3.405655 2.587639 2.958589 0
M  V30 8 N 2.926661 2.845162 1.641385 0
M  V30 9 C 2.649990 4.212626 1.368741 0
M  V30 10 C 2.148095 4.519137 0.026142 0
M  V30 11 C 0.821916 4.578017 -0.390309 0
M  V30 12 C 0.460112 4.876481 -1.686397 0
M  V30 13 C 1.417579 5.134137 -2.642374 0
M  V30 14 C 2.752192 5.095421 -2.309084 0
M  V30 15 C 3.058363 4.792132 -1.000273 0
M  V30 16 C 2.078914 1.872322 1.060485 0
M  V30 17 C -1.577820 -1.054023 0.578255 0
M  V30 18 C -2.479173 -0.093993 0.165329 0
M  V30 19 C -3.666078 -0.460900 -0.433468 0
M  V30 20 C -4.004804 -1.768939 -0.644928 0
M  V30 21 N -5.074557 -2.384603 -1.193613 0
M  V30 22 N -4.862881 -3.703253 -1.133131 0
M  V30 23 C -3.671586 -3.934245 -0.552713 0
M  V30 24 C -3.153509 -5.281548 -0.341234 0
M  V30 25 C -3.957852 -6.290497 0.166306 0
M  V30 26 C -3.488329 -7.590085 0.378449 0
M  V30 27 C -2.183660 -7.896384 0.078203 0
M  V30 28 C -1.350825 -6.921018 -0.428655 0
M  V30 29 C -1.846121 -5.643920 -0.627168 0
M  V30 30 C -0.006919 -7.540401 -0.655999 0
M  V30 31 C -0.062452 -8.819152 0.149402 0
M  V30 32 O -1.440068 -9.077711 0.178047 0
M  V30 33 C -3.094396 -2.704522 -0.226726 0
M  V30 34 C -1.888735 -2.402834 0.379116 0
M  V30 35 H -0.401311 1.344063 1.263269 0
M  V30 36 H 1.992003 0.210678 2.379186 0
M  V30 37 H 0.358019 1.455942 4.017417 0
M  V30 38 H 0.601965 2.880530 2.903690 0
M  V30 39 H 2.636383 1.294828 4.483156 0
M  V30 40 H 2.161118 3.050313 4.716080 0
M  V30 41 H 3.963598 3.507148 3.278760 0
M  V30 42 H 4.160354 1.760218 2.886072 0
M  V30 43 H 1.955594 4.688820 2.113375 0
M  V30 44 H 3.622447 4.769930 1.482785 0
M  V30 45 H 0.086363 4.369845 0.390458 0
M  V30 46 H -0.594772 4.908044 -1.955228 0
M  V30 47 H 1.175546 5.370874 -3.665260 0
M  V30 48 H 3.545580 5.288169 -3.014495 0
M  V30 49 H 4.108379 4.762577 -0.742003 0
M  V30 50 H 1.315215 2.312603 0.389118 0
M  V30 51 H 2.619063 1.130408 0.416199 0
M  V30 52 H -2.172060 0.924091 0.351087 0
M  V30 53 H -4.311470 0.350374 -0.725257 0
M  V30 54 H -5.870181 -1.818691 -1.567750 0
M  V30 55 H -4.977231 -6.063433 0.403963 0
M  V30 56 H -4.155977 -8.345900 0.778013 0
M  V30 57 H -1.164991 -4.907233 -1.025522 0
M  V30 58 H 0.786394 -6.903045 -0.212207 0
M  V30 59 H 0.192636 -7.704048 -1.724838 0
M  V30 60 H 0.315476 -8.646902 1.186476 0
M  V30 61 H 0.502504 -9.652897 -0.285792 0
M  V30 62 H -1.229966 -3.219038 0.677020 0
M  V30 END ATOM
M  V30 BEGIN BOND
M  V30 1 2 1 2
M  V30 2 1 2 3
M  V30 3 1 3 4
M  V30 4 1 4 5
M  V30 5 1 5 6
M  V30 6 1 6 7
M  V30 7 1 7 8
M  V30 8 1 8 9
M  V30 9 1 9 10
M  V30 10 2 10 11
M  V30 11 1 11 12
M  V30 12 2 12 13
M  V30 13 1 13 14
M  V30 14 2 14 15
M  V30 15 1 8 16
M  V30 16 1 2 17
M  V30 17 2 17 18
M  V30 18 1 18 19
M  V30 19 2 19 20
M  V30 20 1 20 21
M  V30 21 1 21 22
M  V30 22 2 22 23
M  V30 23 1 23 24
M  V30 24 2 24 25
M  V30 25 1 25 26
M  V30 26 2 26 27
M  V30 27 1 27 28
M  V30 28 2 28 29
M  V30 29 1 28 30
M  V30 30 1 30 31
M  V30 31 1 31 32
M  V30 32 1 23 33
M  V30 33 2 33 34
M  V30 34 1 16 4
M  V30 35 1 34 17
M  V30 36 1 15 10
M  V30 37 1 33 20
M  V30 38 1 29 24
M  V30 39 1 32 27
M  V30 40 1 3 35
M  V30 41 1 4 36
M  V30 42 1 5 37
M  V30 43 1 5 38
M  V30 44 1 6 39
M  V30 45 1 6 40
M  V30 46 1 7 41
M  V30 47 1 7 42
M  V30 48 1 9 43
M  V30 49 1 9 44
M  V30 50 1 11 45
M  V30 51 1 12 46
M  V30 52 1 13 47
M  V30 53 1 14 48
M  V30 54 1 15 49
M  V30 55 1 16 50
M  V30 56 1 16 51
M  V30 57 1 18 52
M  V30 58 1 19 53
M  V30 59 1 21 54
M  V30 60 1 25 55
M  V30 61 1 26 56
M  V30 62 1 29 57
M  V30 63 1 30 58
M  V30 64 1 30 59
M  V30 65 1 31 60
M  V30 66 1 31 61
M  V30 67 1 34 62
M  V30 END BOND
M  V30 END CTAB
M  END
>  <Dataset>  (494) 
ChEMBL_Kinases

>  <Ligand_Instance>  (494) 
nan

>  <PDB_ID>  (494) 
nan

>  <Standardized_SMILES>  (494) 
O=C(NC1CCCN(Cc2ccccc2)C1)c1ccc2[nH]nc(-c3ccc4c(c3)CCO4)c2c1

>  <Name>  (494) 
nan

>  <Pocket>  (494) 
nan

>  <ATP_Site>  (494) 
nan

>  <Peripheral>  (494) 
nan

>  <Num_H_Atoms_ProtBoundConf>  (494) 
nan

>  <Num_Resolved_Atoms>  (494) 
nan

>  <Num_Not_Resolved_Atoms>  (494) 
nan

$$$$
CHEMBL3654462
     RDKit          3D

  0  0  0  0  0  0  0  0  0  0999 V3000
M  V30 BEGIN CTAB
M  V30 COUNTS 62 67 0 0 0
M  V30 BEGIN ATOM
M  V30 1 O -1.971543 -0.347603 4.796358 0
M  V30 2 C -1.951035 -0.577265 3.564271 0
M  V30 3 N -0.784497 -0.297882 2.773102 0
M  V30 4 C 0.342719 0.249814 3.498228 0
M  V30 5 C 0.591159 1.699973 3.152769 0
M  V30 6 C 1.981223 2.013528 3.734447 0
M  V30 7 C 2.982562 1.325796 2.789812 0
M  V30 8 N 2.363796 0.172695 2.222215 0
M  V30 9 C 3.161523 -0.599761 1.350452 0
M  V30 10 C 3.652144 0.191352 0.198472 0
M  V30 11 C 2.956804 0.132349 -0.994847 0
M  V30 12 C 3.260599 0.825502 -2.159009 0
M  V30 13 C 4.368591 1.662078 -2.130270 0
M  V30 14 C 5.094631 1.749922 -0.950638 0
M  V30 15 C 4.740242 1.034135 0.170677 0
M  V30 16 F 5.512659 1.151392 1.251559 0
M  V30 17 C 1.611815 -0.529261 3.208881 0
M  V30 18 C -3.091288 -1.134509 2.851716 0
M  V30 19 C -4.255437 -1.250849 3.581607 0
M  V30 20 C -5.386832 -1.793311 2.954924 0
M  V30 21 C -5.345330 -2.204344 1.634175 0
M  V30 22 N -6.197179 -2.754195 0.743178 0
M  V30 23 N -5.607064 -2.954063 -0.424643 0
M  V30 24 C -4.319468 -2.550801 -0.392513 0
M  V30 25 C -3.312368 -2.599876 -1.447761 0
M  V30 26 C -3.336177 -3.853467 -2.060433 0
M  V30 27 C -2.442595 -4.117572 -3.107222 0
M  V30 28 C -1.531519 -3.143720 -3.541082 0
M  V30 29 C -1.563053 -1.907854 -2.881369 0
M  V30 30 C -2.437727 -1.634398 -1.850861 0
M  V30 31 C -0.514974 -1.059291 -3.527565 0
M  V30 32 C 0.411795 -2.095618 -4.171170 0
M  V30 33 O -0.548027 -3.093715 -4.514988 0
M  V30 34 C -4.173253 -2.085249 0.901885 0
M  V30 35 C -3.053471 -1.543605 1.538828 0
M  V30 36 H -0.620429 -0.428894 1.755363 0
M  V30 37 H 0.150812 0.214608 4.569092 0
M  V30 38 H -0.184715 2.348601 3.576490 0
M  V30 39 H 0.692927 1.901338 2.076633 0
M  V30 40 H 2.088810 3.109329 3.616026 0
M  V30 41 H 2.052873 1.637988 4.753298 0
M  V30 42 H 3.876334 1.130540 3.373002 0
M  V30 43 H 3.168850 2.057687 1.946740 0
M  V30 44 H 4.071705 -1.029214 1.840870 0
M  V30 45 H 2.587873 -1.478686 0.934265 0
M  V30 46 H 2.086374 -0.512798 -1.043209 0
M  V30 47 H 2.642850 0.703029 -3.034093 0
M  V30 48 H 4.577863 2.184560 -3.047711 0
M  V30 49 H 5.955004 2.405309 -0.948255 0
M  V30 50 H 1.263315 -1.534967 2.841687 0
M  V30 51 H 2.215259 -0.733166 4.129167 0
M  V30 52 H -4.365529 -0.950604 4.630915 0
M  V30 53 H -6.325954 -1.907039 3.490284 0
M  V30 54 H -7.193824 -2.973856 0.995996 0
M  V30 55 H -3.978876 -4.703879 -1.835921 0
M  V30 56 H -2.382249 -5.053973 -3.644344 0
M  V30 57 H -2.497144 -0.702102 -1.313041 0
M  V30 58 H -0.922419 -0.439280 -4.361941 0
M  V30 59 H 0.093743 -0.495505 -2.807212 0
M  V30 60 H 1.172631 -2.474975 -3.459676 0
M  V30 61 H 0.912115 -1.720020 -5.076609 0
M  V30 62 H -2.148808 -1.456599 0.962705 0
M  V30 END ATOM
M  V30 BEGIN BOND
M  V30 1 2 1 2
M  V30 2 1 2 3
M  V30 3 1 3 4
M  V30 4 1 4 5
M  V30 5 1 5 6
M  V30 6 1 6 7
M  V30 7 1 7 8
M  V30 8 1 8 9
M  V30 9 1 9 10
M  V30 10 2 10 11
M  V30 11 1 11 12
M  V30 12 2 12 13
M  V30 13 1 13 14
M  V30 14 2 14 15
M  V30 15 1 15 16
M  V30 16 1 8 17
M  V30 17 1 2 18
M  V30 18 2 18 19
M  V30 19 1 19 20
M  V30 20 2 20 21
M  V30 21 1 21 22
M  V30 22 1 22 23
M  V30 23 2 23 24
M  V30 24 1 24 25
M  V30 25 2 25 26
M  V30 26 1 26 27
M  V30 27 2 27 28
M  V30 28 1 28 29
M  V30 29 2 29 30
M  V30 30 1 29 31
M  V30 31 1 31 32
M  V30 32 1 32 33
M  V30 33 1 24 34
M  V30 34 2 34 35
M  V30 35 1 17 4
M  V30 36 1 35 18
M  V30 37 1 15 10
M  V30 38 1 34 21
M  V30 39 1 30 25
M  V30 40 1 33 28
M  V30 41 1 3 36
M  V30 42 1 4 37
M  V30 43 1 5 38
M  V30 44 1 5 39
M  V30 45 1 6 40
M  V30 46 1 6 41
M  V30 47 1 7 42
M  V30 48 1 7 43
M  V30 49 1 9 44
M  V30 50 1 9 45
M  V30 51 1 11 46
M  V30 52 1 12 47
M  V30 53 1 13 48
M  V30 54 1 14 49
M  V30 55 1 17 50
M  V30 56 1 17 51
M  V30 57 1 19 52
M  V30 58 1 20 53
M  V30 59 1 22 54
M  V30 60 1 26 55
M  V30 61 1 27 56
M  V30 62 1 30 57
M  V30 63 1 31 58
M  V30 64 1 31 59
M  V30 65 1 32 60
M  V30 66 1 32 61
M  V30 67 1 35 62
M  V30 END BOND
M  V30 END CTAB
M  END
>  <Dataset>  (495) 
ChEMBL_Kinases

>  <Ligand_Instance>  (495) 
nan

>  <PDB_ID>  (495) 
nan

>  <Standardized_SMILES>  (495) 
O=C(NC1CCCN(Cc2ccccc2F)C1)c1ccc2[nH]nc(-c3ccc4c(c3)CCO4)c2c1

>  <Name>  (495) 
nan

>  <Pocket>  (495) 
nan

>  <ATP_Site>  (495) 
nan

>  <Peripheral>  (495) 
nan

>  <Num_H_Atoms_ProtBoundConf>  (495) 
nan

>  <Num_Resolved_Atoms>  (495) 
nan

>  <Num_Not_Resolved_Atoms>  (495) 
nan

$$$$
CHEMBL3654463
     RDKit          3D

  0  0  0  0  0  0  0  0  0  0999 V3000
M  V30 BEGIN CTAB
M  V30 COUNTS 59 63 0 0 0
M  V30 BEGIN ATOM
M  V30 1 C 0.959614 0.687034 2.645062 0
M  V30 2 C 1.790301 -0.079165 1.642440 0
M  V30 3 C 2.860339 -0.758425 2.458384 0
M  V30 4 C 2.919962 -2.071833 2.863897 0
M  V30 5 C 4.007132 -2.472189 3.611493 0
M  V30 6 C 5.012236 -1.600162 3.952091 0
M  V30 7 C 4.951709 -0.280947 3.544419 0
M  V30 8 C 3.860213 0.129496 2.791426 0
M  V30 9 N 2.390550 0.724953 0.639892 0
M  V30 10 C 3.178540 0.038255 -0.325420 0
M  V30 11 C 3.285910 0.760847 -1.623582 0
M  V30 12 C 1.968995 1.220688 -2.173886 0
M  V30 13 C 1.043095 1.776299 -1.138683 0 CFG=1
M  V30 14 N -0.121188 0.930628 -0.956575 0
M  V30 15 C -1.411378 1.462596 -1.232458 0
M  V30 16 O -1.541749 2.649221 -1.628737 0
M  V30 17 C -2.640264 0.683561 -1.077080 0
M  V30 18 C -3.837088 1.300726 -1.374636 0
M  V30 19 C -5.060604 0.631740 -1.254524 0
M  V30 20 C -5.100612 -0.679436 -0.829754 0
M  V30 21 N -6.092911 -1.556643 -0.623059 0
M  V30 22 N -5.579908 -2.707972 -0.206004 0
M  V30 23 C -4.240695 -2.561036 -0.146456 0
M  V30 24 C -3.326541 -3.621630 0.273181 0
M  V30 25 C -3.610507 -4.866617 -0.299227 0
M  V30 26 C -2.853836 -5.992042 -0.021459 0
M  V30 27 N -1.801447 -5.881127 0.835528 0
M  V30 28 C -1.543013 -4.694846 1.371432 0
M  V30 29 C -2.252583 -3.547526 1.136760 0
M  V30 30 C -3.878494 -1.285396 -0.533818 0
M  V30 31 C -2.672901 -0.627760 -0.651673 0
M  V30 32 C 1.712725 1.888991 0.219721 0
M  V30 33 H -0.051669 0.920065 2.297210 0
M  V30 34 H 0.819014 -0.019048 3.515209 0
M  V30 35 H 1.504044 1.544033 3.073778 0
M  V30 36 H 1.165490 -0.915127 1.270080 0
M  V30 37 H 2.074934 -2.659735 2.536556 0
M  V30 38 H 4.011158 -3.503686 3.904999 0
M  V30 39 H 5.835008 -1.991122 4.542713 0
M  V30 40 H 5.768123 0.365890 3.838504 0
M  V30 41 H 3.917616 1.179351 2.528761 0
M  V30 42 H 4.203576 -0.154361 0.049546 0
M  V30 43 H 2.730448 -0.967204 -0.498611 0
M  V30 44 H 3.998284 1.607044 -1.596367 0
M  V30 45 H 3.714533 0.045057 -2.385040 0
M  V30 46 H 2.130655 1.984412 -2.958786 0
M  V30 47 H 1.420498 0.393626 -2.701277 0
M  V30 48 H 0.660628 2.747217 -1.486398 0
M  V30 49 H -0.021416 -0.055972 -0.628098 0
M  V30 50 H -3.908877 2.342859 -1.720545 0
M  V30 51 H -5.997817 1.149703 -1.498817 0
M  V30 52 H -7.098597 -1.281538 -0.793633 0
M  V30 53 H -4.433211 -5.022844 -0.988702 0
M  V30 54 H -3.097074 -6.957625 -0.483418 0
M  V30 55 H -0.697077 -4.599409 2.062062 0
M  V30 56 H -2.092788 -2.569382 1.536835 0
M  V30 57 H -1.744610 -1.122503 -0.415528 0
M  V30 58 H 2.463822 2.721817 0.117842 0
M  V30 59 H 1.018570 2.203266 1.001980 0
M  V30 END ATOM
M  V30 BEGIN BOND
M  V30 1 1 1 2
M  V30 2 1 2 3
M  V30 3 2 3 4
M  V30 4 1 4 5
M  V30 5 2 5 6
M  V30 6 1 6 7
M  V30 7 2 7 8
M  V30 8 1 2 9
M  V30 9 1 9 10
M  V30 10 1 10 11
M  V30 11 1 11 12
M  V30 12 1 12 13
M  V30 13 1 13 14
M  V30 14 1 14 15
M  V30 15 2 15 16
M  V30 16 1 15 17
M  V30 17 2 17 18
M  V30 18 1 18 19
M  V30 19 2 19 20
M  V30 20 1 20 21
M  V30 21 1 21 22
M  V30 22 2 22 23
M  V30 23 1 23 24
M  V30 24 2 24 25
M  V30 25 1 25 26
M  V30 26 2 26 27
M  V30 27 1 27 28
M  V30 28 2 28 29
M  V30 29 1 23 30
M  V30 30 2 30 31
M  V30 31 1 13 32
M  V30 32 1 8 3
M  V30 33 1 32 9
M  V30 34 1 31 17
M  V30 35 1 30 20
M  V30 36 1 29 24
M  V30 37 1 1 33
M  V30 38 1 1 34
M  V30 39 1 1 35
M  V30 40 1 2 36
M  V30 41 1 4 37
M  V30 42 1 5 38
M  V30 43 1 6 39
M  V30 44 1 7 40
M  V30 45 1 8 41
M  V30 46 1 10 42
M  V30 47 1 10 43
M  V30 48 1 11 44
M  V30 49 1 11 45
M  V30 50 1 12 46
M  V30 51 1 12 47
M  V30 52 1 13 48 CFG=3
M  V30 53 1 14 49
M  V30 54 1 18 50
M  V30 55 1 19 51
M  V30 56 1 21 52
M  V30 57 1 25 53
M  V30 58 1 26 54
M  V30 59 1 28 55
M  V30 60 1 29 56
M  V30 61 1 31 57
M  V30 62 1 32 58
M  V30 63 1 32 59
M  V30 END BOND
M  V30 END CTAB
M  END
>  <Dataset>  (496) 
ChEMBL_Kinases

>  <Ligand_Instance>  (496) 
nan

>  <PDB_ID>  (496) 
nan

>  <Standardized_SMILES>  (496) 
CC(c1ccccc1)N1CCC[C@@H](NC(=O)c2ccc3[nH]nc(-c4ccncc4)c3c2)C1

>  <Name>  (496) 
nan

>  <Pocket>  (496) 
nan

>  <ATP_Site>  (496) 
nan

>  <Peripheral>  (496) 
nan

>  <Num_H_Atoms_ProtBoundConf>  (496) 
nan

>  <Num_Resolved_Atoms>  (496) 
nan

>  <Num_Not_Resolved_Atoms>  (496) 
nan

$$$$
CHEMBL3654464
     RDKit          3D

  0  0  0  0  0  0  0  0  0  0999 V3000
M  V30 BEGIN CTAB
M  V30 COUNTS 59 64 0 0 0
M  V30 BEGIN ATOM
M  V30 1 O 1.452333 -1.058738 0.471836 0
M  V30 2 C 0.824759 -0.828710 1.530328 0
M  V30 3 N 1.537798 -0.072088 2.480900 0
M  V30 4 C 2.880303 0.376019 2.205240 0 CFG=2
M  V30 5 C 3.805604 -0.201302 3.282892 0
M  V30 6 N 5.050657 0.502231 3.344149 0
M  V30 7 C 5.320035 1.351492 2.208119 0
M  V30 8 C 4.285589 2.435876 2.008659 0
M  V30 9 C 2.936524 1.875708 2.403613 0 CFG=1
M  V30 10 C 1.881654 2.615202 1.705931 0
M  V30 11 C 1.676404 2.629683 0.360219 0
M  V30 12 C 0.659786 3.352004 -0.221975 0
M  V30 13 C -0.218566 4.112078 0.546590 0
M  V30 14 C -0.057708 4.136366 1.934496 0
M  V30 15 C 0.982494 3.387713 2.440652 0
M  V30 16 C -0.532710 -1.304008 1.762111 0
M  V30 17 C -1.247956 -1.065870 2.917855 0
M  V30 18 C -2.532649 -1.517750 3.132805 0
M  V30 19 C -3.130799 -2.251656 2.125321 0
M  V30 20 N -4.352956 -2.810873 2.056192 0
M  V30 21 N -4.438063 -3.408095 0.870260 0
M  V30 22 C -3.288652 -3.234070 0.190771 0
M  V30 23 C -3.079557 -3.780159 -1.155099 0
M  V30 24 C -3.497830 -5.090104 -1.301730 0
M  V30 25 C -3.388753 -5.786247 -2.489778 0
M  V30 26 C -2.825089 -5.092327 -3.558185 0
M  V30 27 C -2.402330 -3.783824 -3.428292 0
M  V30 28 C -2.522722 -3.108089 -2.226455 0
M  V30 29 C -1.850028 -3.318499 -4.728778 0
M  V30 30 C -2.456992 -4.319203 -5.695334 0
M  V30 31 O -2.568153 -5.473439 -4.869324 0
M  V30 32 C -2.416226 -2.490903 0.967843 0
M  V30 33 C -1.131345 -2.045993 0.737977 0
M  V30 34 H 1.115207 0.180272 3.399813 0
M  V30 35 H 3.220388 0.048874 1.203203 0
M  V30 36 H 3.273144 -0.045956 4.247229 0
M  V30 37 H 3.934360 -1.299143 3.176934 0
M  V30 38 H 5.863013 -0.116106 3.467217 0
M  V30 39 H 6.271566 1.888297 2.449542 0
M  V30 40 H 5.468106 0.821588 1.265840 0
M  V30 41 H 4.270038 2.738540 0.954402 0
M  V30 42 H 4.517663 3.342028 2.611887 0
M  V30 43 H 2.868219 2.047335 3.513859 0
M  V30 44 H 2.341163 2.049807 -0.264780 0
M  V30 45 H 0.472631 3.381764 -1.294212 0
M  V30 46 H -1.043450 4.709734 0.182295 0
M  V30 47 H -0.687383 4.694974 2.613850 0
M  V30 48 H 1.115444 3.401701 3.530839 0
M  V30 49 H -0.785563 -0.493231 3.707911 0
M  V30 50 H -3.068886 -1.315423 4.049621 0
M  V30 51 H -5.097274 -2.796493 2.765053 0
M  V30 52 H -3.941435 -5.665707 -0.495728 0
M  V30 53 H -3.714781 -6.810863 -2.608281 0
M  V30 54 H -2.217577 -2.086375 -2.041419 0
M  V30 55 H -2.161789 -2.282114 -4.964912 0
M  V30 56 H -0.756301 -3.442356 -4.739546 0
M  V30 57 H -3.474274 -3.926371 -5.952212 0
M  V30 58 H -1.836475 -4.499502 -6.581783 0
M  V30 59 H -0.631741 -2.272631 -0.196883 0
M  V30 END ATOM
M  V30 BEGIN BOND
M  V30 1 2 1 2
M  V30 2 1 2 3
M  V30 3 1 3 4
M  V30 4 1 4 5
M  V30 5 1 5 6
M  V30 6 1 6 7
M  V30 7 1 7 8
M  V30 8 1 8 9
M  V30 9 1 9 10
M  V30 10 2 10 11
M  V30 11 1 11 12
M  V30 12 2 12 13
M  V30 13 1 13 14
M  V30 14 2 14 15
M  V30 15 1 2 16
M  V30 16 2 16 17
M  V30 17 1 17 18
M  V30 18 2 18 19
M  V30 19 1 19 20
M  V30 20 1 20 21
M  V30 21 2 21 22
M  V30 22 1 22 23
M  V30 23 2 23 24
M  V30 24 1 24 25
M  V30 25 2 25 26
M  V30 26 1 26 27
M  V30 27 2 27 28
M  V30 28 1 27 29
M  V30 29 1 29 30
M  V30 30 1 30 31
M  V30 31 1 22 32
M  V30 32 2 32 33
M  V30 33 1 9 4
M  V30 34 1 15 10
M  V30 35 1 33 16
M  V30 36 1 32 19
M  V30 37 1 28 23
M  V30 38 1 31 26
M  V30 39 1 3 34
M  V30 40 1 4 35 CFG=3
M  V30 41 1 5 36
M  V30 42 1 5 37
M  V30 43 1 6 38
M  V30 44 1 7 39
M  V30 45 1 7 40
M  V30 46 1 8 41
M  V30 47 1 8 42
M  V30 48 1 9 43 CFG=1
M  V30 49 1 11 44
M  V30 50 1 12 45
M  V30 51 1 13 46
M  V30 52 1 14 47
M  V30 53 1 15 48
M  V30 54 1 17 49
M  V30 55 1 18 50
M  V30 56 1 20 51
M  V30 57 1 24 52
M  V30 58 1 25 53
M  V30 59 1 28 54
M  V30 60 1 29 55
M  V30 61 1 29 56
M  V30 62 1 30 57
M  V30 63 1 30 58
M  V30 64 1 33 59
M  V30 END BOND
M  V30 END CTAB
M  END
>  <Dataset>  (497) 
ChEMBL_Kinases

>  <Ligand_Instance>  (497) 
nan

>  <PDB_ID>  (497) 
nan

>  <Standardized_SMILES>  (497) 
O=C(N[C@@H]1CNCC[C@H]1c1ccccc1)c1ccc2[nH]nc(-c3ccc4c(c3)CCO4)c2c1

>  <Name>  (497) 
nan

>  <Pocket>  (497) 
nan

>  <ATP_Site>  (497) 
nan

>  <Peripheral>  (497) 
nan

>  <Num_H_Atoms_ProtBoundConf>  (497) 
nan

>  <Num_Resolved_Atoms>  (497) 
nan

>  <Num_Not_Resolved_Atoms>  (497) 
nan

$$$$
CHEMBL3654465
     RDKit          3D

  0  0  0  0  0  0  0  0  0  0999 V3000
M  V30 BEGIN CTAB
M  V30 COUNTS 62 67 0 0 0
M  V30 BEGIN ATOM
M  V30 1 C 1.557889 0.139157 5.654147 0
M  V30 2 N 1.342365 1.460974 5.144868 0
M  V30 3 C 2.511137 2.183026 4.772380 0
M  V30 4 C 2.820185 2.201774 3.314445 0
M  V30 5 C 1.576307 2.453995 2.469833 0 CFG=1
M  V30 6 C 1.941827 2.470142 1.043107 0
M  V30 7 C 1.852824 3.535039 0.138944 0
M  V30 8 C 2.244900 3.361399 -1.167751 0
M  V30 9 C 2.732433 2.146484 -1.622802 0
M  V30 10 C 2.826571 1.077872 -0.734069 0
M  V30 11 C 2.425924 1.265617 0.589117 0
M  V30 12 C 0.597835 1.378338 2.847223 0 CFG=2
M  V30 13 N -0.520498 1.245062 1.968074 0
M  V30 14 C -0.798004 0.070035 1.214952 0
M  V30 15 O 0.050914 -0.843124 1.407134 0
M  V30 16 C -1.941532 -0.063551 0.317246 0
M  V30 17 C -2.894724 0.926964 0.085137 0
M  V30 18 C -3.945103 0.704448 -0.786217 0
M  V30 19 C -4.072325 -0.507379 -1.446828 0
M  V30 20 N -4.988841 -0.966109 -2.331049 0
M  V30 21 N -4.628231 -2.207799 -2.649362 0
M  V30 22 C -3.508094 -2.561842 -1.997176 0
M  V30 23 C -2.835997 -3.852723 -2.110987 0
M  V30 24 C -3.604725 -5.016395 -2.072728 0
M  V30 25 C -2.986247 -6.259541 -2.179385 0
M  V30 26 C -1.603714 -6.387624 -2.325514 0
M  V30 27 C -0.860431 -5.223285 -2.361146 0
M  V30 28 C -1.469815 -3.989682 -2.255754 0
M  V30 29 C 0.584144 -5.588070 -2.521912 0
M  V30 30 C 0.585535 -7.080567 -2.302013 0
M  V30 31 O -0.769469 -7.499289 -2.449697 0
M  V30 32 C -3.114478 -1.497783 -1.211265 0
M  V30 33 C -2.068558 -1.270802 -0.341078 0
M  V30 34 C 0.209411 1.601676 4.284886 0
M  V30 35 H 2.521129 -0.250960 5.321661 0
M  V30 36 H 0.697486 -0.495920 5.299626 0
M  V30 37 H 1.474042 0.184075 6.770573 0
M  V30 38 H 2.533222 3.218787 5.176239 0
M  V30 39 H 3.381791 1.678017 5.281016 0
M  V30 40 H 3.524135 3.047501 3.119370 0
M  V30 41 H 3.287199 1.277659 2.930537 0
M  V30 42 H 1.197480 3.440118 2.774849 0
M  V30 43 H 1.462206 4.443010 0.580156 0
M  V30 44 H 2.132682 4.258838 -1.786428 0
M  V30 45 H 3.023978 2.073930 -2.660680 0
M  V30 46 H 3.210055 0.183075 -1.163224 0
M  V30 47 H 2.562702 0.340505 1.145603 0
M  V30 48 H 1.186404 0.416026 2.826223 0
M  V30 49 H -1.174103 2.074575 1.879345 0
M  V30 50 H -2.765643 1.864420 0.618591 0
M  V30 51 H -4.649583 1.518069 -0.919569 0
M  V30 52 H -5.800868 -0.385943 -2.652308 0
M  V30 53 H -4.685973 -5.020357 -1.962069 0
M  V30 54 H -3.538995 -7.185021 -2.154968 0
M  V30 55 H -0.849295 -3.103579 -2.288499 0
M  V30 56 H 0.857386 -5.317118 -3.557896 0
M  V30 57 H 1.235497 -5.031098 -1.832150 0
M  V30 58 H 1.274426 -7.608387 -2.987340 0
M  V30 59 H 0.913123 -7.309653 -1.269740 0
M  V30 60 H -1.355508 -2.057292 -0.188760 0
M  V30 61 H -0.156856 2.655442 4.374621 0
M  V30 62 H -0.548716 0.862602 4.624167 0
M  V30 END ATOM
M  V30 BEGIN BOND
M  V30 1 1 1 2
M  V30 2 1 2 3
M  V30 3 1 3 4
M  V30 4 1 4 5
M  V30 5 1 5 6
M  V30 6 2 6 7
M  V30 7 1 7 8
M  V30 8 2 8 9
M  V30 9 1 9 10
M  V30 10 2 10 11
M  V30 11 1 5 12
M  V30 12 1 12 13
M  V30 13 1 13 14
M  V30 14 2 14 15
M  V30 15 1 14 16
M  V30 16 2 16 17
M  V30 17 1 17 18
M  V30 18 2 18 19
M  V30 19 1 19 20
M  V30 20 1 20 21
M  V30 21 2 21 22
M  V30 22 1 22 23
M  V30 23 2 23 24
M  V30 24 1 24 25
M  V30 25 2 25 26
M  V30 26 1 26 27
M  V30 27 2 27 28
M  V30 28 1 27 29
M  V30 29 1 29 30
M  V30 30 1 30 31
M  V30 31 1 22 32
M  V30 32 2 32 33
M  V30 33 1 12 34
M  V30 34 1 34 2
M  V30 35 1 11 6
M  V30 36 1 33 16
M  V30 37 1 32 19
M  V30 38 1 28 23
M  V30 39 1 31 26
M  V30 40 1 1 35
M  V30 41 1 1 36
M  V30 42 1 1 37
M  V30 43 1 3 38
M  V30 44 1 3 39
M  V30 45 1 4 40
M  V30 46 1 4 41
M  V30 47 1 5 42 CFG=1
M  V30 48 1 7 43
M  V30 49 1 8 44
M  V30 50 1 9 45
M  V30 51 1 10 46
M  V30 52 1 11 47
M  V30 53 1 12 48 CFG=1
M  V30 54 1 13 49
M  V30 55 1 17 50
M  V30 56 1 18 51
M  V30 57 1 20 52
M  V30 58 1 24 53
M  V30 59 1 25 54
M  V30 60 1 28 55
M  V30 61 1 29 56
M  V30 62 1 29 57
M  V30 63 1 30 58
M  V30 64 1 30 59
M  V30 65 1 33 60
M  V30 66 1 34 61
M  V30 67 1 34 62
M  V30 END BOND
M  V30 END CTAB
M  END
>  <Dataset>  (498) 
ChEMBL_Kinases

>  <Ligand_Instance>  (498) 
nan

>  <PDB_ID>  (498) 
nan

>  <Standardized_SMILES>  (498) 
CN1CC[C@@H](c2ccccc2)[C@H](NC(=O)c2ccc3[nH]nc(-c4ccc5c(c4)CCO5)c3c2)C1

>  <Name>  (498) 
nan

>  <Pocket>  (498) 
nan

>  <ATP_Site>  (498) 
nan

>  <Peripheral>  (498) 
nan

>  <Num_H_Atoms_ProtBoundConf>  (498) 
nan

>  <Num_Resolved_Atoms>  (498) 
nan

>  <Num_Not_Resolved_Atoms>  (498) 
nan

$$$$
CHEMBL3654466
     RDKit          3D

  0  0  0  0  0  0  0  0  0  0999 V3000
M  V30 BEGIN CTAB
M  V30 COUNTS 57 62 0 0 0
M  V30 BEGIN ATOM
M  V30 1 O 1.219166 -1.294577 0.187573 0
M  V30 2 C 0.610318 -0.965476 1.243773 0
M  V30 3 N 1.391317 -0.225126 2.172214 0
M  V30 4 C 2.757478 0.151064 1.991536 0 CFG=2
M  V30 5 C 3.664375 -0.411755 3.076375 0
M  V30 6 N 4.855538 0.400651 3.243021 0
M  V30 7 C 5.274643 0.902734 1.955260 0
M  V30 8 C 4.329167 1.990040 1.504902 0
M  V30 9 C 2.939749 1.653605 2.051394 0 CFG=1
M  V30 10 C 1.937322 2.399220 1.265864 0
M  V30 11 C 1.672337 2.190121 -0.072925 0
M  V30 12 C 0.723806 2.909292 -0.778229 0
M  V30 13 C -0.012453 3.894788 -0.135887 0
M  V30 14 C 0.221696 4.133773 1.198087 0
M  V30 15 C 1.177600 3.397943 1.878055 0
M  V30 16 C -0.784761 -1.313181 1.499866 0
M  V30 17 C -1.462714 -0.960550 2.648834 0
M  V30 18 C -2.782160 -1.295719 2.878652 0
M  V30 19 C -3.431313 -2.019755 1.893481 0
M  V30 20 N -4.694857 -2.491183 1.818041 0
M  V30 21 N -4.818619 -3.121876 0.662566 0
M  V30 22 C -3.658280 -3.073832 -0.024119 0
M  V30 23 C -3.498671 -3.688602 -1.339056 0
M  V30 24 C -4.020148 -4.965769 -1.448390 0
M  V30 25 C -3.963745 -5.710593 -2.620468 0
M  V30 26 C -3.354741 -5.130929 -3.715441 0
M  V30 27 C -2.830678 -3.852304 -3.612105 0
M  V30 28 C -2.892960 -3.122908 -2.442640 0
M  V30 29 O -2.280129 -3.500624 -4.833068 0
M  V30 30 C -2.566291 -4.537421 -5.758718 0
M  V30 31 O -3.136657 -5.600682 -5.015736 0
M  V30 32 C -2.751550 -2.372069 0.743917 0
M  V30 33 C -1.437840 -2.040340 0.511205 0
M  V30 34 H 0.987814 0.095076 3.072726 0
M  V30 35 H 3.200934 -0.186527 1.029961 0
M  V30 36 H 4.005727 -1.416460 2.740695 0
M  V30 37 H 3.126158 -0.542641 4.045631 0
M  V30 38 H 4.709242 1.192195 3.920495 0
M  V30 39 H 6.336138 1.252901 1.968495 0
M  V30 40 H 5.236798 0.053310 1.238220 0
M  V30 41 H 4.663760 2.986775 1.882511 0
M  V30 42 H 4.346718 2.053898 0.404694 0
M  V30 43 H 2.946399 2.026888 3.109619 0
M  V30 44 H 2.257581 1.416779 -0.555602 0
M  V30 45 H 0.556046 2.704612 -1.827151 0
M  V30 46 H -0.765125 4.488073 -0.632591 0
M  V30 47 H -0.310087 4.888026 1.780259 0
M  V30 48 H 1.369024 3.582921 2.939662 0
M  V30 49 H -0.962373 -0.405363 3.402522 0
M  V30 50 H -3.259308 -0.989714 3.800865 0
M  V30 51 H -5.452820 -2.386057 2.534725 0
M  V30 52 H -4.514315 -5.474135 -0.610851 0
M  V30 53 H -4.391602 -6.720678 -2.659489 0
M  V30 54 H -2.502855 -2.125213 -2.304165 0
M  V30 55 H -3.277771 -4.114654 -6.497070 0
M  V30 56 H -1.655426 -4.867543 -6.310583 0
M  V30 57 H -0.984589 -2.354180 -0.410318 0
M  V30 END ATOM
M  V30 BEGIN BOND
M  V30 1 2 1 2
M  V30 2 1 2 3
M  V30 3 1 3 4
M  V30 4 1 4 5
M  V30 5 1 5 6
M  V30 6 1 6 7
M  V30 7 1 7 8
M  V30 8 1 8 9
M  V30 9 1 9 10
M  V30 10 2 10 11
M  V30 11 1 11 12
M  V30 12 2 12 13
M  V30 13 1 13 14
M  V30 14 2 14 15
M  V30 15 1 2 16
M  V30 16 2 16 17
M  V30 17 1 17 18
M  V30 18 2 18 19
M  V30 19 1 19 20
M  V30 20 1 20 21
M  V30 21 2 21 22
M  V30 22 1 22 23
M  V30 23 2 23 24
M  V30 24 1 24 25
M  V30 25 2 25 26
M  V30 26 1 26 27
M  V30 27 2 27 28
M  V30 28 1 27 29
M  V30 29 1 29 30
M  V30 30 1 30 31
M  V30 31 1 22 32
M  V30 32 2 32 33
M  V30 33 1 9 4
M  V30 34 1 15 10
M  V30 35 1 33 16
M  V30 36 1 32 19
M  V30 37 1 28 23
M  V30 38 1 31 26
M  V30 39 1 3 34
M  V30 40 1 4 35 CFG=3
M  V30 41 1 5 36
M  V30 42 1 5 37
M  V30 43 1 6 38
M  V30 44 1 7 39
M  V30 45 1 7 40
M  V30 46 1 8 41
M  V30 47 1 8 42
M  V30 48 1 9 43 CFG=1
M  V30 49 1 11 44
M  V30 50 1 12 45
M  V30 51 1 13 46
M  V30 52 1 14 47
M  V30 53 1 15 48
M  V30 54 1 17 49
M  V30 55 1 18 50
M  V30 56 1 20 51
M  V30 57 1 24 52
M  V30 58 1 25 53
M  V30 59 1 28 54
M  V30 60 1 30 55
M  V30 61 1 30 56
M  V30 62 1 33 57
M  V30 END BOND
M  V30 END CTAB
M  END
>  <Dataset>  (499) 
ChEMBL_Kinases

>  <Ligand_Instance>  (499) 
nan

>  <PDB_ID>  (499) 
nan

>  <Standardized_SMILES>  (499) 
O=C(N[C@@H]1CNCC[C@H]1c1ccccc1)c1ccc2[nH]nc(-c3ccc4c(c3)OCO4)c2c1

>  <Name>  (499) 
nan

>  <Pocket>  (499) 
nan

>  <ATP_Site>  (499) 
nan

>  <Peripheral>  (499) 
nan

>  <Num_H_Atoms_ProtBoundConf>  (499) 
nan

>  <Num_Resolved_Atoms>  (499) 
nan

>  <Num_Not_Resolved_Atoms>  (499) 
nan

$$$$
CHEMBL3654467
     RDKit          3D

  0  0  0  0  0  0  0  0  0  0999 V3000
M  V30 BEGIN CTAB
M  V30 COUNTS 58 63 0 0 0
M  V30 BEGIN ATOM
M  V30 1 O 1.304113 2.733057 0.146350 0
M  V30 2 C 0.898780 1.560661 -0.041539 0
M  V30 3 N 1.345077 0.504559 0.772393 0
M  V30 4 C 2.269818 0.507822 1.891985 0 CFG=2
M  V30 5 C 3.429868 -0.406222 1.580492 0
M  V30 6 N 4.052403 -0.945406 2.747182 0
M  V30 7 C 3.885183 -0.149604 3.944939 0
M  V30 8 C 2.446936 0.100076 4.279765 0
M  V30 9 C 1.536394 -0.076416 3.082924 0 CFG=1
M  V30 10 C 0.232255 0.593467 3.296180 0
M  V30 11 C -1.028592 0.021898 3.296468 0
M  V30 12 C -2.145009 0.802335 3.513977 0
M  V30 13 C -1.986524 2.157176 3.730598 0
M  V30 14 C -0.758119 2.762677 3.738531 0
M  V30 15 C 0.361922 1.968968 3.518502 0
M  V30 16 C -0.034445 1.350220 -1.117875 0
M  V30 17 C -0.430926 2.430645 -1.876975 0
M  V30 18 C -1.329931 2.324330 -2.938818 0
M  V30 19 C -1.870588 1.103914 -3.279076 0
M  V30 20 N -2.725752 0.607295 -4.187157 0
M  V30 21 N -2.881641 -0.704003 -4.037804 0
M  V30 22 C -2.115368 -1.107470 -3.005256 0
M  V30 23 C -2.061379 -2.504235 -2.579604 0
M  V30 24 C -3.234873 -3.228088 -2.460080 0
M  V30 25 C -3.179376 -4.562286 -2.053168 0
M  V30 26 C -1.952315 -5.149401 -1.772945 0
M  V30 27 N -1.625010 -6.390706 -1.371175 0
M  V30 28 C -0.277027 -6.482198 -1.230207 0
M  V30 29 O 0.496132 -7.417787 -0.883105 0
M  V30 30 N 0.209323 -5.271549 -1.554291 0
M  V30 31 C -0.789080 -4.414779 -1.896577 0
M  V30 32 C -0.845251 -3.095253 -2.299123 0
M  V30 33 C -1.477649 0.018169 -2.522897 0
M  V30 34 C -0.586854 0.140200 -1.475054 0
M  V30 35 H 1.022935 -0.479283 0.636569 0
M  V30 36 H 2.659083 1.517690 2.101668 0
M  V30 37 H 4.162775 0.108495 0.913501 0
M  V30 38 H 3.006119 -1.235694 0.955442 0
M  V30 39 H 3.895138 -1.961413 2.910790 0
M  V30 40 H 4.422945 0.789552 3.815048 0
M  V30 41 H 4.352451 -0.760307 4.768003 0
M  V30 42 H 2.351123 1.148876 4.628787 0
M  V30 43 H 2.067903 -0.537661 5.125343 0
M  V30 44 H 1.428938 -1.161369 2.907695 0
M  V30 45 H -0.990279 -1.044840 3.113384 0
M  V30 46 H -3.094078 0.286093 3.499668 0
M  V30 47 H -2.853087 2.759725 3.898873 0
M  V30 48 H -0.684428 3.815734 3.910698 0
M  V30 49 H 1.306578 2.520925 3.539180 0
M  V30 50 H -0.083067 3.447016 -1.717672 0
M  V30 51 H -1.634822 3.187291 -3.530832 0
M  V30 52 H -3.192730 1.198490 -4.905472 0
M  V30 53 H -4.209935 -2.792423 -2.673449 0
M  V30 54 H -4.083837 -5.159346 -1.949241 0
M  V30 55 H -2.242886 -7.210737 -1.175913 0
M  V30 56 H 1.208061 -4.949097 -1.567493 0
M  V30 57 H 0.093737 -2.579902 -2.375497 0
M  V30 58 H -0.296521 -0.727738 -0.899379 0
M  V30 END ATOM
M  V30 BEGIN BOND
M  V30 1 2 1 2
M  V30 2 1 2 3
M  V30 3 1 3 4
M  V30 4 1 4 5
M  V30 5 1 5 6
M  V30 6 1 6 7
M  V30 7 1 7 8
M  V30 8 1 8 9
M  V30 9 1 9 10
M  V30 10 2 10 11
M  V30 11 1 11 12
M  V30 12 2 12 13
M  V30 13 1 13 14
M  V30 14 2 14 15
M  V30 15 1 2 16
M  V30 16 2 16 17
M  V30 17 1 17 18
M  V30 18 2 18 19
M  V30 19 1 19 20
M  V30 20 1 20 21
M  V30 21 2 21 22
M  V30 22 1 22 23
M  V30 23 2 23 24
M  V30 24 1 24 25
M  V30 25 2 25 26
M  V30 26 1 26 27
M  V30 27 1 27 28
M  V30 28 2 28 29
M  V30 29 1 28 30
M  V30 30 1 30 31
M  V30 31 2 31 32
M  V30 32 1 22 33
M  V30 33 2 33 34
M  V30 34 1 9 4
M  V30 35 1 15 10
M  V30 36 1 34 16
M  V30 37 1 33 19
M  V30 38 1 32 23
M  V30 39 1 31 26
M  V30 40 1 3 35
M  V30 41 1 4 36 CFG=1
M  V30 42 1 5 37
M  V30 43 1 5 38
M  V30 44 1 6 39
M  V30 45 1 7 40
M  V30 46 1 7 41
M  V30 47 1 8 42
M  V30 48 1 8 43
M  V30 49 1 9 44 CFG=3
M  V30 50 1 11 45
M  V30 51 1 12 46
M  V30 52 1 13 47
M  V30 53 1 14 48
M  V30 54 1 15 49
M  V30 55 1 17 50
M  V30 56 1 18 51
M  V30 57 1 20 52
M  V30 58 1 24 53
M  V30 59 1 25 54
M  V30 60 1 27 55
M  V30 61 1 30 56
M  V30 62 1 32 57
M  V30 63 1 34 58
M  V30 END BOND
M  V30 END CTAB
M  END
>  <Dataset>  (500) 
ChEMBL_Kinases

>  <Ligand_Instance>  (500) 
nan

>  <PDB_ID>  (500) 
nan

>  <Standardized_SMILES>  (500) 
O=C(N[C@@H]1CNCC[C@H]1c1ccccc1)c1ccc2[nH]nc(-c3ccc4[nH]c(=O)[nH]c4c3)c2c1

>  <Name>  (500) 
nan

>  <Pocket>  (500) 
nan

>  <ATP_Site>  (500) 
nan

>  <Peripheral>  (500) 
nan

>  <Num_H_Atoms_ProtBoundConf>  (500) 
nan

>  <Num_Resolved_Atoms>  (500) 
nan

>  <Num_Not_Resolved_Atoms>  (500) 
nan

$$$$
CHEMBL3654477
     RDKit          3D

  0  0  0  0  0  0  0  0  0  0999 V3000
M  V30 BEGIN CTAB
M  V30 COUNTS 60 64 0 0 0
M  V30 BEGIN ATOM
M  V30 1 C 1.368086 -4.441450 5.271786 0
M  V30 2 O 2.325889 -3.531783 4.708103 0
M  V30 3 C 1.787482 -2.309692 4.279212 0
M  V30 4 C 2.653364 -1.389508 3.727643 0
M  V30 5 C 2.208020 -0.163172 3.279921 0
M  V30 6 C 2.998515 0.908645 2.682765 0
M  V30 7 N 4.173385 1.379398 3.138433 0
M  V30 8 N 4.632890 2.361298 2.357799 0
M  V30 9 C 3.731593 2.537106 1.362390 0
M  V30 10 C 3.669258 3.400870 0.267623 0
M  V30 11 C 2.594542 3.365566 -0.627580 0
M  V30 12 C 1.571279 2.461858 -0.432047 0
M  V30 13 C 0.486470 2.486512 -1.405167 0
M  V30 14 O 0.528961 3.324038 -2.327956 0
M  V30 15 N -0.606377 1.580267 -1.318868 0
M  V30 16 C -1.772664 1.393419 -2.118512 0 CFG=2
M  V30 17 C -2.997279 1.572867 -1.254614 0
M  V30 18 C -3.215706 0.392767 -0.334935 0
M  V30 19 C -3.195799 -0.908090 -1.081578 0
M  V30 20 N -2.064249 -1.060306 -1.903373 0
M  V30 21 C -1.100757 -2.037027 -1.576422 0
M  V30 22 C -1.583632 -3.443000 -1.579914 0
M  V30 23 C -2.807288 -3.930408 -1.906021 0
M  V30 24 C -3.041450 -5.278831 -1.843412 0
M  V30 25 C -2.113501 -6.223464 -1.465380 0
M  V30 26 C -0.861281 -5.706404 -1.133705 0
M  V30 27 C -0.597122 -4.355866 -1.187250 0
M  V30 28 F 0.672867 -3.991654 -0.834895 0
M  V30 29 C -1.702910 0.017845 -2.727807 0
M  V30 30 C 1.628942 1.609945 0.644646 0
M  V30 31 C 2.686733 1.641744 1.529857 0
M  V30 32 C 0.863615 0.150504 3.386672 0
M  V30 33 C 0.017386 -0.797426 3.946541 0
M  V30 34 N 0.463096 -1.989980 4.379536 0
M  V30 35 H 1.731685 -5.453561 4.998409 0
M  V30 36 H 0.379737 -4.317321 4.775475 0
M  V30 37 H 1.329753 -4.358930 6.358826 0
M  V30 38 H 3.702741 -1.544221 3.605919 0
M  V30 39 H 5.513024 2.915683 2.456611 0
M  V30 40 H 4.502386 4.082896 0.173169 0
M  V30 41 H 2.641892 4.070617 -1.435081 0
M  V30 42 H -0.675576 0.863544 -0.561590 0
M  V30 43 H -1.825210 2.115910 -2.954055 0
M  V30 44 H -3.907905 1.810721 -1.835895 0
M  V30 45 H -2.797193 2.457360 -0.591777 0
M  V30 46 H -4.227115 0.479181 0.116678 0
M  V30 47 H -2.489693 0.393551 0.497546 0
M  V30 48 H -4.112792 -0.911721 -1.731508 0
M  V30 49 H -3.257038 -1.730815 -0.337887 0
M  V30 50 H -0.265009 -2.028034 -2.326081 0
M  V30 51 H -0.676015 -1.897606 -0.537250 0
M  V30 52 H -3.524324 -3.195678 -2.200473 0
M  V30 53 H -4.037561 -5.597058 -2.116621 0
M  V30 54 H -2.339003 -7.279236 -1.429552 0
M  V30 55 H -0.088074 -6.422334 -0.825972 0
M  V30 56 H -2.409308 0.034464 -3.596981 0
M  V30 57 H -0.681558 -0.120852 -3.135507 0
M  V30 58 H 0.835737 0.910034 0.791740 0
M  V30 59 H 0.299590 1.031133 3.112072 0
M  V30 60 H -1.068856 -0.679279 4.091165 0
M  V30 END ATOM
M  V30 BEGIN BOND
M  V30 1 1 1 2
M  V30 2 1 2 3
M  V30 3 2 3 4
M  V30 4 1 4 5
M  V30 5 1 5 6
M  V30 6 2 6 7
M  V30 7 1 7 8
M  V30 8 1 8 9
M  V30 9 2 9 10
M  V30 10 1 10 11
M  V30 11 2 11 12
M  V30 12 1 12 13
M  V30 13 2 13 14
M  V30 14 1 13 15
M  V30 15 1 15 16
M  V30 16 1 16 17
M  V30 17 1 17 18
M  V30 18 1 18 19
M  V30 19 1 19 20
M  V30 20 1 20 21
M  V30 21 1 21 22
M  V30 22 2 22 23
M  V30 23 1 23 24
M  V30 24 2 24 25
M  V30 25 1 25 26
M  V30 26 2 26 27
M  V30 27 1 27 28
M  V30 28 1 20 29
M  V30 29 1 12 30
M  V30 30 2 30 31
M  V30 31 2 5 32
M  V30 32 1 32 33
M  V30 33 2 33 34
M  V30 34 1 34 3
M  V30 35 1 31 6
M  V30 36 1 31 9
M  V30 37 1 29 16
M  V30 38 1 27 22
M  V30 39 1 1 35
M  V30 40 1 1 36
M  V30 41 1 1 37
M  V30 42 1 4 38
M  V30 43 1 8 39
M  V30 44 1 10 40
M  V30 45 1 11 41
M  V30 46 1 15 42
M  V30 47 1 16 43 CFG=3
M  V30 48 1 17 44
M  V30 49 1 17 45
M  V30 50 1 18 46
M  V30 51 1 18 47
M  V30 52 1 19 48
M  V30 53 1 19 49
M  V30 54 1 21 50
M  V30 55 1 21 51
M  V30 56 1 23 52
M  V30 57 1 24 53
M  V30 58 1 25 54
M  V30 59 1 26 55
M  V30 60 1 29 56
M  V30 61 1 29 57
M  V30 62 1 30 58
M  V30 63 1 32 59
M  V30 64 1 33 60
M  V30 END BOND
M  V30 END CTAB
M  END
>  <Dataset>  (501) 
ChEMBL_Kinases

>  <Ligand_Instance>  (501) 
nan

>  <PDB_ID>  (501) 
nan

>  <Standardized_SMILES>  (501) 
COc1cc(-c2n[nH]c3ccc(C(=O)N[C@@H]4CCCN(Cc5ccccc5F)C4)cc23)ccn1

>  <Name>  (501) 
nan

>  <Pocket>  (501) 
nan

>  <ATP_Site>  (501) 
nan

>  <Peripheral>  (501) 
nan

>  <Num_H_Atoms_ProtBoundConf>  (501) 
nan

>  <Num_Resolved_Atoms>  (501) 
nan

>  <Num_Not_Resolved_Atoms>  (501) 
nan

$$$$
CHEMBL3654469
     RDKit          3D

  0  0  0  0  0  0  0  0  0  0999 V3000
M  V30 BEGIN CTAB
M  V30 COUNTS 70 74 0 0 0
M  V30 BEGIN ATOM
M  V30 1 C 4.702107 -0.449636 4.175373 0
M  V30 2 C 4.738451 0.963339 3.665009 0
M  V30 3 N 3.535612 1.300512 2.905690 0
M  V30 4 C 3.700205 2.652443 2.484323 0
M  V30 5 C 2.569764 3.204334 1.663645 0
M  V30 6 C 1.738711 2.083101 1.107070 0 CFG=1
M  V30 7 C 0.861199 2.529125 -0.002622 0
M  V30 8 C -0.511678 2.465070 -0.040994 0
M  V30 9 C -1.237237 2.910883 -1.127847 0
M  V30 10 C -0.595218 3.450416 -2.244037 0
M  V30 11 C 0.787807 3.521167 -2.219657 0
M  V30 12 C 1.500468 3.063532 -1.107417 0
M  V30 13 C 2.682635 0.981503 0.683115 0 CFG=2
M  V30 14 N 1.913941 0.097526 -0.156481 0
M  V30 15 C 2.206906 -0.232532 -1.492457 0
M  V30 16 O 3.232908 0.304378 -1.960530 0
M  V30 17 C 1.428346 -1.115205 -2.320872 0
M  V30 18 C 1.889331 -1.345737 -3.616167 0
M  V30 19 C 1.169327 -2.187889 -4.463745 0
M  V30 20 C 0.005857 -2.796369 -4.037038 0
M  V30 21 N -0.890363 -3.630929 -4.590876 0
M  V30 22 N -1.811867 -3.867338 -3.672471 0
M  V30 23 C -1.562224 -3.220783 -2.526933 0
M  V30 24 C -2.475181 -3.355474 -1.392520 0
M  V30 25 C -2.824793 -2.211846 -0.699015 0
M  V30 26 C -3.691982 -2.387011 0.356895 0
M  V30 27 C -4.202907 -3.608484 0.732303 0
M  V30 28 O -5.060787 -3.950534 1.739456 0
M  V30 29 C -5.654108 -3.113545 2.684366 0
M  V30 30 C -5.312937 -3.507318 4.099060 0
M  V30 31 C -7.160882 -3.030048 2.518856 0
M  V30 32 C -3.834515 -4.755946 0.014173 0
M  V30 33 C -2.952367 -4.612935 -1.067415 0
M  V30 34 C -0.383069 -2.523717 -2.757453 0
M  V30 35 C 0.262290 -1.707639 -1.850483 0
M  V30 36 C 3.274669 0.342566 1.880335 0
M  V30 37 H 4.926491 -1.158656 3.355856 0
M  V30 38 H 3.660496 -0.659793 4.493909 0
M  V30 39 H 5.425570 -0.556436 5.013133 0
M  V30 40 H 4.857090 1.707751 4.475958 0
M  V30 41 H 5.615013 1.085848 2.996684 0
M  V30 42 H 4.673705 2.797290 2.018898 0
M  V30 43 H 3.718653 3.271998 3.426476 0
M  V30 44 H 3.030420 3.721249 0.775996 0
M  V30 45 H 1.935294 3.921754 2.183757 0
M  V30 46 H 1.108730 1.685691 1.915333 0
M  V30 47 H -0.991755 2.041839 0.834456 0
M  V30 48 H -2.312463 2.852962 -1.138783 0
M  V30 49 H -1.190203 3.782728 -3.065058 0
M  V30 50 H 1.300734 3.941163 -3.085362 0
M  V30 51 H 2.581602 3.168233 -1.197885 0
M  V30 52 H 3.507146 1.369910 0.054439 0
M  V30 53 H 1.055491 -0.329192 0.298756 0
M  V30 54 H 2.786087 -0.907830 -4.021010 0
M  V30 55 H 1.529925 -2.364941 -5.469257 0
M  V30 56 H -0.834852 -3.995012 -5.551155 0
M  V30 57 H -2.482823 -1.223401 -0.913304 0
M  V30 58 H -4.045405 -1.576342 0.979468 0
M  V30 59 H -5.270512 -2.077638 2.526263 0
M  V30 60 H -6.252561 -3.845144 4.617256 0
M  V30 61 H -4.578826 -4.360169 4.110106 0
M  V30 62 H -4.869913 -2.696538 4.695138 0
M  V30 63 H -7.423351 -3.569263 1.569747 0
M  V30 64 H -7.512942 -1.998145 2.400198 0
M  V30 65 H -7.689555 -3.559224 3.337023 0
M  V30 66 H -4.146447 -5.778896 0.181850 0
M  V30 67 H -2.613870 -5.451155 -1.678635 0
M  V30 68 H -0.102760 -1.540295 -0.858306 0
M  V30 69 H 4.252527 -0.159742 1.659541 0
M  V30 70 H 2.596615 -0.433903 2.314380 0
M  V30 END ATOM
M  V30 BEGIN BOND
M  V30 1 1 1 2
M  V30 2 1 2 3
M  V30 3 1 3 4
M  V30 4 1 4 5
M  V30 5 1 5 6
M  V30 6 1 6 7
M  V30 7 2 7 8
M  V30 8 1 8 9
M  V30 9 2 9 10
M  V30 10 1 10 11
M  V30 11 2 11 12
M  V30 12 1 6 13
M  V30 13 1 13 14
M  V30 14 1 14 15
M  V30 15 2 15 16
M  V30 16 1 15 17
M  V30 17 2 17 18
M  V30 18 1 18 19
M  V30 19 2 19 20
M  V30 20 1 20 21
M  V30 21 1 21 22
M  V30 22 2 22 23
M  V30 23 1 23 24
M  V30 24 2 24 25
M  V30 25 1 25 26
M  V30 26 2 26 27
M  V30 27 1 27 28
M  V30 28 1 28 29
M  V30 29 1 29 30
M  V30 30 1 29 31
M  V30 31 1 27 32
M  V30 32 2 32 33
M  V30 33 1 23 34
M  V30 34 2 34 35
M  V30 35 1 13 36
M  V30 36 1 36 3
M  V30 37 1 12 7
M  V30 38 1 35 17
M  V30 39 1 34 20
M  V30 40 1 33 24
M  V30 41 1 1 37
M  V30 42 1 1 38
M  V30 43 1 1 39
M  V30 44 1 2 40
M  V30 45 1 2 41
M  V30 46 1 4 42
M  V30 47 1 4 43
M  V30 48 1 5 44
M  V30 49 1 5 45
M  V30 50 1 6 46 CFG=1
M  V30 51 1 8 47
M  V30 52 1 9 48
M  V30 53 1 10 49
M  V30 54 1 11 50
M  V30 55 1 12 51
M  V30 56 1 13 52 CFG=3
M  V30 57 1 14 53
M  V30 58 1 18 54
M  V30 59 1 19 55
M  V30 60 1 21 56
M  V30 61 1 25 57
M  V30 62 1 26 58
M  V30 63 1 29 59
M  V30 64 1 30 60
M  V30 65 1 30 61
M  V30 66 1 30 62
M  V30 67 1 31 63
M  V30 68 1 31 64
M  V30 69 1 31 65
M  V30 70 1 32 66
M  V30 71 1 33 67
M  V30 72 1 35 68
M  V30 73 1 36 69
M  V30 74 1 36 70
M  V30 END BOND
M  V30 END CTAB
M  END
>  <Dataset>  (502) 
ChEMBL_Kinases

>  <Ligand_Instance>  (502) 
nan

>  <PDB_ID>  (502) 
nan

>  <Standardized_SMILES>  (502) 
CCN1CC[C@@H](c2ccccc2)[C@H](NC(=O)c2ccc3[nH]nc(-c4ccc(OC(C)C)cc4)c3c2)C1

>  <Name>  (502) 
nan

>  <Pocket>  (502) 
nan

>  <ATP_Site>  (502) 
nan

>  <Peripheral>  (502) 
nan

>  <Num_H_Atoms_ProtBoundConf>  (502) 
nan

>  <Num_Resolved_Atoms>  (502) 
nan

>  <Num_Not_Resolved_Atoms>  (502) 
nan

$$$$
CHEMBL3654470
     RDKit          3D

  0  0  0  0  0  0  0  0  0  0999 V3000
M  V30 BEGIN CTAB
M  V30 COUNTS 67 71 0 0 0
M  V30 BEGIN ATOM
M  V30 1 C 7.263129 -1.160542 4.159908 0
M  V30 2 C 7.298218 0.282129 3.621939 0
M  V30 3 C 8.742492 0.520412 3.246003 0
M  V30 4 O 6.522786 0.253453 2.456226 0
M  V30 5 C 5.314591 0.858774 2.242550 0
M  V30 6 C 4.744825 0.695363 0.997541 0
M  V30 7 C 3.515309 1.264042 0.664060 0
M  V30 8 C 2.832837 2.008146 1.573172 0
M  V30 9 C 1.552353 2.689174 1.444757 0
M  V30 10 N 1.310139 3.960009 1.888751 0
M  V30 11 N 0.047680 4.267885 1.618695 0
M  V30 12 C -0.591405 3.252591 1.003007 0
M  V30 13 C -1.846837 2.991091 0.500583 0
M  V30 14 C -2.193974 1.797276 -0.099222 0
M  V30 15 C -1.247634 0.798752 -0.211788 0
M  V30 16 C -1.458481 -0.509986 -0.815936 0
M  V30 17 O -0.638936 -1.433092 -0.999359 0
M  V30 18 N -2.768290 -0.870773 -1.297055 0
M  V30 19 C -3.228256 -2.075366 -1.926813 0 CFG=2
M  V30 20 C -3.834847 -1.883452 -3.270259 0
M  V30 21 N -4.527112 -3.113812 -3.633175 0
M  V30 22 C -4.520882 -3.202656 -5.065180 0
M  V30 23 C -3.893890 -4.278729 -3.084156 0
M  V30 24 C -4.032212 -4.342529 -1.567088 0
M  V30 25 C -4.187391 -2.894475 -1.105466 0 CFG=1
M  V30 26 C -4.029060 -2.756322 0.347852 0
M  V30 27 C -5.039418 -2.315620 1.212668 0
M  V30 28 C -4.838403 -2.201652 2.583757 0
M  V30 29 C -3.604287 -2.535401 3.089882 0
M  V30 30 C -2.545804 -2.982436 2.298350 0
M  V30 31 C -2.827442 -3.067221 0.951425 0
M  V30 32 C 0.007742 1.071678 0.296092 0
M  V30 33 C 0.361226 2.260899 0.895758 0
M  V30 34 C 3.437886 2.155630 2.828543 0
M  V30 35 C 4.643085 1.613069 3.192844 0
M  V30 36 H 7.794990 -1.848273 3.476225 0
M  V30 37 H 7.683739 -1.245524 5.164293 0
M  V30 38 H 6.176274 -1.457122 4.211673 0
M  V30 39 H 6.922829 0.923401 4.428350 0
M  V30 40 H 8.831770 1.392347 2.600727 0
M  V30 41 H 9.389867 0.580178 4.160464 0
M  V30 42 H 9.053361 -0.414795 2.694489 0
M  V30 43 H 5.233922 0.110338 0.215334 0
M  V30 44 H 3.022180 1.173140 -0.292627 0
M  V30 45 H -0.475528 5.150222 1.815207 0
M  V30 46 H -2.594762 3.767158 0.584812 0
M  V30 47 H -3.180379 1.602197 -0.491012 0
M  V30 48 H -3.599008 -0.241379 -1.232921 0
M  V30 49 H -2.313296 -2.714220 -2.042685 0
M  V30 50 H -3.127260 -1.536986 -4.048090 0
M  V30 51 H -4.687045 -1.146536 -3.159269 0
M  V30 52 H -5.179528 -4.005358 -5.452083 0
M  V30 53 H -4.907152 -2.255173 -5.541882 0
M  V30 54 H -3.513685 -3.333474 -5.483926 0
M  V30 55 H -4.428384 -5.161934 -3.495679 0
M  V30 56 H -2.834456 -4.382968 -3.406163 0
M  V30 57 H -3.075544 -4.755860 -1.188741 0
M  V30 58 H -4.895089 -4.968387 -1.264757 0
M  V30 59 H -5.210931 -2.599097 -1.372732 0
M  V30 60 H -6.006666 -2.057211 0.779189 0
M  V30 61 H -5.632081 -1.861144 3.232474 0
M  V30 62 H -3.408817 -2.458567 4.171193 0
M  V30 63 H -1.572415 -3.245698 2.690490 0
M  V30 64 H -2.032944 -3.411057 0.304582 0
M  V30 65 H 0.785496 0.306888 0.225878 0
M  V30 66 H 2.970420 2.733160 3.625066 0
M  V30 67 H 5.081145 1.745209 4.158028 0
M  V30 END ATOM
M  V30 BEGIN BOND
M  V30 1 1 1 2
M  V30 2 1 2 3
M  V30 3 1 2 4
M  V30 4 1 4 5
M  V30 5 2 5 6
M  V30 6 1 6 7
M  V30 7 2 7 8
M  V30 8 1 8 9
M  V30 9 2 9 10
M  V30 10 1 10 11
M  V30 11 1 11 12
M  V30 12 2 12 13
M  V30 13 1 13 14
M  V30 14 2 14 15
M  V30 15 1 15 16
M  V30 16 2 16 17
M  V30 17 1 16 18
M  V30 18 1 18 19
M  V30 19 1 19 20
M  V30 20 1 20 21
M  V30 21 1 21 22
M  V30 22 1 21 23
M  V30 23 1 23 24
M  V30 24 1 24 25
M  V30 25 1 25 26
M  V30 26 2 26 27
M  V30 27 1 27 28
M  V30 28 2 28 29
M  V30 29 1 29 30
M  V30 30 2 30 31
M  V30 31 1 15 32
M  V30 32 2 32 33
M  V30 33 1 8 34
M  V30 34 2 34 35
M  V30 35 1 35 5
M  V30 36 1 33 9
M  V30 37 1 33 12
M  V30 38 1 25 19
M  V30 39 1 31 26
M  V30 40 1 1 36
M  V30 41 1 1 37
M  V30 42 1 1 38
M  V30 43 1 2 39
M  V30 44 1 3 40
M  V30 45 1 3 41
M  V30 46 1 3 42
M  V30 47 1 6 43
M  V30 48 1 7 44
M  V30 49 1 11 45
M  V30 50 1 13 46
M  V30 51 1 14 47
M  V30 52 1 18 48
M  V30 53 1 19 49 CFG=3
M  V30 54 1 20 50
M  V30 55 1 20 51
M  V30 56 1 22 52
M  V30 57 1 22 53
M  V30 58 1 22 54
M  V30 59 1 23 55
M  V30 60 1 23 56
M  V30 61 1 24 57
M  V30 62 1 24 58
M  V30 63 1 25 59 CFG=3
M  V30 64 1 27 60
M  V30 65 1 28 61
M  V30 66 1 29 62
M  V30 67 1 30 63
M  V30 68 1 31 64
M  V30 69 1 32 65
M  V30 70 1 34 66
M  V30 71 1 35 67
M  V30 END BOND
M  V30 END CTAB
M  END
>  <Dataset>  (503) 
ChEMBL_Kinases

>  <Ligand_Instance>  (503) 
nan

>  <PDB_ID>  (503) 
nan

>  <Standardized_SMILES>  (503) 
CC(C)Oc1ccc(-c2n[nH]c3ccc(C(=O)N[C@@H]4CN(C)CC[C@H]4c4ccccc4)cc23)cc1

>  <Name>  (503) 
nan

>  <Pocket>  (503) 
nan

>  <ATP_Site>  (503) 
nan

>  <Peripheral>  (503) 
nan

>  <Num_H_Atoms_ProtBoundConf>  (503) 
nan

>  <Num_Resolved_Atoms>  (503) 
nan

>  <Num_Not_Resolved_Atoms>  (503) 
nan

$$$$
CHEMBL3654471
     RDKit          3D

  0  0  0  0  0  0  0  0  0  0999 V3000
M  V30 BEGIN CTAB
M  V30 COUNTS 63 67 0 0 0
M  V30 BEGIN ATOM
M  V30 1 C 6.296987 1.344281 -3.320054 0
M  V30 2 C 5.423989 0.747683 -2.231929 0
M  V30 3 C 6.161939 -0.480390 -1.720095 0
M  V30 4 O 5.195255 1.685757 -1.227388 0
M  V30 5 C 3.962619 2.109990 -0.760188 0
M  V30 6 C 2.712970 1.703944 -1.177336 0
M  V30 7 C 1.559482 2.220206 -0.612589 0
M  V30 8 C 1.635907 3.163975 0.392106 0
M  V30 9 C 0.455789 3.761589 1.046294 0
M  V30 10 N 0.197765 5.058197 1.344147 0
M  V30 11 N -0.985821 5.147734 1.934395 0
M  V30 12 C -1.569751 3.940936 2.059834 0
M  V30 13 C -2.782984 3.569394 2.604375 0
M  V30 14 C -3.119964 2.209786 2.589934 0
M  V30 15 C -2.232799 1.311009 2.037293 0
M  V30 16 C -2.639329 -0.095272 2.052151 0
M  V30 17 O -3.750099 -0.386333 2.567121 0
M  V30 18 N -1.875205 -1.175626 1.526766 0
M  V30 19 C -2.371763 -2.538381 1.593661 0 CFG=2
M  V30 20 C -1.479654 -3.316287 2.500509 0
M  V30 21 N -0.274156 -3.731671 1.901290 0
M  V30 22 C -0.082077 -3.553111 0.514799 0
M  V30 23 C -1.307636 -3.769765 -0.320968 0
M  V30 24 C -2.544095 -3.195424 0.267828 0 CFG=1
M  V30 25 C -3.599544 -4.269105 0.341651 0
M  V30 26 C -3.308423 -5.504176 0.910367 0
M  V30 27 C -4.283572 -6.493689 0.986203 0
M  V30 28 C -5.517407 -6.181660 0.477594 0
M  V30 29 C -5.886517 -4.987036 -0.100239 0
M  V30 30 C -4.881313 -4.028952 -0.154363 0
M  V30 31 C -1.029825 1.721695 1.502841 0
M  V30 32 C -0.663994 3.072556 1.502125 0
M  V30 33 C 2.904606 3.544171 0.781247 0
M  V30 34 N 4.016837 3.033711 0.223409 0
M  V30 35 H 6.627306 2.356023 -3.040284 0
M  V30 36 H 5.710776 1.410747 -4.260666 0
M  V30 37 H 7.200288 0.730492 -3.534746 0
M  V30 38 H 4.480304 0.346082 -2.682434 0
M  V30 39 H 5.666925 -0.961762 -0.864520 0
M  V30 40 H 6.163191 -1.220484 -2.548304 0
M  V30 41 H 7.240072 -0.254687 -1.509299 0
M  V30 42 H 2.693668 0.975988 -1.952684 0
M  V30 43 H 0.602431 1.898437 -0.944284 0
M  V30 44 H -1.418472 6.051256 2.266342 0
M  V30 45 H -3.454305 4.331102 3.033371 0
M  V30 46 H -4.067524 1.964948 3.021118 0
M  V30 47 H -0.965205 -0.915129 1.106767 0
M  V30 48 H -3.388167 -2.522868 2.100000 0
M  V30 49 H -2.001204 -4.149850 3.022647 0
M  V30 50 H -1.186552 -2.593194 3.332700 0
M  V30 51 H 0.560827 -3.770829 2.483120 0
M  V30 52 H 0.460757 -2.607258 0.221067 0
M  V30 53 H 0.645980 -4.356441 0.185180 0
M  V30 54 H -1.110770 -3.302322 -1.306391 0
M  V30 55 H -1.452221 -4.863073 -0.564957 0
M  V30 56 H -2.944541 -2.394561 -0.425407 0
M  V30 57 H -2.333637 -5.748155 1.305411 0
M  V30 58 H -4.052913 -7.448115 1.427733 0
M  V30 59 H -6.289441 -6.963036 0.536000 0
M  V30 60 H -6.886122 -4.823349 -0.477386 0
M  V30 61 H -5.111322 -3.061949 -0.599617 0
M  V30 62 H -0.345418 1.022283 1.075170 0
M  V30 63 H 2.961609 4.297402 1.581853 0
M  V30 END ATOM
M  V30 BEGIN BOND
M  V30 1 1 1 2
M  V30 2 1 2 3
M  V30 3 1 2 4
M  V30 4 1 4 5
M  V30 5 2 5 6
M  V30 6 1 6 7
M  V30 7 2 7 8
M  V30 8 1 8 9
M  V30 9 2 9 10
M  V30 10 1 10 11
M  V30 11 1 11 12
M  V30 12 2 12 13
M  V30 13 1 13 14
M  V30 14 2 14 15
M  V30 15 1 15 16
M  V30 16 2 16 17
M  V30 17 1 16 18
M  V30 18 1 18 19
M  V30 19 1 19 20
M  V30 20 1 20 21
M  V30 21 1 21 22
M  V30 22 1 22 23
M  V30 23 1 23 24
M  V30 24 1 24 25
M  V30 25 2 25 26
M  V30 26 1 26 27
M  V30 27 2 27 28
M  V30 28 1 28 29
M  V30 29 2 29 30
M  V30 30 1 15 31
M  V30 31 2 31 32
M  V30 32 1 8 33
M  V30 33 2 33 34
M  V30 34 1 34 5
M  V30 35 1 32 9
M  V30 36 1 32 12
M  V30 37 1 24 19
M  V30 38 1 30 25
M  V30 39 1 1 35
M  V30 40 1 1 36
M  V30 41 1 1 37
M  V30 42 1 2 38
M  V30 43 1 3 39
M  V30 44 1 3 40
M  V30 45 1 3 41
M  V30 46 1 6 42
M  V30 47 1 7 43
M  V30 48 1 11 44
M  V30 49 1 13 45
M  V30 50 1 14 46
M  V30 51 1 18 47
M  V30 52 1 19 48 CFG=1
M  V30 53 1 20 49
M  V30 54 1 20 50
M  V30 55 1 21 51
M  V30 56 1 22 52
M  V30 57 1 22 53
M  V30 58 1 23 54
M  V30 59 1 23 55
M  V30 60 1 24 56 CFG=3
M  V30 61 1 26 57
M  V30 62 1 27 58
M  V30 63 1 28 59
M  V30 64 1 29 60
M  V30 65 1 30 61
M  V30 66 1 31 62
M  V30 67 1 33 63
M  V30 END BOND
M  V30 END CTAB
M  END
>  <Dataset>  (504) 
ChEMBL_Kinases

>  <Ligand_Instance>  (504) 
nan

>  <PDB_ID>  (504) 
nan

>  <Standardized_SMILES>  (504) 
CC(C)Oc1ccc(-c2n[nH]c3ccc(C(=O)N[C@@H]4CNCC[C@H]4c4ccccc4)cc23)cn1

>  <Name>  (504) 
nan

>  <Pocket>  (504) 
nan

>  <ATP_Site>  (504) 
nan

>  <Peripheral>  (504) 
nan

>  <Num_H_Atoms_ProtBoundConf>  (504) 
nan

>  <Num_Resolved_Atoms>  (504) 
nan

>  <Num_Not_Resolved_Atoms>  (504) 
nan

$$$$
CHEMBL3654472
     RDKit          3D

  0  0  0  0  0  0  0  0  0  0999 V3000
M  V30 BEGIN CTAB
M  V30 COUNTS 66 70 0 0 0
M  V30 BEGIN ATOM
M  V30 1 C 3.110244 -2.335845 6.194955 0
M  V30 2 C 1.883069 -2.362132 5.290678 0
M  V30 3 C 1.100816 -3.623912 5.440029 0
M  V30 4 O 1.071441 -1.260530 5.554609 0
M  V30 5 C 0.815870 -0.184616 4.735682 0
M  V30 6 C 1.346488 -0.019614 3.469752 0
M  V30 7 C 1.014661 1.119829 2.730212 0
M  V30 8 C 0.163683 2.070905 3.260439 0
M  V30 9 C -0.051971 3.171172 2.339176 0
M  V30 10 N 0.034389 4.457575 2.729513 0
M  V30 11 N -0.190353 5.256916 1.701427 0
M  V30 12 C -0.430768 4.500769 0.607977 0
M  V30 13 C -0.721912 4.702902 -0.732781 0
M  V30 14 C -0.920202 3.684212 -1.632405 0
M  V30 15 C -0.826740 2.382225 -1.183379 0
M  V30 16 C -1.022455 1.338073 -2.197506 0
M  V30 17 O -0.993637 1.612183 -3.405354 0
M  V30 18 N -1.249810 -0.007473 -1.777426 0
M  V30 19 C -1.456933 -1.200272 -2.550948 0 CFG=2
M  V30 20 C -2.929064 -1.530820 -2.725881 0
M  V30 21 N -3.014375 -2.891131 -3.208325 0
M  V30 22 C -4.198668 -2.966103 -4.039231 0
M  V30 23 C -1.912466 -3.340580 -3.994587 0
M  V30 24 C -0.570540 -3.304626 -3.312593 0
M  V30 25 C -0.778781 -2.425033 -2.072188 0 CFG=1
M  V30 26 C 0.421991 -2.268027 -1.268635 0
M  V30 27 C 0.407388 -2.809131 0.028261 0
M  V30 28 C 1.468660 -2.739360 0.900120 0
M  V30 29 C 2.638287 -2.120054 0.542220 0
M  V30 30 C 2.664491 -1.585120 -0.727646 0
M  V30 31 C 1.601185 -1.650376 -1.610858 0
M  V30 32 C -0.539926 2.095512 0.137476 0
M  V30 33 C -0.349198 3.162938 0.990466 0
M  V30 34 C -0.335613 1.853593 4.526319 0
M  V30 35 N -0.018050 0.759987 5.240008 0
M  V30 36 H 3.658369 -3.307606 6.090154 0
M  V30 37 H 3.783382 -1.507857 5.894604 0
M  V30 38 H 2.816808 -2.202576 7.251721 0
M  V30 39 H 2.294292 -2.335080 4.240438 0
M  V30 40 H 1.103244 -4.239472 4.500521 0
M  V30 41 H 1.488969 -4.298099 6.251338 0
M  V30 42 H 0.055212 -3.406095 5.699735 0
M  V30 43 H 2.005177 -0.757928 3.061855 0
M  V30 44 H 1.485810 1.152318 1.764124 0
M  V30 45 H -0.192957 6.307339 1.680271 0
M  V30 46 H -0.795003 5.745985 -1.078978 0
M  V30 47 H -1.146963 3.907926 -2.667451 0
M  V30 48 H -1.298627 -0.316999 -0.767791 0
M  V30 49 H -1.123883 -0.958588 -3.602828 0
M  V30 50 H -3.420195 -0.802924 -3.402469 0
M  V30 51 H -3.370021 -1.548924 -1.697017 0
M  V30 52 H -4.771445 -3.890411 -3.811950 0
M  V30 53 H -4.848080 -2.065629 -3.924216 0
M  V30 54 H -3.955273 -3.023337 -5.120634 0
M  V30 55 H -2.114414 -4.435226 -4.187157 0
M  V30 56 H -1.894463 -2.902568 -5.014824 0
M  V30 57 H 0.142957 -2.756262 -3.965058 0
M  V30 58 H -0.186798 -4.301451 -3.018703 0
M  V30 59 H -1.527953 -3.005317 -1.469305 0
M  V30 60 H -0.480843 -3.327257 0.415403 0
M  V30 61 H 1.396948 -3.176220 1.890313 0
M  V30 62 H 3.452064 -2.075504 1.241323 0
M  V30 63 H 3.601685 -1.089183 -1.017764 0
M  V30 64 H 1.637987 -1.223664 -2.605830 0
M  V30 65 H -0.479060 1.070117 0.454848 0
M  V30 66 H -0.991346 2.652154 4.852990 0
M  V30 END ATOM
M  V30 BEGIN BOND
M  V30 1 1 1 2
M  V30 2 1 2 3
M  V30 3 1 2 4
M  V30 4 1 4 5
M  V30 5 2 5 6
M  V30 6 1 6 7
M  V30 7 2 7 8
M  V30 8 1 8 9
M  V30 9 2 9 10
M  V30 10 1 10 11
M  V30 11 1 11 12
M  V30 12 2 12 13
M  V30 13 1 13 14
M  V30 14 2 14 15
M  V30 15 1 15 16
M  V30 16 2 16 17
M  V30 17 1 16 18
M  V30 18 1 18 19
M  V30 19 1 19 20
M  V30 20 1 20 21
M  V30 21 1 21 22
M  V30 22 1 21 23
M  V30 23 1 23 24
M  V30 24 1 24 25
M  V30 25 1 25 26
M  V30 26 2 26 27
M  V30 27 1 27 28
M  V30 28 2 28 29
M  V30 29 1 29 30
M  V30 30 2 30 31
M  V30 31 1 15 32
M  V30 32 2 32 33
M  V30 33 1 8 34
M  V30 34 2 34 35
M  V30 35 1 35 5
M  V30 36 1 33 9
M  V30 37 1 33 12
M  V30 38 1 25 19
M  V30 39 1 31 26
M  V30 40 1 1 36
M  V30 41 1 1 37
M  V30 42 1 1 38
M  V30 43 1 2 39
M  V30 44 1 3 40
M  V30 45 1 3 41
M  V30 46 1 3 42
M  V30 47 1 6 43
M  V30 48 1 7 44
M  V30 49 1 11 45
M  V30 50 1 13 46
M  V30 51 1 14 47
M  V30 52 1 18 48
M  V30 53 1 19 49 CFG=3
M  V30 54 1 20 50
M  V30 55 1 20 51
M  V30 56 1 22 52
M  V30 57 1 22 53
M  V30 58 1 22 54
M  V30 59 1 23 55
M  V30 60 1 23 56
M  V30 61 1 24 57
M  V30 62 1 24 58
M  V30 63 1 25 59 CFG=1
M  V30 64 1 27 60
M  V30 65 1 28 61
M  V30 66 1 29 62
M  V30 67 1 30 63
M  V30 68 1 31 64
M  V30 69 1 32 65
M  V30 70 1 34 66
M  V30 END BOND
M  V30 END CTAB
M  END
>  <Dataset>  (505) 
ChEMBL_Kinases

>  <Ligand_Instance>  (505) 
nan

>  <PDB_ID>  (505) 
nan

>  <Standardized_SMILES>  (505) 
CC(C)Oc1ccc(-c2n[nH]c3ccc(C(=O)N[C@@H]4CN(C)CC[C@H]4c4ccccc4)cc23)cn1

>  <Name>  (505) 
nan

>  <Pocket>  (505) 
nan

>  <ATP_Site>  (505) 
nan

>  <Peripheral>  (505) 
nan

>  <Num_H_Atoms_ProtBoundConf>  (505) 
nan

>  <Num_Resolved_Atoms>  (505) 
nan

>  <Num_Not_Resolved_Atoms>  (505) 
nan

$$$$
CHEMBL3654473
     RDKit          3D

  0  0  0  0  0  0  0  0  0  0999 V3000
M  V30 BEGIN CTAB
M  V30 COUNTS 69 73 0 0 0
M  V30 BEGIN ATOM
M  V30 1 C 3.264405 -3.709805 2.762954 0
M  V30 2 C 4.284757 -2.638853 2.451292 0
M  V30 3 N 4.370372 -2.309161 1.076512 0
M  V30 4 C 5.308533 -1.308197 0.701582 0
M  V30 5 C 4.757450 0.100450 0.657702 0
M  V30 6 C 3.246343 0.051305 0.468811 0 CFG=1
M  V30 7 C 2.700379 1.357280 0.065570 0
M  V30 8 C 1.841210 2.065662 0.888398 0
M  V30 9 C 1.288842 3.300795 0.573379 0
M  V30 10 C 1.619912 3.864855 -0.649637 0
M  V30 11 C 2.474363 3.185121 -1.494712 0
M  V30 12 C 3.007172 1.951032 -1.144566 0
M  V30 13 C 2.966536 -1.077009 -0.457269 0 CFG=2
M  V30 14 N 1.659956 -1.079966 -1.032352 0
M  V30 15 C 1.354609 -1.088353 -2.421381 0
M  V30 16 O 2.335389 -1.093660 -3.199025 0
M  V30 17 C 0.004346 -1.090883 -2.971687 0
M  V30 18 C -0.076519 -1.098287 -4.357649 0
M  V30 19 C -1.365625 -1.101577 -4.905038 0
M  V30 20 C -2.509501 -1.097804 -4.127960 0
M  V30 21 N -3.829093 -1.099533 -4.379252 0
M  V30 22 N -4.491295 -1.093492 -3.219505 0
M  V30 23 C -3.586092 -1.087861 -2.201950 0
M  V30 24 C -4.032300 -1.080073 -0.812818 0
M  V30 25 C -3.462900 -0.246665 0.126273 0
M  V30 26 C -3.906154 -0.262837 1.429866 0
M  V30 27 C -4.919664 -1.094571 1.854176 0
M  V30 28 O -5.504671 -1.271107 3.075964 0
M  V30 29 C -5.138435 -0.564806 4.233893 0
M  V30 30 C -4.676737 -1.527988 5.334815 0
M  V30 31 C -6.345951 0.177886 4.783278 0
M  V30 32 N -5.483217 -1.919762 0.923536 0
M  V30 33 C -5.051514 -1.905881 -0.351863 0
M  V30 34 C -2.324820 -1.090451 -2.759571 0
M  V30 35 C -1.109660 -1.086816 -2.158607 0
M  V30 36 C 3.175336 -2.376835 0.309263 0
M  V30 37 H 3.393785 -4.559912 2.040814 0
M  V30 38 H 2.232810 -3.352700 2.815024 0
M  V30 39 H 3.523328 -4.123626 3.762010 0
M  V30 40 H 4.095329 -1.769720 3.119772 0
M  V30 41 H 5.268006 -3.054838 2.765302 0
M  V30 42 H 5.729963 -1.630850 -0.289278 0
M  V30 43 H 6.105124 -1.296903 1.484889 0
M  V30 44 H 5.217177 0.565930 -0.257638 0
M  V30 45 H 5.035590 0.685904 1.568864 0
M  V30 46 H 2.820528 -0.170881 1.491054 0
M  V30 47 H 1.582368 1.622669 1.847181 0
M  V30 48 H 0.622600 3.812959 1.251679 0
M  V30 49 H 1.196111 4.832401 -0.912502 0
M  V30 50 H 2.734888 3.628524 -2.457314 0
M  V30 51 H 3.672326 1.456329 -1.839425 0
M  V30 52 H 3.743912 -1.085387 -1.251622 0
M  V30 53 H 0.875609 -1.075240 -0.352614 0
M  V30 54 H 0.788725 -1.101048 -5.015563 0
M  V30 55 H -1.499460 -1.107408 -5.983367 0
M  V30 56 H -4.270282 -1.104882 -5.334062 0
M  V30 57 H -2.663007 0.434008 -0.130941 0
M  V30 58 H -3.514702 0.353013 2.212126 0
M  V30 59 H -4.325259 0.150824 4.049714 0
M  V30 60 H -5.529329 -2.156928 5.645210 0
M  V30 61 H -3.808047 -2.083298 4.955786 0
M  V30 62 H -4.431356 -0.897376 6.212539 0
M  V30 63 H -6.385370 1.199422 4.344049 0
M  V30 64 H -6.276000 0.177597 5.870827 0
M  V30 65 H -7.289301 -0.309852 4.435619 0
M  V30 66 H -5.478522 -2.550933 -1.122315 0
M  V30 67 H -1.025770 -1.080968 -1.080689 0
M  V30 68 H 3.338475 -3.168992 -0.478831 0
M  V30 69 H 2.282825 -2.695766 0.865604 0
M  V30 END ATOM
M  V30 BEGIN BOND
M  V30 1 1 1 2
M  V30 2 1 2 3
M  V30 3 1 3 4
M  V30 4 1 4 5
M  V30 5 1 5 6
M  V30 6 1 6 7
M  V30 7 2 7 8
M  V30 8 1 8 9
M  V30 9 2 9 10
M  V30 10 1 10 11
M  V30 11 2 11 12
M  V30 12 1 6 13
M  V30 13 1 13 14
M  V30 14 1 14 15
M  V30 15 2 15 16
M  V30 16 1 15 17
M  V30 17 2 17 18
M  V30 18 1 18 19
M  V30 19 2 19 20
M  V30 20 1 20 21
M  V30 21 1 21 22
M  V30 22 2 22 23
M  V30 23 1 23 24
M  V30 24 2 24 25
M  V30 25 1 25 26
M  V30 26 2 26 27
M  V30 27 1 27 28
M  V30 28 1 28 29
M  V30 29 1 29 30
M  V30 30 1 29 31
M  V30 31 1 27 32
M  V30 32 2 32 33
M  V30 33 1 23 34
M  V30 34 2 34 35
M  V30 35 1 13 36
M  V30 36 1 36 3
M  V30 37 1 12 7
M  V30 38 1 35 17
M  V30 39 1 34 20
M  V30 40 1 33 24
M  V30 41 1 1 37
M  V30 42 1 1 38
M  V30 43 1 1 39
M  V30 44 1 2 40
M  V30 45 1 2 41
M  V30 46 1 4 42
M  V30 47 1 4 43
M  V30 48 1 5 44
M  V30 49 1 5 45
M  V30 50 1 6 46 CFG=1
M  V30 51 1 8 47
M  V30 52 1 9 48
M  V30 53 1 10 49
M  V30 54 1 11 50
M  V30 55 1 12 51
M  V30 56 1 13 52 CFG=3
M  V30 57 1 14 53
M  V30 58 1 18 54
M  V30 59 1 19 55
M  V30 60 1 21 56
M  V30 61 1 25 57
M  V30 62 1 26 58
M  V30 63 1 29 59
M  V30 64 1 30 60
M  V30 65 1 30 61
M  V30 66 1 30 62
M  V30 67 1 31 63
M  V30 68 1 31 64
M  V30 69 1 31 65
M  V30 70 1 33 66
M  V30 71 1 35 67
M  V30 72 1 36 68
M  V30 73 1 36 69
M  V30 END BOND
M  V30 END CTAB
M  END
>  <Dataset>  (506) 
ChEMBL_Kinases

>  <Ligand_Instance>  (506) 
nan

>  <PDB_ID>  (506) 
nan

>  <Standardized_SMILES>  (506) 
CCN1CC[C@@H](c2ccccc2)[C@H](NC(=O)c2ccc3[nH]nc(-c4ccc(OC(C)C)nc4)c3c2)C1

>  <Name>  (506) 
nan

>  <Pocket>  (506) 
nan

>  <ATP_Site>  (506) 
nan

>  <Peripheral>  (506) 
nan

>  <Num_H_Atoms_ProtBoundConf>  (506) 
nan

>  <Num_Resolved_Atoms>  (506) 
nan

>  <Num_Not_Resolved_Atoms>  (506) 
nan

$$$$
CHEMBL3654474
     RDKit          3D

  0  0  0  0  0  0  0  0  0  0999 V3000
M  V30 BEGIN CTAB
M  V30 COUNTS 74 79 0 0 0
M  V30 BEGIN ATOM
M  V30 1 C 4.446689 -5.049389 2.938647 0
M  V30 2 C 3.152716 -5.699528 2.557512 0
M  V30 3 C 2.376539 -5.931230 3.852348 0
M  V30 4 C 3.400236 -7.022283 1.853487 0
M  V30 5 O 2.390436 -4.869013 1.737416 0
M  V30 6 C 2.798610 -4.401485 0.513974 0
M  V30 7 O 3.912379 -4.695219 0.035187 0
M  V30 8 N 2.134728 -3.560766 -0.413221 0
M  V30 9 C 2.996190 -3.363155 -1.562836 0
M  V30 10 C 2.279827 -2.531848 -2.607369 0
M  V30 11 C 1.365952 -1.536645 -1.898548 0 CFG=1
M  V30 12 C 0.928675 -0.462548 -2.826586 0
M  V30 13 C 0.123896 -0.705003 -3.919868 0
M  V30 14 C -0.255970 0.329809 -4.755104 0
M  V30 15 C 0.147374 1.625871 -4.533359 0
M  V30 16 C 0.959783 1.896293 -3.436750 0
M  V30 17 C 1.343698 0.849618 -2.592405 0
M  V30 18 C 0.234582 -2.312762 -1.298747 0 CFG=2
M  V30 19 N -0.895300 -1.508918 -0.951741 0
M  V30 20 C -2.243523 -1.639078 -1.384001 0
M  V30 21 O -2.542633 -2.567702 -2.177904 0
M  V30 22 C -3.307238 -0.742212 -0.949593 0
M  V30 23 C -4.570811 -0.972466 -1.422809 0
M  V30 24 C -5.643039 -0.167578 -1.062489 0
M  V30 25 C -5.455184 0.898653 -0.206128 0
M  V30 26 N -6.204896 1.869447 0.355794 0
M  V30 27 N -5.474300 2.657418 1.127864 0
M  V30 28 C -4.178339 2.239222 1.115334 0
M  V30 29 C -3.081804 2.867083 1.850308 0
M  V30 30 C -2.129666 2.179859 2.583099 0
M  V30 31 C -1.116827 2.835006 3.255509 0
M  V30 32 C -1.016125 4.211319 3.221062 0
M  V30 33 C -1.967786 4.897642 2.488668 0
M  V30 34 C -3.001781 4.260988 1.799738 0
M  V30 35 C -1.695231 6.372857 2.568413 0
M  V30 36 C -0.191494 6.326737 2.869846 0
M  V30 37 O -0.162418 5.196907 3.754567 0
M  V30 38 C -4.170004 1.123987 0.268512 0
M  V30 39 C -3.087976 0.314535 -0.092947 0
M  V30 40 C 0.789936 -3.057631 -0.099663 0
M  V30 41 H 4.960240 -5.743720 3.638859 0
M  V30 42 H 5.091273 -4.782070 2.081710 0
M  V30 43 H 4.244313 -4.129125 3.509259 0
M  V30 44 H 2.463174 -5.020708 4.465280 0
M  V30 45 H 1.297695 -6.109962 3.625341 0
M  V30 46 H 2.735558 -6.839075 4.372983 0
M  V30 47 H 3.087181 -7.881193 2.469408 0
M  V30 48 H 2.855654 -7.048119 0.894112 0
M  V30 49 H 4.480222 -7.060310 1.594417 0
M  V30 50 H 3.203143 -4.382440 -1.983649 0
M  V30 51 H 3.945473 -2.868792 -1.230824 0
M  V30 52 H 1.745733 -3.157092 -3.341988 0
M  V30 53 H 3.072269 -1.942819 -3.142664 0
M  V30 54 H 2.011645 -1.113799 -1.075253 0
M  V30 55 H -0.213592 -1.731072 -4.121904 0
M  V30 56 H -0.891685 0.082360 -5.603785 0
M  V30 57 H -0.147648 2.438254 -5.183431 0
M  V30 58 H 1.308784 2.895076 -3.211205 0
M  V30 59 H 1.985307 1.067996 -1.727956 0
M  V30 60 H -0.095739 -3.102961 -2.013060 0
M  V30 61 H -0.624149 -0.747984 -0.294466 0
M  V30 62 H -4.817253 -1.792289 -2.105035 0
M  V30 63 H -6.660835 -0.323886 -1.421332 0
M  V30 64 H -7.248398 1.940822 0.164047 0
M  V30 65 H -2.198766 1.111118 2.616635 0
M  V30 66 H -0.373350 2.295323 3.828054 0
M  V30 67 H -3.717472 4.816968 1.245381 0
M  V30 68 H -2.156252 6.838575 3.451906 0
M  V30 69 H -1.909117 6.859931 1.610571 0
M  V30 70 H 0.167703 7.218376 3.382103 0
M  V30 71 H 0.316741 6.100293 1.902101 0
M  V30 72 H -2.105591 0.516761 0.292869 0
M  V30 73 H 0.844627 -2.416353 0.802911 0
M  V30 74 H 0.189420 -3.960081 0.144852 0
M  V30 END ATOM
M  V30 BEGIN BOND
M  V30 1 1 1 2
M  V30 2 1 2 3
M  V30 3 1 2 4
M  V30 4 1 2 5
M  V30 5 1 5 6
M  V30 6 2 6 7
M  V30 7 1 6 8
M  V30 8 1 8 9
M  V30 9 1 9 10
M  V30 10 1 10 11
M  V30 11 1 11 12
M  V30 12 2 12 13
M  V30 13 1 13 14
M  V30 14 2 14 15
M  V30 15 1 15 16
M  V30 16 2 16 17
M  V30 17 1 11 18
M  V30 18 1 18 19
M  V30 19 1 19 20
M  V30 20 2 20 21
M  V30 21 1 20 22
M  V30 22 2 22 23
M  V30 23 1 23 24
M  V30 24 2 24 25
M  V30 25 1 25 26
M  V30 26 1 26 27
M  V30 27 2 27 28
M  V30 28 1 28 29
M  V30 29 2 29 30
M  V30 30 1 30 31
M  V30 31 2 31 32
M  V30 32 1 32 33
M  V30 33 2 33 34
M  V30 34 1 33 35
M  V30 35 1 35 36
M  V30 36 1 36 37
M  V30 37 1 28 38
M  V30 38 2 38 39
M  V30 39 1 18 40
M  V30 40 1 40 8
M  V30 41 1 17 12
M  V30 42 1 39 22
M  V30 43 1 38 25
M  V30 44 1 34 29
M  V30 45 1 37 32
M  V30 46 1 1 41
M  V30 47 1 1 42
M  V30 48 1 1 43
M  V30 49 1 3 44
M  V30 50 1 3 45
M  V30 51 1 3 46
M  V30 52 1 4 47
M  V30 53 1 4 48
M  V30 54 1 4 49
M  V30 55 1 9 50
M  V30 56 1 9 51
M  V30 57 1 10 52
M  V30 58 1 10 53
M  V30 59 1 11 54 CFG=1
M  V30 60 1 13 55
M  V30 61 1 14 56
M  V30 62 1 15 57
M  V30 63 1 16 58
M  V30 64 1 17 59
M  V30 65 1 18 60 CFG=3
M  V30 66 1 19 61
M  V30 67 1 23 62
M  V30 68 1 24 63
M  V30 69 1 26 64
M  V30 70 1 30 65
M  V30 71 1 31 66
M  V30 72 1 34 67
M  V30 73 1 35 68
M  V30 74 1 35 69
M  V30 75 1 36 70
M  V30 76 1 36 71
M  V30 77 1 39 72
M  V30 78 1 40 73
M  V30 79 1 40 74
M  V30 END BOND
M  V30 END CTAB
M  END
>  <Dataset>  (507) 
ChEMBL_Kinases

>  <Ligand_Instance>  (507) 
nan

>  <PDB_ID>  (507) 
nan

>  <Standardized_SMILES>  (507) 
CC(C)(C)OC(=O)N1CC[C@@H](c2ccccc2)[C@H](NC(=O)c2ccc3[nH]nc(-c4ccc5c(c4)CCO5)c3c2)C1

>  <Name>  (507) 
nan

>  <Pocket>  (507) 
nan

>  <ATP_Site>  (507) 
nan

>  <Peripheral>  (507) 
nan

>  <Num_H_Atoms_ProtBoundConf>  (507) 
nan

>  <Num_Resolved_Atoms>  (507) 
nan

>  <Num_Not_Resolved_Atoms>  (507) 
nan

$$$$
CHEMBL3654475
     RDKit          3D

  0  0  0  0  0  0  0  0  0  0999 V3000
M  V30 BEGIN CTAB
M  V30 COUNTS 57 62 0 0 0
M  V30 BEGIN ATOM
M  V30 1 O 0.988666 -1.462869 1.025571 0
M  V30 2 C 0.045591 -0.749502 1.489274 0
M  V30 3 N 0.436709 0.164779 2.507101 0
M  V30 4 C 1.792348 0.262113 2.963312 0 CFG=2
M  V30 5 C 1.954551 -0.124723 4.416998 0
M  V30 6 N 3.303029 0.177723 4.782357 0
M  V30 7 C 4.213903 0.309026 3.669383 0
M  V30 8 C 3.869628 1.455264 2.739991 0
M  V30 9 C 2.374194 1.656091 2.841607 0 CFG=1
M  V30 10 C 1.807919 2.467136 1.777603 0
M  V30 11 C 1.817770 2.080531 0.469329 0
M  V30 12 C 1.287125 2.831663 -0.559402 0
M  V30 13 C 0.706463 4.051039 -0.269443 0
M  V30 14 C 0.656709 4.517073 1.043208 0
M  V30 15 C 1.208467 3.708023 2.013018 0
M  V30 16 C -1.329000 -0.860381 1.014492 0
M  V30 17 C -2.383270 -0.106671 1.489028 0
M  V30 18 C -3.669387 -0.246191 1.008992 0
M  V30 19 C -3.874261 -1.183700 0.017286 0
M  V30 20 N -4.995847 -1.543884 -0.639872 0
M  V30 21 N -4.688203 -2.498236 -1.512735 0
M  V30 22 C -3.373155 -2.796153 -1.462432 0
M  V30 23 C -2.661316 -3.786182 -2.263975 0
M  V30 24 C -1.749037 -4.667460 -1.725494 0
M  V30 25 C -1.054348 -5.618797 -2.447999 0
M  V30 26 C -1.281533 -5.702465 -3.807101 0
M  V30 27 N -0.763137 -6.511576 -4.747143 0
M  V30 28 N -1.309428 -6.194241 -5.919838 0
M  V30 29 C -2.179048 -5.178532 -5.723341 0
M  V30 30 C -2.192700 -4.830795 -4.379410 0
M  V30 31 C -2.877257 -3.883555 -3.627925 0
M  V30 32 C -2.843825 -1.968069 -0.494216 0
M  V30 33 C -1.581825 -1.786423 0.021557 0
M  V30 34 H -0.269586 0.793497 2.948845 0
M  V30 35 H 2.422818 -0.478557 2.389338 0
M  V30 36 H 1.651938 -1.170630 4.609441 0
M  V30 37 H 1.278459 0.527063 5.008357 0
M  V30 38 H 3.423047 1.003240 5.383501 0
M  V30 39 H 5.207906 0.554601 4.115590 0
M  V30 40 H 4.369869 -0.639296 3.126403 0
M  V30 41 H 4.084481 1.100602 1.704440 0
M  V30 42 H 4.426709 2.388654 2.976750 0
M  V30 43 H 2.230394 2.211587 3.814319 0
M  V30 44 H 2.266105 1.125368 0.196794 0
M  V30 45 H 1.291001 2.528843 -1.610972 0
M  V30 46 H 0.279360 4.670928 -1.042854 0
M  V30 47 H 0.212847 5.466449 1.326424 0
M  V30 48 H 1.172410 4.069691 3.049580 0
M  V30 49 H -2.184201 0.618313 2.266690 0
M  V30 50 H -4.460541 0.369868 1.415547 0
M  V30 51 H -5.935360 -1.116178 -0.460959 0
M  V30 52 H -1.532129 -4.646584 -0.666190 0
M  V30 53 H -0.346062 -6.285488 -1.959084 0
M  V30 54 H -0.048302 -7.268932 -4.595194 0
M  V30 55 H -2.780672 -4.703217 -6.506308 0
M  V30 56 H -3.585667 -3.222824 -4.141457 0
M  V30 57 H -0.769306 -2.390806 -0.367692 0
M  V30 END ATOM
M  V30 BEGIN BOND
M  V30 1 2 1 2
M  V30 2 1 2 3
M  V30 3 1 3 4
M  V30 4 1 4 5
M  V30 5 1 5 6
M  V30 6 1 6 7
M  V30 7 1 7 8
M  V30 8 1 8 9
M  V30 9 1 9 10
M  V30 10 2 10 11
M  V30 11 1 11 12
M  V30 12 2 12 13
M  V30 13 1 13 14
M  V30 14 2 14 15
M  V30 15 1 2 16
M  V30 16 2 16 17
M  V30 17 1 17 18
M  V30 18 2 18 19
M  V30 19 1 19 20
M  V30 20 1 20 21
M  V30 21 2 21 22
M  V30 22 1 22 23
M  V30 23 2 23 24
M  V30 24 1 24 25
M  V30 25 2 25 26
M  V30 26 1 26 27
M  V30 27 1 27 28
M  V30 28 2 28 29
M  V30 29 1 29 30
M  V30 30 2 30 31
M  V30 31 1 22 32
M  V30 32 2 32 33
M  V30 33 1 9 4
M  V30 34 1 15 10
M  V30 35 1 33 16
M  V30 36 1 32 19
M  V30 37 1 31 23
M  V30 38 1 30 26
M  V30 39 1 3 34
M  V30 40 1 4 35 CFG=3
M  V30 41 1 5 36
M  V30 42 1 5 37
M  V30 43 1 6 38
M  V30 44 1 7 39
M  V30 45 1 7 40
M  V30 46 1 8 41
M  V30 47 1 8 42
M  V30 48 1 9 43 CFG=1
M  V30 49 1 11 44
M  V30 50 1 12 45
M  V30 51 1 13 46
M  V30 52 1 14 47
M  V30 53 1 15 48
M  V30 54 1 17 49
M  V30 55 1 18 50
M  V30 56 1 20 51
M  V30 57 1 24 52
M  V30 58 1 25 53
M  V30 59 1 27 54
M  V30 60 1 29 55
M  V30 61 1 31 56
M  V30 62 1 33 57
M  V30 END BOND
M  V30 END CTAB
M  END
>  <Dataset>  (508) 
ChEMBL_Kinases

>  <Ligand_Instance>  (508) 
nan

>  <PDB_ID>  (508) 
nan

>  <Standardized_SMILES>  (508) 
O=C(N[C@@H]1CNCC[C@H]1c1ccccc1)c1ccc2[nH]nc(-c3ccc4[nH]ncc4c3)c2c1

>  <Name>  (508) 
nan

>  <Pocket>  (508) 
nan

>  <ATP_Site>  (508) 
nan

>  <Peripheral>  (508) 
nan

>  <Num_H_Atoms_ProtBoundConf>  (508) 
nan

>  <Num_Resolved_Atoms>  (508) 
nan

>  <Num_Not_Resolved_Atoms>  (508) 
nan

$$$$
CHEMBL3654476
     RDKit          3D

  0  0  0  0  0  0  0  0  0  0999 V3000
M  V30 BEGIN CTAB
M  V30 COUNTS 63 67 0 0 0
M  V30 BEGIN ATOM
M  V30 1 C 5.358479 0.253414 -2.975580 0
M  V30 2 C 4.890386 0.515016 -1.582133 0
M  V30 3 C 5.006390 -0.799497 -0.798480 0
M  V30 4 O 3.559554 0.913646 -1.457200 0
M  V30 5 C 3.150856 2.051853 -0.746801 0
M  V30 6 C 1.811851 2.344023 -0.692220 0
M  V30 7 C 1.454468 3.472465 0.016811 0
M  V30 8 C 0.083997 3.947338 0.190642 0
M  V30 9 N -0.283586 5.215277 0.055823 0
M  V30 10 N -1.581333 5.320332 0.275386 0
M  V30 11 C -2.062365 4.107125 0.556148 0
M  V30 12 C -3.302112 3.589329 0.864221 0
M  V30 13 C -3.511420 2.227963 1.118399 0
M  V30 14 C -2.457553 1.340920 1.066949 0
M  V30 15 C -2.748761 -0.066006 1.339835 0
M  V30 16 O -3.974159 -0.332460 1.592726 0
M  V30 17 N -1.805346 -1.143358 1.347435 0
M  V30 18 C -2.217223 -2.503751 1.632056 0 CFG=2
M  V30 19 C -1.556351 -3.126146 2.822099 0
M  V30 20 N -0.439749 -3.964879 2.565558 0
M  V30 21 C 0.336975 -3.441312 1.471547 0
M  V30 22 C -0.486617 -3.546965 0.216413 0
M  V30 23 C -1.934897 -3.344874 0.409349 0 CFG=1
M  V30 24 C -2.759926 -4.569105 0.498678 0
M  V30 25 C -2.449376 -5.853730 0.845761 0
M  V30 26 C -3.366731 -6.868808 0.891566 0
M  V30 27 C -4.685842 -6.634403 0.579925 0
M  V30 28 C -5.071894 -5.362785 0.220309 0
M  V30 29 C -4.112446 -4.366267 0.187032 0
M  V30 30 C -1.203884 1.829773 0.761346 0
M  V30 31 C -1.046181 3.183605 0.518192 0
M  V30 32 C 2.457076 4.227749 0.620208 0
M  V30 33 C 3.802670 3.908439 0.548458 0
M  V30 34 N 4.110485 2.796651 -0.154968 0
M  V30 35 H 6.143320 -0.556355 -2.924309 0
M  V30 36 H 4.558673 -0.162775 -3.618795 0
M  V30 37 H 5.865890 1.123315 -3.450253 0
M  V30 38 H 5.608452 1.198623 -1.070665 0
M  V30 39 H 5.058549 -0.625604 0.287807 0
M  V30 40 H 5.931302 -1.342600 -1.087205 0
M  V30 41 H 4.166658 -1.466705 -1.022460 0
M  V30 42 H 1.035020 1.777144 -1.147377 0
M  V30 43 H -2.177496 6.197060 0.244968 0
M  V30 44 H -4.146028 4.286947 0.906330 0
M  V30 45 H -4.552009 1.964664 1.349331 0
M  V30 46 H -0.864780 -0.752720 1.122801 0
M  V30 47 H -3.332586 -2.413621 1.794285 0
M  V30 48 H -1.162479 -2.247856 3.426376 0
M  V30 49 H -2.296648 -3.587288 3.522460 0
M  V30 50 H 0.180652 -4.013904 3.396454 0
M  V30 51 H 1.298958 -4.036682 1.344156 0
M  V30 52 H 0.711681 -2.414430 1.686035 0
M  V30 53 H -0.221162 -4.537328 -0.227828 0
M  V30 54 H -0.099176 -2.826076 -0.566226 0
M  V30 55 H -2.350435 -2.674662 -0.435080 0
M  V30 56 H -1.416119 -6.024052 1.074963 0
M  V30 57 H -2.985067 -7.857052 1.186139 0
M  V30 58 H -5.389600 -7.463489 0.626393 0
M  V30 59 H -6.105268 -5.182580 -0.023463 0
M  V30 60 H -4.506212 -3.401599 -0.103905 0
M  V30 61 H -0.368790 1.159423 0.715268 0
M  V30 62 H 2.220647 5.125221 1.188517 0
M  V30 63 H 4.573152 4.501838 1.020091 0
M  V30 END ATOM
M  V30 BEGIN BOND
M  V30 1 1 1 2
M  V30 2 1 2 3
M  V30 3 1 2 4
M  V30 4 1 4 5
M  V30 5 2 5 6
M  V30 6 1 6 7
M  V30 7 1 7 8
M  V30 8 2 8 9
M  V30 9 1 9 10
M  V30 10 1 10 11
M  V30 11 2 11 12
M  V30 12 1 12 13
M  V30 13 2 13 14
M  V30 14 1 14 15
M  V30 15 2 15 16
M  V30 16 1 15 17
M  V30 17 1 17 18
M  V30 18 1 18 19
M  V30 19 1 19 20
M  V30 20 1 20 21
M  V30 21 1 21 22
M  V30 22 1 22 23
M  V30 23 1 23 24
M  V30 24 2 24 25
M  V30 25 1 25 26
M  V30 26 2 26 27
M  V30 27 1 27 28
M  V30 28 2 28 29
M  V30 29 1 14 30
M  V30 30 2 30 31
M  V30 31 2 7 32
M  V30 32 1 32 33
M  V30 33 2 33 34
M  V30 34 1 34 5
M  V30 35 1 31 8
M  V30 36 1 31 11
M  V30 37 1 23 18
M  V30 38 1 29 24
M  V30 39 1 1 35
M  V30 40 1 1 36
M  V30 41 1 1 37
M  V30 42 1 2 38
M  V30 43 1 3 39
M  V30 44 1 3 40
M  V30 45 1 3 41
M  V30 46 1 6 42
M  V30 47 1 10 43
M  V30 48 1 12 44
M  V30 49 1 13 45
M  V30 50 1 17 46
M  V30 51 1 18 47 CFG=1
M  V30 52 1 19 48
M  V30 53 1 19 49
M  V30 54 1 20 50
M  V30 55 1 21 51
M  V30 56 1 21 52
M  V30 57 1 22 53
M  V30 58 1 22 54
M  V30 59 1 23 55 CFG=3
M  V30 60 1 25 56
M  V30 61 1 26 57
M  V30 62 1 27 58
M  V30 63 1 28 59
M  V30 64 1 29 60
M  V30 65 1 30 61
M  V30 66 1 32 62
M  V30 67 1 33 63
M  V30 END BOND
M  V30 END CTAB
M  END
>  <Dataset>  (509) 
ChEMBL_Kinases

>  <Ligand_Instance>  (509) 
nan

>  <PDB_ID>  (509) 
nan

>  <Standardized_SMILES>  (509) 
CC(C)Oc1cc(-c2n[nH]c3ccc(C(=O)N[C@@H]4CNCC[C@H]4c4ccccc4)cc23)ccn1

>  <Name>  (509) 
nan

>  <Pocket>  (509) 
nan

>  <ATP_Site>  (509) 
nan

>  <Peripheral>  (509) 
nan

>  <Num_H_Atoms_ProtBoundConf>  (509) 
nan

>  <Num_Resolved_Atoms>  (509) 
nan

>  <Num_Not_Resolved_Atoms>  (509) 
nan

$$$$
CHEMBL3654468
     RDKit          3D

  0  0  0  0  0  0  0  0  0  0999 V3000
M  V30 BEGIN CTAB
M  V30 COUNTS 64 68 0 0 0
M  V30 BEGIN ATOM
M  V30 1 C 5.771772 -1.721268 4.396915 0
M  V30 2 C 4.290996 -1.367529 4.343339 0
M  V30 3 C 3.586575 -1.815343 5.609436 0
M  V30 4 O 4.101695 0.002494 4.090490 0
M  V30 5 C 3.469501 0.494217 2.963413 0
M  V30 6 C 2.893198 -0.103185 1.863605 0
M  V30 7 C 2.327356 0.676123 0.878295 0
M  V30 8 C 2.300218 2.053886 0.923807 0
M  V30 9 C 1.674550 2.737295 -0.178011 0
M  V30 10 N 2.258132 3.807093 -0.740082 0
M  V30 11 N 1.526886 4.279185 -1.723643 0
M  V30 12 C 0.420243 3.537049 -1.855778 0
M  V30 13 C -0.678054 3.528525 -2.664827 0
M  V30 14 C -1.660891 2.548199 -2.483059 0
M  V30 15 C -1.556070 1.573176 -1.497158 0
M  V30 16 C -2.638049 0.599048 -1.394890 0
M  V30 17 O -3.590332 0.711887 -2.208209 0
M  V30 18 N -2.611710 -0.431756 -0.415547 0
M  V30 19 C -3.645079 -1.425293 -0.259057 0 CFG=2
M  V30 20 C -4.337965 -1.321014 1.082161 0
M  V30 21 N -5.163558 -2.505796 1.226470 0
M  V30 22 C -5.573083 -3.071348 -0.038805 0
M  V30 23 C -4.377217 -3.697709 -0.735463 0
M  V30 24 C -3.181908 -2.831196 -0.407800 0 CFG=1
M  V30 25 C -2.045062 -3.012451 -1.325636 0
M  V30 26 C -2.119524 -2.687056 -2.685606 0
M  V30 27 C -1.001965 -2.883697 -3.504219 0
M  V30 28 C 0.189816 -3.390985 -3.029311 0
M  V30 29 C 0.294967 -3.723171 -1.685534 0
M  V30 30 C -0.819603 -3.518347 -0.908549 0
M  V30 31 C -0.452624 1.579709 -0.682426 0
M  V30 32 C 0.501802 2.557504 -0.882970 0
M  V30 33 C 2.874429 2.662593 2.020559 0
M  V30 34 C 3.456081 1.893620 3.035620 0
M  V30 35 H 6.277112 -1.006590 5.057969 0
M  V30 36 H 6.201239 -1.652525 3.383200 0
M  V30 37 H 5.855281 -2.781041 4.720280 0
M  V30 38 H 3.868785 -1.980378 3.525276 0
M  V30 39 H 2.592310 -1.350932 5.617907 0
M  V30 40 H 3.567949 -2.928619 5.551960 0
M  V30 41 H 4.246783 -1.540053 6.446860 0
M  V30 42 H 2.962645 -1.165817 1.917607 0
M  V30 43 H 1.914060 0.047779 0.075738 0
M  V30 44 H 1.747095 5.096759 -2.321145 0
M  V30 45 H -0.784440 4.279047 -3.442844 0
M  V30 46 H -2.512752 2.613432 -3.177475 0
M  V30 47 H -1.844700 -0.537279 0.253147 0
M  V30 48 H -4.428759 -1.232797 -1.021173 0
M  V30 49 H -5.011217 -0.447042 1.154796 0
M  V30 50 H -3.572731 -1.372930 1.892184 0
M  V30 51 H -5.954636 -2.376006 1.882682 0
M  V30 52 H -6.322894 -3.862755 0.223456 0
M  V30 53 H -6.111556 -2.338665 -0.681312 0
M  V30 54 H -4.239379 -4.754054 -0.435381 0
M  V30 55 H -4.581405 -3.616452 -1.831344 0
M  V30 56 H -2.843144 -3.170345 0.610379 0
M  V30 57 H -3.057202 -2.291899 -3.041272 0
M  V30 58 H -1.070472 -2.628457 -4.555545 0
M  V30 59 H 1.048818 -3.545610 -3.642779 0
M  V30 60 H 1.191330 -4.124646 -1.238062 0
M  V30 61 H -0.756840 -3.774455 0.155473 0
M  V30 62 H -0.353208 0.843253 0.077308 0
M  V30 63 H 2.834653 3.738645 2.021987 0
M  V30 64 H 3.862216 2.540593 3.826310 0
M  V30 END ATOM
M  V30 BEGIN BOND
M  V30 1 1 1 2
M  V30 2 1 2 3
M  V30 3 1 2 4
M  V30 4 1 4 5
M  V30 5 2 5 6
M  V30 6 1 6 7
M  V30 7 2 7 8
M  V30 8 1 8 9
M  V30 9 2 9 10
M  V30 10 1 10 11
M  V30 11 1 11 12
M  V30 12 2 12 13
M  V30 13 1 13 14
M  V30 14 2 14 15
M  V30 15 1 15 16
M  V30 16 2 16 17
M  V30 17 1 16 18
M  V30 18 1 18 19
M  V30 19 1 19 20
M  V30 20 1 20 21
M  V30 21 1 21 22
M  V30 22 1 22 23
M  V30 23 1 23 24
M  V30 24 1 24 25
M  V30 25 2 25 26
M  V30 26 1 26 27
M  V30 27 2 27 28
M  V30 28 1 28 29
M  V30 29 2 29 30
M  V30 30 1 15 31
M  V30 31 2 31 32
M  V30 32 1 8 33
M  V30 33 2 33 34
M  V30 34 1 34 5
M  V30 35 1 32 9
M  V30 36 1 32 12
M  V30 37 1 24 19
M  V30 38 1 30 25
M  V30 39 1 1 35
M  V30 40 1 1 36
M  V30 41 1 1 37
M  V30 42 1 2 38
M  V30 43 1 3 39
M  V30 44 1 3 40
M  V30 45 1 3 41
M  V30 46 1 6 42
M  V30 47 1 7 43
M  V30 48 1 11 44
M  V30 49 1 13 45
M  V30 50 1 14 46
M  V30 51 1 18 47
M  V30 52 1 19 48 CFG=3
M  V30 53 1 20 49
M  V30 54 1 20 50
M  V30 55 1 21 51
M  V30 56 1 22 52
M  V30 57 1 22 53
M  V30 58 1 23 54
M  V30 59 1 23 55
M  V30 60 1 24 56 CFG=1
M  V30 61 1 26 57
M  V30 62 1 27 58
M  V30 63 1 28 59
M  V30 64 1 29 60
M  V30 65 1 30 61
M  V30 66 1 31 62
M  V30 67 1 33 63
M  V30 68 1 34 64
M  V30 END BOND
M  V30 END CTAB
M  END
>  <Dataset>  (510) 
ChEMBL_Kinases

>  <Ligand_Instance>  (510) 
nan

>  <PDB_ID>  (510) 
nan

>  <Standardized_SMILES>  (510) 
CC(C)Oc1ccc(-c2n[nH]c3ccc(C(=O)N[C@@H]4CNCC[C@H]4c4ccccc4)cc23)cc1

>  <Name>  (510) 
nan

>  <Pocket>  (510) 
nan

>  <ATP_Site>  (510) 
nan

>  <Peripheral>  (510) 
nan

>  <Num_H_Atoms_ProtBoundConf>  (510) 
nan

>  <Num_Resolved_Atoms>  (510) 
nan

>  <Num_Not_Resolved_Atoms>  (510) 
nan

$$$$
CHEMBL3654656
     RDKit          3D

  0  0  0  0  0  0  0  0  0  0999 V3000
M  V30 BEGIN CTAB
M  V30 COUNTS 67 72 0 0 0
M  V30 BEGIN ATOM
M  V30 1 C 1.637793 -0.823703 5.401129 0
M  V30 2 C 2.638588 0.247765 5.147034 0
M  V30 3 C 3.460474 0.226378 4.028828 0
M  V30 4 C 4.408805 1.220219 3.768840 0
M  V30 5 C 5.229059 1.108181 2.561887 0
M  V30 6 N 6.555815 1.280413 2.441991 0
M  V30 7 N 6.964841 1.099299 1.197288 0
M  V30 8 C 5.893938 0.794406 0.439465 0
M  V30 9 C 5.761154 0.511043 -0.916308 0
M  V30 10 C 4.480623 0.227427 -1.403950 0
M  V30 11 C 3.362463 0.219814 -0.597135 0
M  V30 12 C 2.072666 -0.086450 -1.201425 0
M  V30 13 O 2.072880 -0.340553 -2.430327 0
M  V30 14 N 0.852790 -0.114139 -0.508458 0
M  V30 15 C -0.430991 -0.414664 -1.088853 0 CFG=2
M  V30 16 C -1.402221 0.717436 -1.039269 0
M  V30 17 C -2.528915 0.316931 -2.005688 0
M  V30 18 C -3.169142 -0.934366 -1.433151 0 CFG=1
M  V30 19 C -3.480758 -1.889660 -2.489765 0
M  V30 20 O -4.083786 -1.812484 -3.597610 0
M  V30 21 N -3.244133 -3.276937 -2.715303 0
M  V30 22 C -3.694497 -3.972456 -3.903974 0
M  V30 23 C -3.498894 -5.288581 -3.176900 0
M  V30 24 F -4.667287 -5.810440 -2.631440 0
M  V30 25 F -2.817352 -6.177302 -3.971762 0
M  V30 26 C -2.661019 -4.496487 -2.202069 0
M  V30 27 N -2.469615 -1.382032 -0.316162 0
M  V30 28 C -3.093770 -1.961832 0.795947 0
M  V30 29 C -4.060287 -0.986935 1.372845 0
M  V30 30 C -5.345213 -0.817214 1.120471 0
M  V30 31 C -6.070255 0.155047 1.764360 0
M  V30 32 C -5.366995 0.921625 2.673844 0
M  V30 33 S -3.657709 0.235948 2.597121 0
M  V30 34 C -1.086297 -1.631479 -0.494997 0
M  V30 35 C 3.561295 0.508092 0.735527 0
M  V30 36 C 4.795851 0.795136 1.277372 0
M  V30 37 C 4.506546 2.257266 4.687109 0
M  V30 38 C 3.679870 2.264966 5.797471 0
M  V30 39 N 2.768747 1.274777 6.011571 0
M  V30 40 H 1.122228 -1.136107 4.470826 0
M  V30 41 H 2.158820 -1.657939 5.904131 0
M  V30 42 H 0.856001 -0.440817 6.091736 0
M  V30 43 H 3.295295 -0.635998 3.380567 0
M  V30 44 H 7.949968 1.176135 0.837979 0
M  V30 45 H 6.608665 0.507065 -1.579207 0
M  V30 46 H 4.433112 0.010331 -2.475126 0
M  V30 47 H 0.861384 0.100499 0.525542 0
M  V30 48 H -0.245406 -0.634007 -2.177259 0
M  V30 49 H -1.873448 0.707563 -0.026946 0
M  V30 50 H -0.978497 1.698958 -1.282804 0
M  V30 51 H -2.090687 0.089129 -3.001857 0
M  V30 52 H -3.202202 1.167521 -2.094359 0
M  V30 53 H -4.164264 -0.562104 -1.040593 0
M  V30 54 H -3.077792 -3.805441 -4.784439 0
M  V30 55 H -4.786516 -3.851270 -4.139555 0
M  V30 56 H -1.573191 -4.641087 -2.436347 0
M  V30 57 H -2.943636 -4.762645 -1.158159 0
M  V30 58 H -2.287211 -2.076656 1.579800 0
M  V30 59 H -3.495780 -2.980495 0.691485 0
M  V30 60 H -5.852352 -1.463904 0.383955 0
M  V30 61 H -7.119757 0.381589 1.636259 0
M  V30 62 H -5.709846 1.746394 3.307562 0
M  V30 63 H -0.652037 -1.718581 0.545636 0
M  V30 64 H -0.861586 -2.537033 -1.062344 0
M  V30 65 H 2.690331 0.503408 1.363744 0
M  V30 66 H 5.240848 3.033853 4.494579 0
M  V30 67 H 3.833258 3.116968 6.454417 0
M  V30 END ATOM
M  V30 BEGIN BOND
M  V30 1 1 1 2
M  V30 2 2 2 3
M  V30 3 1 3 4
M  V30 4 1 4 5
M  V30 5 2 5 6
M  V30 6 1 6 7
M  V30 7 1 7 8
M  V30 8 2 8 9
M  V30 9 1 9 10
M  V30 10 2 10 11
M  V30 11 1 11 12
M  V30 12 2 12 13
M  V30 13 1 12 14
M  V30 14 1 14 15
M  V30 15 1 15 16
M  V30 16 1 16 17
M  V30 17 1 17 18
M  V30 18 1 18 19
M  V30 19 2 19 20
M  V30 20 1 19 21
M  V30 21 1 21 22
M  V30 22 1 22 23
M  V30 23 1 23 24
M  V30 24 1 23 25
M  V30 25 1 23 26
M  V30 26 1 18 27
M  V30 27 1 27 28
M  V30 28 1 28 29
M  V30 29 2 29 30
M  V30 30 1 30 31
M  V30 31 2 31 32
M  V30 32 1 32 33
M  V30 33 1 27 34
M  V30 34 1 11 35
M  V30 35 2 35 36
M  V30 36 2 4 37
M  V30 37 1 37 38
M  V30 38 2 38 39
M  V30 39 1 39 2
M  V30 40 1 36 5
M  V30 41 1 36 8
M  V30 42 1 34 15
M  V30 43 1 26 21
M  V30 44 1 33 29
M  V30 45 1 1 40
M  V30 46 1 1 41
M  V30 47 1 1 42
M  V30 48 1 3 43
M  V30 49 1 7 44
M  V30 50 1 9 45
M  V30 51 1 10 46
M  V30 52 1 14 47
M  V30 53 1 15 48 CFG=3
M  V30 54 1 16 49
M  V30 55 1 16 50
M  V30 56 1 17 51
M  V30 57 1 17 52
M  V30 58 1 18 53 CFG=1
M  V30 59 1 22 54
M  V30 60 1 22 55
M  V30 61 1 26 56
M  V30 62 1 26 57
M  V30 63 1 28 58
M  V30 64 1 28 59
M  V30 65 1 30 60
M  V30 66 1 31 61
M  V30 67 1 32 62
M  V30 68 1 34 63
M  V30 69 1 34 64
M  V30 70 1 35 65
M  V30 71 1 37 66
M  V30 72 1 38 67
M  V30 END BOND
M  V30 END CTAB
M  END
>  <Dataset>  (511) 
ChEMBL_Kinases

>  <Ligand_Instance>  (511) 
nan

>  <PDB_ID>  (511) 
nan

>  <Standardized_SMILES>  (511) 
Cc1cc(-c2n[nH]c3ccc(C(=O)N[C@@H]4CC[C@@H](C(=O)N5CC(F)(F)C5)N(Cc5cccs5)C4)cc23)ccn1

>  <Name>  (511) 
nan

>  <Pocket>  (511) 
nan

>  <ATP_Site>  (511) 
nan

>  <Peripheral>  (511) 
nan

>  <Num_H_Atoms_ProtBoundConf>  (511) 
nan

>  <Num_Resolved_Atoms>  (511) 
nan

>  <Num_Not_Resolved_Atoms>  (511) 
nan

$$$$
CHEMBL3654655
     RDKit          3D

  0  0  0  0  0  0  0  0  0  0999 V3000
M  V30 BEGIN CTAB
M  V30 COUNTS 66 70 0 0 0
M  V30 BEGIN ATOM
M  V30 1 C 3.004566 -2.696846 3.581796 0
M  V30 2 C 3.722904 -1.413659 3.742437 0
M  V30 3 C 3.934825 -0.680589 2.591271 0
M  V30 4 C 4.600782 0.521063 2.702689 0
M  V30 5 C 4.938137 1.461574 1.641546 0
M  V30 6 N 6.140374 2.057413 1.503650 0
M  V30 7 N 6.118457 2.855046 0.438577 0
M  V30 8 C 4.911396 2.820410 -0.167089 0
M  V30 9 C 4.372436 3.445453 -1.282768 0
M  V30 10 C 3.047427 3.160731 -1.621669 0
M  V30 11 C 2.283045 2.281584 -0.873609 0
M  V30 12 C 0.904719 2.029366 -1.282705 0
M  V30 13 O 0.500477 2.643780 -2.287771 0
M  V30 14 N 0.046286 1.150784 -0.610043 0
M  V30 15 C -1.320790 0.852117 -0.952855 0 CFG=2
M  V30 16 C -2.289815 1.162977 0.148262 0
M  V30 17 C -3.595210 0.481958 -0.206091 0
M  V30 18 C -3.446168 -1.036240 -0.013988 0 CFG=1
M  V30 19 C -4.378046 -1.644092 -0.953738 0
M  V30 20 O -5.580822 -1.319557 -0.661383 0
M  V30 21 N -4.903639 -2.381639 -2.019585 0
M  V30 22 C -6.366906 -2.274711 -2.052170 0
M  V30 23 C -4.161673 -3.175853 -3.010562 0
M  V30 24 N -2.066902 -1.327861 -0.246245 0
M  V30 25 C -1.640643 -2.663492 -0.225031 0
M  V30 26 C -1.840724 -3.407466 0.989070 0
M  V30 27 C -2.925001 -4.198083 1.422185 0
M  V30 28 C -2.878763 -4.817049 2.642101 0
M  V30 29 C -1.671514 -4.594048 3.407235 0
M  V30 30 S -0.683544 -3.505077 2.313244 0
M  V30 31 C -1.512933 -0.600621 -1.329589 0
M  V30 32 C 2.859180 1.668997 0.245763 0
M  V30 33 C 4.167108 1.935441 0.599643 0
M  V30 34 C 5.017484 0.918779 3.970950 0
M  V30 35 C 4.791619 0.161233 5.117512 0
M  V30 36 N 4.137797 -0.998797 4.941618 0
M  V30 37 H 3.522584 -3.259779 2.779568 0
M  V30 38 H 1.940863 -2.487787 3.348594 0
M  V30 39 H 3.127923 -3.279754 4.516993 0
M  V30 40 H 3.635246 -0.937852 1.583485 0
M  V30 41 H 6.884497 3.452473 0.063077 0
M  V30 42 H 4.990275 4.138626 -1.864161 0
M  V30 43 H 2.652311 3.656239 -2.488618 0
M  V30 44 H 0.371018 0.628875 0.233213 0
M  V30 45 H -1.635381 1.446057 -1.849371 0
M  V30 46 H -2.499075 2.243127 0.277900 0
M  V30 47 H -1.932451 0.675901 1.075571 0
M  V30 48 H -3.823132 0.693807 -1.273873 0
M  V30 49 H -4.366728 0.837680 0.479956 0
M  V30 50 H -3.779379 -1.232799 1.015001 0
M  V30 51 H -6.852009 -2.661987 -1.154606 0
M  V30 52 H -6.688666 -2.903687 -2.910470 0
M  V30 53 H -6.685035 -1.208996 -2.219314 0
M  V30 54 H -4.043602 -4.181533 -2.549705 0
M  V30 55 H -3.214469 -2.686064 -3.285932 0
M  V30 56 H -4.821790 -3.291507 -3.900808 0
M  V30 57 H -2.024076 -3.290520 -1.068501 0
M  V30 58 H -0.525597 -2.647641 -0.420243 0
M  V30 59 H -3.755018 -4.266307 0.734725 0
M  V30 60 H -3.696768 -5.426716 2.994082 0
M  V30 61 H -1.605814 -5.101984 4.436143 0
M  V30 62 H -2.242744 -0.691850 -2.185353 0
M  V30 63 H -0.568125 -0.993686 -1.721623 0
M  V30 64 H 2.284384 0.989936 0.832322 0
M  V30 65 H 5.548263 1.851037 4.147708 0
M  V30 66 H 5.123349 0.489364 6.088819 0
M  V30 END ATOM
M  V30 BEGIN BOND
M  V30 1 1 1 2
M  V30 2 2 2 3
M  V30 3 1 3 4
M  V30 4 1 4 5
M  V30 5 2 5 6
M  V30 6 1 6 7
M  V30 7 1 7 8
M  V30 8 2 8 9
M  V30 9 1 9 10
M  V30 10 2 10 11
M  V30 11 1 11 12
M  V30 12 2 12 13
M  V30 13 1 12 14
M  V30 14 1 14 15
M  V30 15 1 15 16
M  V30 16 1 16 17
M  V30 17 1 17 18
M  V30 18 1 18 19
M  V30 19 2 19 20
M  V30 20 1 19 21
M  V30 21 1 21 22
M  V30 22 1 21 23
M  V30 23 1 18 24
M  V30 24 1 24 25
M  V30 25 1 25 26
M  V30 26 2 26 27
M  V30 27 1 27 28
M  V30 28 2 28 29
M  V30 29 1 29 30
M  V30 30 1 24 31
M  V30 31 1 11 32
M  V30 32 2 32 33
M  V30 33 2 4 34
M  V30 34 1 34 35
M  V30 35 2 35 36
M  V30 36 1 36 2
M  V30 37 1 33 5
M  V30 38 1 33 8
M  V30 39 1 31 15
M  V30 40 1 30 26
M  V30 41 1 1 37
M  V30 42 1 1 38
M  V30 43 1 1 39
M  V30 44 1 3 40
M  V30 45 1 7 41
M  V30 46 1 9 42
M  V30 47 1 10 43
M  V30 48 1 14 44
M  V30 49 1 15 45 CFG=3
M  V30 50 1 16 46
M  V30 51 1 16 47
M  V30 52 1 17 48
M  V30 53 1 17 49
M  V30 54 1 18 50 CFG=1
M  V30 55 1 22 51
M  V30 56 1 22 52
M  V30 57 1 22 53
M  V30 58 1 23 54
M  V30 59 1 23 55
M  V30 60 1 23 56
M  V30 61 1 25 57
M  V30 62 1 25 58
M  V30 63 1 27 59
M  V30 64 1 28 60
M  V30 65 1 29 61
M  V30 66 1 31 62
M  V30 67 1 31 63
M  V30 68 1 32 64
M  V30 69 1 34 65
M  V30 70 1 35 66
M  V30 END BOND
M  V30 END CTAB
M  END
>  <Dataset>  (512) 
ChEMBL_Kinases

>  <Ligand_Instance>  (512) 
nan

>  <PDB_ID>  (512) 
nan

>  <Standardized_SMILES>  (512) 
Cc1cc(-c2n[nH]c3ccc(C(=O)N[C@@H]4CC[C@@H](C(=O)N(C)C)N(Cc5cccs5)C4)cc23)ccn1

>  <Name>  (512) 
nan

>  <Pocket>  (512) 
nan

>  <ATP_Site>  (512) 
nan

>  <Peripheral>  (512) 
nan

>  <Num_H_Atoms_ProtBoundConf>  (512) 
nan

>  <Num_Resolved_Atoms>  (512) 
nan

>  <Num_Not_Resolved_Atoms>  (512) 
nan

$$$$
CHEMBL3654654
     RDKit          3D

  0  0  0  0  0  0  0  0  0  0999 V3000
M  V30 BEGIN CTAB
M  V30 COUNTS 70 75 0 0 0
M  V30 BEGIN ATOM
M  V30 1 C 3.059268 2.997003 6.589656 0
M  V30 2 C 2.675645 3.093562 5.138035 0
M  V30 3 C 3.579501 2.750763 4.145086 0
M  V30 4 C 3.271996 2.826704 2.802154 0
M  V30 5 C 4.307030 2.440183 1.865184 0
M  V30 6 N 5.577924 2.860393 2.028686 0
M  V30 7 N 6.351746 2.388286 1.053195 0
M  V30 8 C 5.572609 1.645850 0.236631 0
M  V30 9 C 5.762365 0.912271 -0.918145 0
M  V30 10 C 4.705782 0.235266 -1.540813 0
M  V30 11 C 3.429410 0.280363 -1.015127 0
M  V30 12 C 2.380350 -0.449829 -1.719241 0
M  V30 13 O 2.725632 -1.068560 -2.775311 0
M  V30 14 N 1.036164 -0.497407 -1.289605 0
M  V30 15 C -0.089724 -1.165996 -1.868493 0 CFG=2
M  V30 16 C -1.181033 -0.207636 -2.290676 0
M  V30 17 C -2.344591 -0.982329 -2.835106 0
M  V30 18 C -2.953078 -1.886444 -1.758371 0 CFG=1
M  V30 19 C -3.269741 -3.201307 -2.329081 0
M  V30 20 O -3.988912 -3.641910 -3.256627 0
M  V30 21 N -2.977084 -4.583358 -2.178758 0
M  V30 22 C -3.539486 -5.622226 -3.005924 0
M  V30 23 C -3.373239 -6.570078 -1.816467 0
M  V30 24 F -2.909456 -7.821659 -2.149709 0
M  V30 25 F -4.442987 -6.547734 -0.968232 0
M  V30 26 C -2.250187 -5.635828 -1.463528 0
M  V30 27 N -2.061235 -1.913722 -0.662983 0
M  V30 28 C -2.523296 -2.377676 0.585519 0
M  V30 29 C -3.630559 -1.495646 1.110116 0
M  V30 30 C -4.984068 -1.754952 1.140973 0
M  V30 31 C -5.822160 -0.801499 1.668300 0
M  V30 32 C -5.336450 0.398536 2.162888 0
M  V30 33 C -3.973279 0.645002 2.125188 0
M  V30 34 C -3.116663 -0.290707 1.603403 0
M  V30 35 F -1.791751 0.048825 1.611775 0
M  V30 36 C -0.705957 -2.216386 -0.936242 0
M  V30 37 C 3.216879 1.004138 0.133254 0
M  V30 38 C 4.280501 1.661814 0.725049 0
M  V30 39 C 2.004334 3.265855 2.484553 0
M  V30 40 C 1.090055 3.612252 3.480033 0
M  V30 41 N 1.433250 3.523270 4.798993 0
M  V30 42 H 2.434034 3.658460 7.190538 0
M  V30 43 H 4.132565 3.196282 6.645403 0
M  V30 44 H 2.895531 1.947526 6.939616 0
M  V30 45 H 4.570461 2.410210 4.481902 0
M  V30 46 H 7.383284 2.514587 0.869318 0
M  V30 47 H 6.777219 0.877432 -1.330288 0
M  V30 48 H 4.995256 -0.294331 -2.427373 0
M  V30 49 H 0.752085 0.023811 -0.403029 0
M  V30 50 H 0.212133 -1.712914 -2.783472 0
M  V30 51 H -0.780179 0.396340 -3.143072 0
M  V30 52 H -1.468418 0.485595 -1.479343 0
M  V30 53 H -3.142550 -0.290634 -3.164809 0
M  V30 54 H -2.003856 -1.556950 -3.716420 0
M  V30 55 H -3.916627 -1.442317 -1.396236 0
M  V30 56 H -4.561505 -5.513080 -3.359303 0
M  V30 57 H -2.896123 -5.931997 -3.861934 0
M  V30 58 H -2.076254 -5.467219 -0.400211 0
M  V30 59 H -1.330473 -5.890550 -2.049219 0
M  V30 60 H -2.908747 -3.434531 0.558739 0
M  V30 61 H -1.723063 -2.398955 1.349489 0
M  V30 62 H -5.244012 -2.717510 0.730633 0
M  V30 63 H -6.860129 -1.032000 1.676657 0
M  V30 64 H -6.000499 1.144164 2.576725 0
M  V30 65 H -3.607321 1.592566 2.516932 0
M  V30 66 H -0.140184 -2.131156 0.014632 0
M  V30 67 H -0.526948 -3.247747 -1.300133 0
M  V30 68 H 2.240322 1.051982 0.554791 0
M  V30 69 H 1.775186 3.320315 1.429334 0
M  V30 70 H 0.105079 3.950853 3.188401 0
M  V30 END ATOM
M  V30 BEGIN BOND
M  V30 1 1 1 2
M  V30 2 2 2 3
M  V30 3 1 3 4
M  V30 4 1 4 5
M  V30 5 2 5 6
M  V30 6 1 6 7
M  V30 7 1 7 8
M  V30 8 2 8 9
M  V30 9 1 9 10
M  V30 10 2 10 11
M  V30 11 1 11 12
M  V30 12 2 12 13
M  V30 13 1 12 14
M  V30 14 1 14 15
M  V30 15 1 15 16
M  V30 16 1 16 17
M  V30 17 1 17 18
M  V30 18 1 18 19
M  V30 19 2 19 20
M  V30 20 1 19 21
M  V30 21 1 21 22
M  V30 22 1 22 23
M  V30 23 1 23 24
M  V30 24 1 23 25
M  V30 25 1 23 26
M  V30 26 1 18 27
M  V30 27 1 27 28
M  V30 28 1 28 29
M  V30 29 2 29 30
M  V30 30 1 30 31
M  V30 31 2 31 32
M  V30 32 1 32 33
M  V30 33 2 33 34
M  V30 34 1 34 35
M  V30 35 1 27 36
M  V30 36 1 11 37
M  V30 37 2 37 38
M  V30 38 2 4 39
M  V30 39 1 39 40
M  V30 40 2 40 41
M  V30 41 1 41 2
M  V30 42 1 38 5
M  V30 43 1 38 8
M  V30 44 1 36 15
M  V30 45 1 26 21
M  V30 46 1 34 29
M  V30 47 1 1 42
M  V30 48 1 1 43
M  V30 49 1 1 44
M  V30 50 1 3 45
M  V30 51 1 7 46
M  V30 52 1 9 47
M  V30 53 1 10 48
M  V30 54 1 14 49
M  V30 55 1 15 50 CFG=3
M  V30 56 1 16 51
M  V30 57 1 16 52
M  V30 58 1 17 53
M  V30 59 1 17 54
M  V30 60 1 18 55 CFG=1
M  V30 61 1 22 56
M  V30 62 1 22 57
M  V30 63 1 26 58
M  V30 64 1 26 59
M  V30 65 1 28 60
M  V30 66 1 28 61
M  V30 67 1 30 62
M  V30 68 1 31 63
M  V30 69 1 32 64
M  V30 70 1 33 65
M  V30 71 1 36 66
M  V30 72 1 36 67
M  V30 73 1 37 68
M  V30 74 1 39 69
M  V30 75 1 40 70
M  V30 END BOND
M  V30 END CTAB
M  END
>  <Dataset>  (513) 
ChEMBL_Kinases

>  <Ligand_Instance>  (513) 
nan

>  <PDB_ID>  (513) 
nan

>  <Standardized_SMILES>  (513) 
Cc1cc(-c2n[nH]c3ccc(C(=O)N[C@@H]4CC[C@@H](C(=O)N5CC(F)(F)C5)N(Cc5ccccc5F)C4)cc23)ccn1

>  <Name>  (513) 
nan

>  <Pocket>  (513) 
nan

>  <ATP_Site>  (513) 
nan

>  <Peripheral>  (513) 
nan

>  <Num_H_Atoms_ProtBoundConf>  (513) 
nan

>  <Num_Resolved_Atoms>  (513) 
nan

>  <Num_Not_Resolved_Atoms>  (513) 
nan

$$$$
CHEMBL3654653
     RDKit          3D

  0  0  0  0  0  0  0  0  0  0999 V3000
M  V30 BEGIN CTAB
M  V30 COUNTS 75 79 0 0 0
M  V30 BEGIN ATOM
M  V30 1 C 4.109865 -4.360181 -1.154473 0
M  V30 2 C 2.899952 -4.437959 -2.080979 0
M  V30 3 N 2.574857 -3.126978 -2.620892 0
M  V30 4 C 3.261461 -2.941199 -3.919256 0
M  V30 5 C 2.411486 -3.509069 -5.041964 0
M  V30 6 C 1.675452 -2.383905 -1.807648 0
M  V30 7 O 1.460612 -3.249139 -0.881234 0
M  V30 8 C 0.885395 -1.185649 -1.475618 0 CFG=2
M  V30 9 C -0.571615 -1.525102 -1.616239 0
M  V30 10 C -1.287248 -0.523746 -2.491389 0
M  V30 11 C -0.992908 0.877497 -2.062199 0 CFG=1
M  V30 12 N -1.742479 1.220716 -0.890686 0
M  V30 13 C -2.595672 2.301119 -0.541548 0
M  V30 14 O -2.818535 3.232488 -1.357097 0
M  V30 15 C -3.228494 2.351720 0.771630 0
M  V30 16 C -3.837859 3.518596 1.173356 0
M  V30 17 C -4.460007 3.594990 2.403847 0
M  V30 18 C -4.492399 2.515185 3.266199 0
M  V30 19 N -4.978845 2.235647 4.486802 0
M  V30 20 N -4.723614 1.001898 4.864802 0
M  V30 21 C -4.027965 0.363687 3.883197 0
M  V30 22 C -3.544840 -1.008572 3.906026 0
M  V30 23 C -3.863092 -1.690783 2.733633 0
M  V30 24 C -3.487034 -3.008909 2.541176 0
M  V30 25 N -2.803697 -3.587090 3.539412 0
M  V30 26 C -2.473263 -2.980656 4.682327 0
M  V30 27 C -1.716471 -3.716960 5.713669 0
M  V30 28 C -2.842165 -1.666095 4.886947 0
M  V30 29 C -3.885610 1.327275 2.882927 0
M  V30 30 C -3.257376 1.258261 1.633320 0
M  V30 31 C 0.492511 1.119702 -1.910292 0
M  V30 32 N 1.309635 0.000094 -2.171622 0
M  V30 33 C 2.689566 0.318678 -1.943237 0
M  V30 34 C 3.048468 0.836429 -0.621696 0
M  V30 35 C 3.498226 -0.111155 0.305671 0
M  V30 36 C 3.852690 0.148551 1.614929 0
M  V30 37 C 3.759032 1.456031 2.057171 0
M  V30 38 C 3.323480 2.428868 1.188909 0
M  V30 39 C 2.980573 2.114849 -0.114689 0
M  V30 40 F 2.593998 3.115200 -0.932921 0
M  V30 41 H 4.579922 -5.328096 -0.977141 0
M  V30 42 H 4.854650 -3.639303 -1.531404 0
M  V30 43 H 3.763255 -3.963345 -0.162525 0
M  V30 44 H 3.099197 -5.195263 -2.872543 0
M  V30 45 H 2.069625 -4.861261 -1.486790 0
M  V30 46 H 4.283509 -3.287493 -3.886354 0
M  V30 47 H 3.261920 -1.843086 -4.090228 0
M  V30 48 H 2.538865 -4.585152 -5.181768 0
M  V30 49 H 1.331008 -3.320221 -4.842653 0
M  V30 50 H 2.623699 -2.910487 -5.957110 0
M  V30 51 H 1.086434 -0.958897 -0.411850 0
M  V30 52 H -1.039392 -1.456275 -0.599402 0
M  V30 53 H -0.672433 -2.558112 -2.025128 0
M  V30 54 H -2.396885 -0.687961 -2.417990 0
M  V30 55 H -0.991660 -0.745127 -3.538784 0
M  V30 56 H -1.326155 1.566287 -2.863906 0
M  V30 57 H -1.542459 0.454170 -0.207992 0
M  V30 58 H -3.808060 4.375770 0.483836 0
M  V30 59 H -4.948864 4.527994 2.737426 0
M  V30 60 H -5.504762 2.958007 5.045115 0
M  V30 61 H -4.424479 -1.292382 1.877097 0
M  V30 62 H -3.724051 -3.572653 1.630048 0
M  V30 63 H -2.391250 -4.421919 6.285785 0
M  V30 64 H -1.231640 -3.068039 6.458603 0
M  V30 65 H -0.922447 -4.343509 5.215121 0
M  V30 66 H -2.631362 -1.098049 5.770746 0
M  V30 67 H -2.792682 0.344221 1.350744 0
M  V30 68 H 0.607421 1.385707 -0.825428 0
M  V30 69 H 0.765803 2.023759 -2.481975 0
M  V30 70 H 3.020454 1.119021 -2.680332 0
M  V30 71 H 3.375945 -0.546089 -2.170116 0
M  V30 72 H 3.603664 -1.161143 0.053315 0
M  V30 73 H 4.195707 -0.542156 2.333394 0
M  V30 74 H 4.009283 1.766965 3.064471 0
M  V30 75 H 3.238266 3.458665 1.506295 0
M  V30 END ATOM
M  V30 BEGIN BOND
M  V30 1 1 1 2
M  V30 2 1 2 3
M  V30 3 1 3 4
M  V30 4 1 4 5
M  V30 5 1 3 6
M  V30 6 2 6 7
M  V30 7 1 6 8
M  V30 8 1 8 9
M  V30 9 1 9 10
M  V30 10 1 10 11
M  V30 11 1 11 12
M  V30 12 1 12 13
M  V30 13 2 13 14
M  V30 14 1 13 15
M  V30 15 2 15 16
M  V30 16 1 16 17
M  V30 17 2 17 18
M  V30 18 1 18 19
M  V30 19 1 19 20
M  V30 20 2 20 21
M  V30 21 1 21 22
M  V30 22 2 22 23
M  V30 23 1 23 24
M  V30 24 2 24 25
M  V30 25 1 25 26
M  V30 26 1 26 27
M  V30 27 2 26 28
M  V30 28 1 21 29
M  V30 29 2 29 30
M  V30 30 1 11 31
M  V30 31 1 31 32
M  V30 32 1 32 33
M  V30 33 1 33 34
M  V30 34 2 34 35
M  V30 35 1 35 36
M  V30 36 2 36 37
M  V30 37 1 37 38
M  V30 38 2 38 39
M  V30 39 1 39 40
M  V30 40 1 32 8
M  V30 41 1 39 34
M  V30 42 1 30 15
M  V30 43 1 29 18
M  V30 44 1 28 22
M  V30 45 1 1 41
M  V30 46 1 1 42
M  V30 47 1 1 43
M  V30 48 1 2 44
M  V30 49 1 2 45
M  V30 50 1 4 46
M  V30 51 1 4 47
M  V30 52 1 5 48
M  V30 53 1 5 49
M  V30 54 1 5 50
M  V30 55 1 8 51 CFG=1
M  V30 56 1 9 52
M  V30 57 1 9 53
M  V30 58 1 10 54
M  V30 59 1 10 55
M  V30 60 1 11 56 CFG=3
M  V30 61 1 12 57
M  V30 62 1 16 58
M  V30 63 1 17 59
M  V30 64 1 19 60
M  V30 65 1 23 61
M  V30 66 1 24 62
M  V30 67 1 27 63
M  V30 68 1 27 64
M  V30 69 1 27 65
M  V30 70 1 28 66
M  V30 71 1 30 67
M  V30 72 1 31 68
M  V30 73 1 31 69
M  V30 74 1 33 70
M  V30 75 1 33 71
M  V30 76 1 35 72
M  V30 77 1 36 73
M  V30 78 1 37 74
M  V30 79 1 38 75
M  V30 END BOND
M  V30 END CTAB
M  END
>  <Dataset>  (514) 
ChEMBL_Kinases

>  <Ligand_Instance>  (514) 
nan

>  <PDB_ID>  (514) 
nan

>  <Standardized_SMILES>  (514) 
CCN(CC)C(=O)[C@@H]1CC[C@@H](NC(=O)c2ccc3[nH]nc(-c4ccnc(C)c4)c3c2)CN1Cc1ccccc1F

>  <Name>  (514) 
nan

>  <Pocket>  (514) 
nan

>  <ATP_Site>  (514) 
nan

>  <Peripheral>  (514) 
nan

>  <Num_H_Atoms_ProtBoundConf>  (514) 
nan

>  <Num_Resolved_Atoms>  (514) 
nan

>  <Num_Not_Resolved_Atoms>  (514) 
nan

$$$$
CHEMBL3654652
     RDKit          3D

  0  0  0  0  0  0  0  0  0  0999 V3000
M  V30 BEGIN CTAB
M  V30 COUNTS 69 73 0 0 0
M  V30 BEGIN ATOM
M  V30 1 C 3.629371 -0.243319 -0.573451 0
M  V30 2 C 3.378145 1.184445 -0.160270 0
M  V30 3 C 3.050996 1.486552 1.139124 0
M  V30 4 C 2.793639 2.774415 1.622099 0
M  V30 5 C 2.437567 2.975737 3.044740 0
M  V30 6 N 2.918178 3.882033 3.915021 0
M  V30 7 N 2.339982 3.740082 5.109920 0
M  V30 8 C 1.450537 2.730300 5.074431 0
M  V30 9 C 0.579471 2.144011 5.996124 0
M  V30 10 C -0.249893 1.071594 5.655966 0
M  V30 11 C -0.177356 0.608253 4.364116 0
M  V30 12 C -1.041821 -0.508017 4.020632 0
M  V30 13 O -1.842754 -1.060519 4.799400 0
M  V30 14 N -1.024915 -1.063985 2.714444 0
M  V30 15 C -1.703065 -2.131094 2.015646 0 CFG=2
M  V30 16 C -0.654382 -3.172187 1.567594 0
M  V30 17 C 0.018072 -2.677498 0.300494 0
M  V30 18 C -1.019379 -2.713865 -0.838526 0 CFG=1
M  V30 19 C -0.818653 -3.979265 -1.625790 0
M  V30 20 O -1.518041 -5.034910 -1.808753 0
M  V30 21 N 0.452255 -3.961187 -2.312301 0
M  V30 22 C 1.483404 -2.911440 -2.321132 0
M  V30 23 C 0.900494 -5.080402 -3.153448 0
M  V30 24 N -2.309327 -2.650898 -0.244670 0
M  V30 25 C -3.438294 -2.671897 -1.107655 0
M  V30 26 C -3.633638 -1.566625 -2.024489 0
M  V30 27 C -4.529321 -0.578762 -1.594656 0
M  V30 28 C -4.868079 0.576809 -2.263514 0
M  V30 29 C -4.276410 0.805875 -3.485065 0
M  V30 30 C -3.382516 -0.121765 -3.976518 0
M  V30 31 C -3.097492 -1.248692 -3.250095 0
M  V30 32 F -2.238351 -2.154622 -3.760123 0
M  V30 33 C -2.387108 -1.590639 0.748421 0
M  V30 34 C 0.675510 1.174507 3.443765 0
M  V30 35 C 1.502440 2.244779 3.788068 0
M  V30 36 C 2.880139 3.812251 0.710956 0
M  V30 37 C 3.214457 3.495802 -0.611085 0
M  V30 38 N 3.454105 2.222020 -1.026590 0
M  V30 39 H 2.745108 -0.825078 -0.177889 0
M  V30 40 H 4.508516 -0.661349 -0.082309 0
M  V30 41 H 3.591878 -0.366321 -1.656198 0
M  V30 42 H 3.007763 0.634021 1.803563 0
M  V30 43 H 2.554370 4.332642 5.942252 0
M  V30 44 H 0.550827 2.541101 7.006133 0
M  V30 45 H -0.908033 0.652924 6.405554 0
M  V30 46 H -0.400693 -0.700961 1.964563 0
M  V30 47 H -2.408709 -2.686658 2.661585 0
M  V30 48 H -1.115089 -4.149954 1.450784 0
M  V30 49 H 0.083597 -3.217363 2.389616 0
M  V30 50 H 0.777829 -3.441773 0.051032 0
M  V30 51 H 0.460002 -1.690240 0.416234 0
M  V30 52 H -0.858208 -1.873385 -1.523718 0
M  V30 53 H 1.150233 -1.978067 -1.867679 0
M  V30 54 H 1.768945 -2.688035 -3.389017 0
M  V30 55 H 2.345767 -3.317201 -1.758601 0
M  V30 56 H 1.055404 -4.629609 -4.172095 0
M  V30 57 H 0.171033 -5.913309 -3.156668 0
M  V30 58 H 1.895188 -5.377715 -2.769881 0
M  V30 59 H -4.352975 -2.826644 -0.488681 0
M  V30 60 H -3.366704 -3.644825 -1.691781 0
M  V30 61 H -5.054102 -0.667475 -0.630617 0
M  V30 62 H -5.554127 1.299249 -1.898116 0
M  V30 63 H -4.434193 1.652079 -4.119620 0
M  V30 64 H -2.889651 0.005423 -4.927050 0
M  V30 65 H -3.438875 -1.408881 1.041922 0
M  V30 66 H -1.942722 -0.642331 0.428090 0
M  V30 67 H 0.747111 0.842121 2.438144 0
M  V30 68 H 2.689878 4.821319 1.048045 0
M  V30 69 H 3.281502 4.312643 -1.326107 0
M  V30 END ATOM
M  V30 BEGIN BOND
M  V30 1 1 1 2
M  V30 2 2 2 3
M  V30 3 1 3 4
M  V30 4 1 4 5
M  V30 5 2 5 6
M  V30 6 1 6 7
M  V30 7 1 7 8
M  V30 8 2 8 9
M  V30 9 1 9 10
M  V30 10 2 10 11
M  V30 11 1 11 12
M  V30 12 2 12 13
M  V30 13 1 12 14
M  V30 14 1 14 15
M  V30 15 1 15 16
M  V30 16 1 16 17
M  V30 17 1 17 18
M  V30 18 1 18 19
M  V30 19 2 19 20
M  V30 20 1 19 21
M  V30 21 1 21 22
M  V30 22 1 21 23
M  V30 23 1 18 24
M  V30 24 1 24 25
M  V30 25 1 25 26
M  V30 26 2 26 27
M  V30 27 1 27 28
M  V30 28 2 28 29
M  V30 29 1 29 30
M  V30 30 2 30 31
M  V30 31 1 31 32
M  V30 32 1 24 33
M  V30 33 1 11 34
M  V30 34 2 34 35
M  V30 35 2 4 36
M  V30 36 1 36 37
M  V30 37 2 37 38
M  V30 38 1 38 2
M  V30 39 1 35 5
M  V30 40 1 35 8
M  V30 41 1 33 15
M  V30 42 1 31 26
M  V30 43 1 1 39
M  V30 44 1 1 40
M  V30 45 1 1 41
M  V30 46 1 3 42
M  V30 47 1 7 43
M  V30 48 1 9 44
M  V30 49 1 10 45
M  V30 50 1 14 46
M  V30 51 1 15 47 CFG=1
M  V30 52 1 16 48
M  V30 53 1 16 49
M  V30 54 1 17 50
M  V30 55 1 17 51
M  V30 56 1 18 52 CFG=3
M  V30 57 1 22 53
M  V30 58 1 22 54
M  V30 59 1 22 55
M  V30 60 1 23 56
M  V30 61 1 23 57
M  V30 62 1 23 58
M  V30 63 1 25 59
M  V30 64 1 25 60
M  V30 65 1 27 61
M  V30 66 1 28 62
M  V30 67 1 29 63
M  V30 68 1 30 64
M  V30 69 1 33 65
M  V30 70 1 33 66
M  V30 71 1 34 67
M  V30 72 1 36 68
M  V30 73 1 37 69
M  V30 END BOND
M  V30 END CTAB
M  END
>  <Dataset>  (515) 
ChEMBL_Kinases

>  <Ligand_Instance>  (515) 
nan

>  <PDB_ID>  (515) 
nan

>  <Standardized_SMILES>  (515) 
Cc1cc(-c2n[nH]c3ccc(C(=O)N[C@@H]4CC[C@@H](C(=O)N(C)C)N(Cc5ccccc5F)C4)cc23)ccn1

>  <Name>  (515) 
nan

>  <Pocket>  (515) 
nan

>  <ATP_Site>  (515) 
nan

>  <Peripheral>  (515) 
nan

>  <Num_H_Atoms_ProtBoundConf>  (515) 
nan

>  <Num_Resolved_Atoms>  (515) 
nan

>  <Num_Not_Resolved_Atoms>  (515) 
nan

$$$$
CHEMBL3654651
     RDKit          3D

  0  0  0  0  0  0  0  0  0  0999 V3000
M  V30 BEGIN CTAB
M  V30 COUNTS 70 75 0 0 0
M  V30 BEGIN ATOM
M  V30 1 C 1.310889 3.173354 6.804253 0
M  V30 2 C 1.545811 2.053174 5.852916 0
M  V30 3 C 2.624048 2.124042 4.995234 0
M  V30 4 C 2.880186 1.108254 4.095870 0
M  V30 5 C 3.958932 1.008398 3.130877 0
M  V30 6 N 5.254897 1.271591 3.398458 0
M  V30 7 N 6.008681 1.094044 2.320365 0
M  V30 8 C 5.204721 0.704363 1.309853 0
M  V30 9 C 5.407345 0.379102 -0.016910 0
M  V30 10 C 4.344217 0.000287 -0.846772 0
M  V30 11 C 3.048296 -0.055893 -0.343306 0
M  V30 12 C 1.983077 -0.459027 -1.261279 0
M  V30 13 O 2.339768 -0.748917 -2.439815 0
M  V30 14 N 0.624196 -0.540739 -0.921283 0
M  V30 15 C -0.338709 -0.956144 -1.925424 0 CFG=2
M  V30 16 C -1.212787 0.238991 -2.213955 0
M  V30 17 C -2.485495 -0.122010 -2.909488 0
M  V30 18 C -3.069462 -1.419534 -2.491120 0 CFG=1
M  V30 19 C -3.165822 -2.435456 -3.594589 0
M  V30 20 O -3.376910 -1.803977 -4.679270 0
M  V30 21 N -3.042550 -3.850694 -3.433353 0
M  V30 22 C -2.840212 -5.008129 -2.569805 0
M  V30 23 C -2.346775 -5.828247 -3.719487 0
M  V30 24 F -0.984178 -5.818297 -3.942427 0
M  V30 25 F -2.902815 -7.098232 -3.807363 0
M  V30 26 C -3.130237 -4.822930 -4.535030 0
M  V30 27 N -2.498640 -2.057864 -1.371723 0
M  V30 28 C -3.078817 -1.900295 -0.096723 0
M  V30 29 C -3.012506 -0.588994 0.558442 0
M  V30 30 C -3.713247 0.574663 0.402577 0
M  V30 31 F -4.697200 0.553093 -0.517690 0
M  V30 32 C -3.546836 1.741166 1.081265 0
M  V30 33 C -2.570652 1.810339 2.051380 0
M  V30 34 C -1.794939 0.672284 2.292202 0
M  V30 35 C -2.031541 -0.467377 1.557636 0
M  V30 36 F -1.173138 -1.447924 1.958860 0
M  V30 37 C -1.061724 -2.141132 -1.401258 0
M  V30 38 C 2.877722 0.271508 0.974187 0
M  V30 39 C 3.917202 0.645528 1.799569 0
M  V30 40 C 2.017167 0.015875 4.084749 0
M  V30 41 C 0.934050 -0.043631 4.954265 0
M  V30 42 N 0.731129 0.989182 5.820471 0
M  V30 43 H 2.193685 3.369856 7.428962 0
M  V30 44 H 0.958735 4.106242 6.289616 0
M  V30 45 H 0.482474 2.884778 7.485386 0
M  V30 46 H 3.329403 2.943243 4.954855 0
M  V30 47 H 7.056196 1.233831 2.264455 0
M  V30 48 H 6.430149 0.422940 -0.417929 0
M  V30 49 H 4.615377 -0.237554 -1.887271 0
M  V30 50 H 0.414812 -0.285785 0.062364 0
M  V30 51 H 0.207429 -1.186660 -2.893674 0
M  V30 52 H -1.407752 0.874441 -1.331864 0
M  V30 53 H -0.641450 0.904231 -2.928150 0
M  V30 54 H -2.304159 -0.181702 -4.010392 0
M  V30 55 H -3.194648 0.702130 -2.748959 0
M  V30 56 H -4.161363 -1.244339 -2.241539 0
M  V30 57 H -2.098265 -4.933691 -1.783879 0
M  V30 58 H -3.795799 -5.438274 -2.191095 0
M  V30 59 H -2.656173 -4.529156 -5.470358 0
M  V30 60 H -4.209339 -5.129255 -4.601990 0
M  V30 61 H -4.164580 -2.254620 -0.171523 0
M  V30 62 H -2.642265 -2.706933 0.573435 0
M  V30 63 H -4.160455 2.597518 0.872224 0
M  V30 64 H -2.443039 2.738617 2.586108 0
M  V30 65 H -1.071899 0.825922 3.055648 0
M  V30 66 H -0.835381 -2.984883 -2.122525 0
M  V30 67 H -0.670630 -2.471506 -0.447799 0
M  V30 68 H 1.890103 0.230964 1.362077 0
M  V30 69 H 2.024047 -0.889941 3.471147 0
M  V30 70 H 0.199412 -0.808534 5.055814 0
M  V30 END ATOM
M  V30 BEGIN BOND
M  V30 1 1 1 2
M  V30 2 2 2 3
M  V30 3 1 3 4
M  V30 4 1 4 5
M  V30 5 2 5 6
M  V30 6 1 6 7
M  V30 7 1 7 8
M  V30 8 2 8 9
M  V30 9 1 9 10
M  V30 10 2 10 11
M  V30 11 1 11 12
M  V30 12 2 12 13
M  V30 13 1 12 14
M  V30 14 1 14 15
M  V30 15 1 15 16
M  V30 16 1 16 17
M  V30 17 1 17 18
M  V30 18 1 18 19
M  V30 19 2 19 20
M  V30 20 1 19 21
M  V30 21 1 21 22
M  V30 22 1 22 23
M  V30 23 1 23 24
M  V30 24 1 23 25
M  V30 25 1 23 26
M  V30 26 1 18 27
M  V30 27 1 27 28
M  V30 28 1 28 29
M  V30 29 2 29 30
M  V30 30 1 30 31
M  V30 31 1 30 32
M  V30 32 2 32 33
M  V30 33 1 33 34
M  V30 34 2 34 35
M  V30 35 1 35 36
M  V30 36 1 27 37
M  V30 37 1 11 38
M  V30 38 2 38 39
M  V30 39 2 4 40
M  V30 40 1 40 41
M  V30 41 2 41 42
M  V30 42 1 42 2
M  V30 43 1 39 5
M  V30 44 1 39 8
M  V30 45 1 37 15
M  V30 46 1 26 21
M  V30 47 1 35 29
M  V30 48 1 1 43
M  V30 49 1 1 44
M  V30 50 1 1 45
M  V30 51 1 3 46
M  V30 52 1 7 47
M  V30 53 1 9 48
M  V30 54 1 10 49
M  V30 55 1 14 50
M  V30 56 1 15 51 CFG=3
M  V30 57 1 16 52
M  V30 58 1 16 53
M  V30 59 1 17 54
M  V30 60 1 17 55
M  V30 61 1 18 56 CFG=1
M  V30 62 1 22 57
M  V30 63 1 22 58
M  V30 64 1 26 59
M  V30 65 1 26 60
M  V30 66 1 28 61
M  V30 67 1 28 62
M  V30 68 1 32 63
M  V30 69 1 33 64
M  V30 70 1 34 65
M  V30 71 1 37 66
M  V30 72 1 37 67
M  V30 73 1 38 68
M  V30 74 1 40 69
M  V30 75 1 41 70
M  V30 END BOND
M  V30 END CTAB
M  END
>  <Dataset>  (516) 
ChEMBL_Kinases

>  <Ligand_Instance>  (516) 
nan

>  <PDB_ID>  (516) 
nan

>  <Standardized_SMILES>  (516) 
Cc1cc(-c2n[nH]c3ccc(C(=O)N[C@@H]4CC[C@@H](C(=O)N5CC(F)(F)C5)N(Cc5c(F)cccc5F)C4)cc23)ccn1

>  <Name>  (516) 
nan

>  <Pocket>  (516) 
nan

>  <ATP_Site>  (516) 
nan

>  <Peripheral>  (516) 
nan

>  <Num_H_Atoms_ProtBoundConf>  (516) 
nan

>  <Num_Resolved_Atoms>  (516) 
nan

>  <Num_Not_Resolved_Atoms>  (516) 
nan

$$$$
CHEMBL3654650
     RDKit          3D

  0  0  0  0  0  0  0  0  0  0999 V3000
M  V30 BEGIN CTAB
M  V30 COUNTS 69 73 0 0 0
M  V30 BEGIN ATOM
M  V30 1 C 4.485985 -2.568655 7.470325 0
M  V30 2 C 3.960854 -1.556690 6.521741 0
M  V30 3 C 4.609645 -1.289003 5.318215 0
M  V30 4 C 4.147757 -0.345762 4.399926 0
M  V30 5 C 4.957869 -0.201459 3.194906 0
M  V30 6 N 6.298787 -0.124780 3.239966 0
M  V30 7 N 6.796086 0.001209 2.023891 0
M  V30 8 C 5.766023 0.007698 1.161607 0
M  V30 9 C 5.631266 0.109314 -0.227960 0
M  V30 10 C 4.379199 0.083294 -0.847448 0
M  V30 11 C 3.248186 -0.047738 -0.046168 0
M  V30 12 C 1.979309 -0.067027 -0.767999 0
M  V30 13 O 1.963379 0.028357 -2.006473 0
M  V30 14 N 0.708375 -0.191521 -0.140676 0
M  V30 15 C -0.552447 -0.211269 -0.855008 0 CFG=2
M  V30 16 C -1.433178 0.953614 -0.506701 0
M  V30 17 C -2.473481 1.047807 -1.603988 0
M  V30 18 C -2.976656 -0.300789 -2.031209 0 CFG=1
M  V30 19 C -2.637624 -0.648278 -3.435025 0
M  V30 20 O -2.252395 -1.738354 -2.887334 0
M  V30 21 N -2.575397 -0.352867 -4.799544 0
M  V30 22 C -3.008184 0.875823 -5.434603 0
M  V30 23 C -2.017072 -1.402687 -5.627021 0
M  V30 24 N -2.611290 -1.372601 -1.204508 0
M  V30 25 C -3.594479 -2.313568 -0.818180 0
M  V30 26 C -4.748071 -1.792762 -0.082052 0
M  V30 27 C -4.719388 -1.426617 1.243693 0
M  V30 28 F -3.569728 -1.539311 1.948052 0
M  V30 29 C -5.805985 -0.930302 1.965566 0
M  V30 30 C -6.995784 -0.807216 1.265072 0
M  V30 31 C -7.075608 -1.165211 -0.080263 0
M  V30 32 C -5.953450 -1.651835 -0.733424 0
M  V30 33 F -6.165165 -1.965511 -2.039433 0
M  V30 34 C -1.326462 -1.461615 -0.653653 0
M  V30 35 C 3.315492 -0.151628 1.320967 0
M  V30 36 C 4.584920 -0.118486 1.864312 0
M  V30 37 C 2.993755 0.335922 4.728059 0
M  V30 38 C 2.368830 0.053241 5.926318 0
M  V30 39 N 2.840883 -0.865401 6.793726 0
M  V30 40 H 5.310594 -3.130149 7.017676 0
M  V30 41 H 4.789727 -2.012796 8.396423 0
M  V30 42 H 3.674522 -3.271248 7.806145 0
M  V30 43 H 5.496456 -1.863256 5.144169 0
M  V30 44 H 7.786232 0.087027 1.684792 0
M  V30 45 H 6.538186 0.211410 -0.834986 0
M  V30 46 H 4.352976 0.167499 -1.932250 0
M  V30 47 H 0.667349 -0.274538 0.899318 0
M  V30 48 H -0.276768 -0.116721 -1.924722 0
M  V30 49 H -0.891478 1.913307 -0.435037 0
M  V30 50 H -1.966847 0.687257 0.436621 0
M  V30 51 H -3.314357 1.669120 -1.243184 0
M  V30 52 H -2.054660 1.562586 -2.491974 0
M  V30 53 H -4.094682 -0.247618 -2.028272 0
M  V30 54 H -4.107767 0.997447 -5.451296 0
M  V30 55 H -2.531804 1.727062 -4.865904 0
M  V30 56 H -2.570011 0.946000 -6.450940 0
M  V30 57 H -1.015536 -1.080193 -6.000483 0
M  V30 58 H -2.645020 -1.560242 -6.550541 0
M  V30 59 H -1.873720 -2.360249 -5.123727 0
M  V30 60 H -3.080027 -3.119543 -0.215607 0
M  V30 61 H -3.929706 -2.875308 -1.740552 0
M  V30 62 H -5.714356 -0.661133 3.007352 0
M  V30 63 H -7.846931 -0.421802 1.818534 0
M  V30 64 H -8.062652 -1.017013 -0.496959 0
M  V30 65 H -1.361070 -1.760118 0.430007 0
M  V30 66 H -0.779296 -2.308964 -1.163222 0
M  V30 67 H 2.432873 -0.251543 1.917945 0
M  V30 68 H 2.672881 1.051740 3.995764 0
M  V30 69 H 1.458972 0.618867 6.141567 0
M  V30 END ATOM
M  V30 BEGIN BOND
M  V30 1 1 1 2
M  V30 2 2 2 3
M  V30 3 1 3 4
M  V30 4 1 4 5
M  V30 5 2 5 6
M  V30 6 1 6 7
M  V30 7 1 7 8
M  V30 8 2 8 9
M  V30 9 1 9 10
M  V30 10 2 10 11
M  V30 11 1 11 12
M  V30 12 2 12 13
M  V30 13 1 12 14
M  V30 14 1 14 15
M  V30 15 1 15 16
M  V30 16 1 16 17
M  V30 17 1 17 18
M  V30 18 1 18 19
M  V30 19 2 19 20
M  V30 20 1 19 21
M  V30 21 1 21 22
M  V30 22 1 21 23
M  V30 23 1 18 24
M  V30 24 1 24 25
M  V30 25 1 25 26
M  V30 26 2 26 27
M  V30 27 1 27 28
M  V30 28 1 27 29
M  V30 29 2 29 30
M  V30 30 1 30 31
M  V30 31 2 31 32
M  V30 32 1 32 33
M  V30 33 1 24 34
M  V30 34 1 11 35
M  V30 35 2 35 36
M  V30 36 2 4 37
M  V30 37 1 37 38
M  V30 38 2 38 39
M  V30 39 1 39 2
M  V30 40 1 36 5
M  V30 41 1 36 8
M  V30 42 1 34 15
M  V30 43 1 32 26
M  V30 44 1 1 40
M  V30 45 1 1 41
M  V30 46 1 1 42
M  V30 47 1 3 43
M  V30 48 1 7 44
M  V30 49 1 9 45
M  V30 50 1 10 46
M  V30 51 1 14 47
M  V30 52 1 15 48 CFG=3
M  V30 53 1 16 49
M  V30 54 1 16 50
M  V30 55 1 17 51
M  V30 56 1 17 52
M  V30 57 1 18 53 CFG=3
M  V30 58 1 22 54
M  V30 59 1 22 55
M  V30 60 1 22 56
M  V30 61 1 23 57
M  V30 62 1 23 58
M  V30 63 1 23 59
M  V30 64 1 25 60
M  V30 65 1 25 61
M  V30 66 1 29 62
M  V30 67 1 30 63
M  V30 68 1 31 64
M  V30 69 1 34 65
M  V30 70 1 34 66
M  V30 71 1 35 67
M  V30 72 1 37 68
M  V30 73 1 38 69
M  V30 END BOND
M  V30 END CTAB
M  END
>  <Dataset>  (517) 
ChEMBL_Kinases

>  <Ligand_Instance>  (517) 
nan

>  <PDB_ID>  (517) 
nan

>  <Standardized_SMILES>  (517) 
Cc1cc(-c2n[nH]c3ccc(C(=O)N[C@@H]4CC[C@@H](C(=O)N(C)C)N(Cc5c(F)cccc5F)C4)cc23)ccn1

>  <Name>  (517) 
nan

>  <Pocket>  (517) 
nan

>  <ATP_Site>  (517) 
nan

>  <Peripheral>  (517) 
nan

>  <Num_H_Atoms_ProtBoundConf>  (517) 
nan

>  <Num_Resolved_Atoms>  (517) 
nan

>  <Num_Not_Resolved_Atoms>  (517) 
nan

$$$$
CHEMBL3654649
     RDKit          3D

  0  0  0  0  0  0  0  0  0  0999 V3000
M  V30 BEGIN CTAB
M  V30 COUNTS 75 79 0 0 0
M  V30 BEGIN ATOM
M  V30 1 C 3.116009 -5.917712 -0.293996 0
M  V30 2 C 2.632841 -5.734259 -1.707516 0
M  V30 3 N 1.548654 -4.757231 -1.700542 0
M  V30 4 C 0.215547 -5.299713 -1.516007 0
M  V30 5 C -0.123922 -5.391491 -0.025241 0
M  V30 6 C 1.917561 -3.390357 -1.852647 0
M  V30 7 O 3.135530 -3.690458 -1.894584 0
M  V30 8 C 0.970122 -2.255646 -1.903683 0 CFG=2
M  V30 9 C 0.271176 -2.196517 -3.262259 0
M  V30 10 C -0.968347 -1.370506 -2.986186 0
M  V30 11 C -0.467396 0.026833 -2.734400 0 CFG=1
M  V30 12 N -1.142596 0.658458 -1.614903 0
M  V30 13 C -1.897580 1.853236 -1.742058 0
M  V30 14 O -2.015888 2.433832 -2.858516 0
M  V30 15 C -2.576321 2.484476 -0.620312 0
M  V30 16 C -3.274178 3.663610 -0.849212 0
M  V30 17 C -3.955898 4.335910 0.169759 0
M  V30 18 C -3.932116 3.808728 1.438463 0
M  V30 19 N -4.458661 4.173617 2.618381 0
M  V30 20 N -4.129338 3.298715 3.548633 0
M  V30 21 C -3.364944 2.306352 3.028947 0
M  V30 22 C -2.832112 1.179057 3.784702 0
M  V30 23 C -1.491754 0.908070 3.528696 0
M  V30 24 C -0.880602 -0.148294 4.194751 0
M  V30 25 N -1.580809 -0.893659 5.073040 0
M  V30 26 C -2.879062 -0.656547 5.341700 0
M  V30 27 C -3.684431 -1.464417 6.308984 0
M  V30 28 C -3.509017 0.389122 4.691430 0
M  V30 29 C -3.245756 2.636618 1.696473 0
M  V30 30 C -2.567384 1.972343 0.670461 0
M  V30 31 C 1.013717 0.089252 -2.425619 0
M  V30 32 N 1.551412 -0.976252 -1.694636 0
M  V30 33 C 2.911890 -0.966718 -1.328073 0
M  V30 34 C 3.362499 0.229879 -0.605076 0
M  V30 35 C 3.710569 1.451972 -1.152796 0
M  V30 36 F 3.686563 1.588782 -2.499101 0
M  V30 37 C 4.104351 2.543054 -0.418576 0
M  V30 38 C 4.171558 2.457347 0.952668 0
M  V30 39 C 3.850033 1.296068 1.592246 0
M  V30 40 C 3.463548 0.244596 0.792533 0
M  V30 41 F 3.138201 -0.928373 1.424987 0
M  V30 42 H 2.507058 -6.637639 0.273769 0
M  V30 43 H 4.146272 -6.352853 -0.371498 0
M  V30 44 H 3.209482 -4.926166 0.206133 0
M  V30 45 H 2.220846 -6.737756 -2.022233 0
M  V30 46 H 3.453352 -5.484756 -2.378246 0
M  V30 47 H -0.582469 -4.738446 -1.999925 0
M  V30 48 H 0.177927 -6.333055 -1.906956 0
M  V30 49 H -0.181623 -6.463200 0.314334 0
M  V30 50 H -1.134495 -4.975060 0.167776 0
M  V30 51 H 0.657240 -4.941635 0.608129 0
M  V30 52 H 0.186069 -2.435337 -1.151823 0
M  V30 53 H 0.077035 -3.191827 -3.649574 0
M  V30 54 H 0.930481 -1.641644 -3.992370 0
M  V30 55 H -1.403158 -1.805563 -2.041638 0
M  V30 56 H -1.661447 -1.388497 -3.819975 0
M  V30 57 H -0.651422 0.620346 -3.653637 0
M  V30 58 H -1.047202 0.187830 -0.693702 0
M  V30 59 H -3.345245 4.144551 -1.804376 0
M  V30 60 H -4.499598 5.254038 -0.006325 0
M  V30 61 H -5.036149 5.037474 2.712359 0
M  V30 62 H -0.797659 1.396477 2.869816 0
M  V30 63 H 0.157857 -0.454542 4.076228 0
M  V30 64 H -3.154419 -2.452579 6.397524 0
M  V30 65 H -3.749122 -0.996114 7.305570 0
M  V30 66 H -4.685714 -1.699776 5.874034 0
M  V30 67 H -4.542344 0.675853 4.820964 0
M  V30 68 H -2.035630 1.068594 0.851775 0
M  V30 69 H 1.545419 0.227220 -3.384825 0
M  V30 70 H 1.207378 1.041412 -1.834766 0
M  V30 71 H 3.613735 -1.192571 -2.159176 0
M  V30 72 H 3.052060 -1.821491 -0.593492 0
M  V30 73 H 4.366564 3.479486 -0.897651 0
M  V30 74 H 4.476747 3.297298 1.554652 0
M  V30 75 H 3.884626 1.167042 2.659055 0
M  V30 END ATOM
M  V30 BEGIN BOND
M  V30 1 1 1 2
M  V30 2 1 2 3
M  V30 3 1 3 4
M  V30 4 1 4 5
M  V30 5 1 3 6
M  V30 6 2 6 7
M  V30 7 1 6 8
M  V30 8 1 8 9
M  V30 9 1 9 10
M  V30 10 1 10 11
M  V30 11 1 11 12
M  V30 12 1 12 13
M  V30 13 2 13 14
M  V30 14 1 13 15
M  V30 15 2 15 16
M  V30 16 1 16 17
M  V30 17 2 17 18
M  V30 18 1 18 19
M  V30 19 1 19 20
M  V30 20 2 20 21
M  V30 21 1 21 22
M  V30 22 2 22 23
M  V30 23 1 23 24
M  V30 24 2 24 25
M  V30 25 1 25 26
M  V30 26 1 26 27
M  V30 27 2 26 28
M  V30 28 1 21 29
M  V30 29 2 29 30
M  V30 30 1 11 31
M  V30 31 1 31 32
M  V30 32 1 32 33
M  V30 33 1 33 34
M  V30 34 2 34 35
M  V30 35 1 35 36
M  V30 36 1 35 37
M  V30 37 2 37 38
M  V30 38 1 38 39
M  V30 39 2 39 40
M  V30 40 1 40 41
M  V30 41 1 32 8
M  V30 42 1 40 34
M  V30 43 1 30 15
M  V30 44 1 29 18
M  V30 45 1 28 22
M  V30 46 1 1 42
M  V30 47 1 1 43
M  V30 48 1 1 44
M  V30 49 1 2 45
M  V30 50 1 2 46
M  V30 51 1 4 47
M  V30 52 1 4 48
M  V30 53 1 5 49
M  V30 54 1 5 50
M  V30 55 1 5 51
M  V30 56 1 8 52 CFG=1
M  V30 57 1 9 53
M  V30 58 1 9 54
M  V30 59 1 10 55
M  V30 60 1 10 56
M  V30 61 1 11 57 CFG=3
M  V30 62 1 12 58
M  V30 63 1 16 59
M  V30 64 1 17 60
M  V30 65 1 19 61
M  V30 66 1 23 62
M  V30 67 1 24 63
M  V30 68 1 27 64
M  V30 69 1 27 65
M  V30 70 1 27 66
M  V30 71 1 28 67
M  V30 72 1 30 68
M  V30 73 1 31 69
M  V30 74 1 31 70
M  V30 75 1 33 71
M  V30 76 1 33 72
M  V30 77 1 37 73
M  V30 78 1 38 74
M  V30 79 1 39 75
M  V30 END BOND
M  V30 END CTAB
M  END
>  <Dataset>  (518) 
ChEMBL_Kinases

>  <Ligand_Instance>  (518) 
nan

>  <PDB_ID>  (518) 
nan

>  <Standardized_SMILES>  (518) 
CCN(CC)C(=O)[C@@H]1CC[C@@H](NC(=O)c2ccc3[nH]nc(-c4ccnc(C)c4)c3c2)CN1Cc1c(F)cccc1F

>  <Name>  (518) 
nan

>  <Pocket>  (518) 
nan

>  <ATP_Site>  (518) 
nan

>  <Peripheral>  (518) 
nan

>  <Num_H_Atoms_ProtBoundConf>  (518) 
nan

>  <Num_Resolved_Atoms>  (518) 
nan

>  <Num_Not_Resolved_Atoms>  (518) 
nan

$$$$
CHEMBL3654648
     RDKit          3D

  0  0  0  0  0  0  0  0  0  0999 V3000
M  V30 BEGIN CTAB
M  V30 COUNTS 79 83 0 0 0
M  V30 BEGIN ATOM
M  V30 1 C 1.699367 -5.291511 2.662309 0
M  V30 2 C 2.944478 -5.082987 1.834835 0
M  V30 3 C 2.676812 -4.893464 0.370139 0
M  V30 4 N 1.844359 -3.760541 0.104273 0
M  V30 5 C 0.396549 -3.979816 0.060265 0
M  V30 6 C 2.319913 -2.419667 -0.117271 0
M  V30 7 O 3.382686 -3.016080 0.082393 0
M  V30 8 C 1.443816 -1.256458 -0.410221 0 CFG=2
M  V30 9 C 0.688174 -1.421584 -1.675999 0
M  V30 10 C 0.584437 -0.202837 -2.523694 0
M  V30 11 C 0.493125 1.079124 -1.764844 0 CFG=1
M  V30 12 N -0.891034 1.405767 -1.485631 0
M  V30 13 C -1.704179 2.514885 -1.752813 0
M  V30 14 O -1.241452 3.516551 -2.363822 0
M  V30 15 C -3.097636 2.551157 -1.339694 0
M  V30 16 C -3.786104 3.722857 -1.556412 0
M  V30 17 C -5.131267 3.804356 -1.185284 0
M  V30 18 C -5.802690 2.734499 -0.601253 0
M  V30 19 N -7.032699 2.486384 -0.148455 0
M  V30 20 N -7.099200 1.247946 0.314687 0
M  V30 21 C -5.912437 0.641909 0.180603 0
M  V30 22 C -5.671421 -0.734118 0.600737 0
M  V30 23 C -4.979990 -1.512420 -0.326976 0
M  V30 24 C -4.682742 -2.842651 -0.054163 0
M  V30 25 N -5.072028 -3.384981 1.129399 0
M  V30 26 C -5.735025 -2.643679 2.021896 0
M  V30 27 C -6.137156 -3.279501 3.296750 0
M  V30 28 C -6.045883 -1.324965 1.785565 0
M  V30 29 C -5.085667 1.575268 -0.398103 0
M  V30 30 C -3.760512 1.491693 -0.761976 0
M  V30 31 C 1.315529 1.057856 -0.490339 0
M  V30 32 N 2.192484 -0.028532 -0.392255 0
M  V30 33 C 3.455999 -0.031102 -0.993364 0
M  V30 34 C 4.316815 1.100032 -0.584724 0
M  V30 35 C 4.304499 2.387861 -1.071681 0
M  V30 36 F 3.450438 2.665833 -2.074213 0
M  V30 37 C 5.091573 3.415367 -0.656739 0
M  V30 38 C 6.006829 3.186222 0.348625 0
M  V30 39 C 6.081093 1.925476 0.885664 0
M  V30 40 C 5.263367 0.922833 0.431569 0
M  V30 41 O 5.402000 -0.317329 1.024804 0
M  V30 42 C 6.298393 -0.638503 2.046193 0
M  V30 43 H 1.956267 -5.452477 3.741306 0
M  V30 44 H 1.126004 -4.333685 2.644377 0
M  V30 45 H 1.115754 -6.152872 2.347525 0
M  V30 46 H 3.528669 -6.047363 1.924535 0
M  V30 47 H 3.608492 -4.311430 2.250255 0
M  V30 48 H 3.659446 -4.843428 -0.184252 0
M  V30 49 H 2.118262 -5.810506 0.023405 0
M  V30 50 H 0.110773 -4.092108 -1.003531 0
M  V30 51 H -0.163798 -3.140472 0.516954 0
M  V30 52 H 0.120230 -4.933640 0.559370 0
M  V30 53 H 0.727814 -1.201604 0.435945 0
M  V30 54 H -0.349128 -1.812454 -1.429448 0
M  V30 55 H 1.182627 -2.262978 -2.232961 0
M  V30 56 H -0.401998 -0.292601 -3.075244 0
M  V30 57 H 1.334933 -0.238644 -3.328365 0
M  V30 58 H 0.906178 1.892616 -2.389249 0
M  V30 59 H -1.248260 0.569361 -0.978530 0
M  V30 60 H -3.346880 4.609912 -2.008757 0
M  V30 61 H -5.681927 4.716718 -1.347609 0
M  V30 62 H -7.775832 3.243293 -0.198408 0
M  V30 63 H -4.601601 -1.244333 -1.305309 0
M  V30 64 H -4.152034 -3.524936 -0.708455 0
M  V30 65 H -6.760923 -2.615685 3.912602 0
M  V30 66 H -6.730643 -4.223444 3.104136 0
M  V30 67 H -5.227806 -3.612905 3.865334 0
M  V30 68 H -6.576428 -0.695219 2.475128 0
M  V30 69 H -3.228984 0.568566 -0.585725 0
M  V30 70 H 0.525839 0.885340 0.324213 0
M  V30 71 H 1.719842 2.048651 -0.207392 0
M  V30 72 H 3.340849 0.003962 -2.115571 0
M  V30 73 H 4.054880 -0.954913 -0.790260 0
M  V30 74 H 5.030093 4.399466 -1.079644 0
M  V30 75 H 6.633271 4.001715 0.681275 0
M  V30 76 H 6.814943 1.806542 1.668427 0
M  V30 77 H 5.819910 -0.408394 3.011030 0
M  V30 78 H 7.286815 -0.154827 1.923848 0
M  V30 79 H 6.461192 -1.732653 2.012067 0
M  V30 END ATOM
M  V30 BEGIN BOND
M  V30 1 1 1 2
M  V30 2 1 2 3
M  V30 3 1 3 4
M  V30 4 1 4 5
M  V30 5 1 4 6
M  V30 6 2 6 7
M  V30 7 1 6 8
M  V30 8 1 8 9
M  V30 9 1 9 10
M  V30 10 1 10 11
M  V30 11 1 11 12
M  V30 12 1 12 13
M  V30 13 2 13 14
M  V30 14 1 13 15
M  V30 15 2 15 16
M  V30 16 1 16 17
M  V30 17 2 17 18
M  V30 18 1 18 19
M  V30 19 1 19 20
M  V30 20 2 20 21
M  V30 21 1 21 22
M  V30 22 2 22 23
M  V30 23 1 23 24
M  V30 24 2 24 25
M  V30 25 1 25 26
M  V30 26 1 26 27
M  V30 27 2 26 28
M  V30 28 1 21 29
M  V30 29 2 29 30
M  V30 30 1 11 31
M  V30 31 1 31 32
M  V30 32 1 32 33
M  V30 33 1 33 34
M  V30 34 2 34 35
M  V30 35 1 35 36
M  V30 36 1 35 37
M  V30 37 2 37 38
M  V30 38 1 38 39
M  V30 39 2 39 40
M  V30 40 1 40 41
M  V30 41 1 41 42
M  V30 42 1 32 8
M  V30 43 1 40 34
M  V30 44 1 30 15
M  V30 45 1 29 18
M  V30 46 1 28 22
M  V30 47 1 1 43
M  V30 48 1 1 44
M  V30 49 1 1 45
M  V30 50 1 2 46
M  V30 51 1 2 47
M  V30 52 1 3 48
M  V30 53 1 3 49
M  V30 54 1 5 50
M  V30 55 1 5 51
M  V30 56 1 5 52
M  V30 57 1 8 53 CFG=1
M  V30 58 1 9 54
M  V30 59 1 9 55
M  V30 60 1 10 56
M  V30 61 1 10 57
M  V30 62 1 11 58 CFG=3
M  V30 63 1 12 59
M  V30 64 1 16 60
M  V30 65 1 17 61
M  V30 66 1 19 62
M  V30 67 1 23 63
M  V30 68 1 24 64
M  V30 69 1 27 65
M  V30 70 1 27 66
M  V30 71 1 27 67
M  V30 72 1 28 68
M  V30 73 1 30 69
M  V30 74 1 31 70
M  V30 75 1 31 71
M  V30 76 1 33 72
M  V30 77 1 33 73
M  V30 78 1 37 74
M  V30 79 1 38 75
M  V30 80 1 39 76
M  V30 81 1 42 77
M  V30 82 1 42 78
M  V30 83 1 42 79
M  V30 END BOND
M  V30 END CTAB
M  END
>  <Dataset>  (519) 
ChEMBL_Kinases

>  <Ligand_Instance>  (519) 
nan

>  <PDB_ID>  (519) 
nan

>  <Standardized_SMILES>  (519) 
CCCN(C)C(=O)[C@@H]1CC[C@@H](NC(=O)c2ccc3[nH]nc(-c4ccnc(C)c4)c3c2)CN1Cc1c(F)cccc1OC

>  <Name>  (519) 
nan

>  <Pocket>  (519) 
nan

>  <ATP_Site>  (519) 
nan

>  <Peripheral>  (519) 
nan

>  <Num_H_Atoms_ProtBoundConf>  (519) 
nan

>  <Num_Resolved_Atoms>  (519) 
nan

>  <Num_Not_Resolved_Atoms>  (519) 
nan

$$$$
CHEMBL3654647
     RDKit          3D

  0  0  0  0  0  0  0  0  0  0999 V3000
M  V30 BEGIN CTAB
M  V30 COUNTS 76 80 0 0 0
M  V30 BEGIN ATOM
M  V30 1 C -2.226110 -5.789059 -3.715426 0
M  V30 2 C -0.920727 -5.743631 -2.974953 0
M  V30 3 N -0.279370 -4.462561 -2.964557 0
M  V30 4 C 0.614408 -4.290530 -4.121870 0
M  V30 5 C -0.623640 -3.620478 -1.874397 0
M  V30 6 O -1.450050 -4.298902 -1.208071 0
M  V30 7 C -0.424008 -2.306769 -1.205059 0 CFG=2
M  V30 8 C -1.781701 -1.688214 -1.016038 0
M  V30 9 C -2.204403 -0.797259 -2.150095 0
M  V30 10 C -1.121752 0.201503 -2.485486 0 CFG=1
M  V30 11 N -0.885385 0.982843 -1.290820 0
M  V30 12 C -0.896203 2.400343 -1.364501 0
M  V30 13 O -1.110674 2.877669 -2.508083 0
M  V30 14 C -0.682002 3.315063 -0.245442 0
M  V30 15 C -0.584602 4.657273 -0.579680 0
M  V30 16 C -0.391972 5.525172 0.499995 0
M  V30 17 C -0.301085 5.111640 1.813227 0
M  V30 18 N -0.122569 5.746116 2.989917 0
M  V30 19 N -0.115400 4.838046 3.962654 0
M  V30 20 C -0.285625 3.596226 3.469105 0
M  V30 21 C -0.330655 2.362217 4.243924 0
M  V30 22 C 0.532457 1.984205 5.244782 0
M  V30 23 C 0.385484 0.789096 5.913456 0
M  V30 24 N -0.616322 -0.028557 5.588248 0
M  V30 25 C -1.517630 0.240832 4.626154 0
M  V30 26 C -2.643796 -0.669032 4.253465 0
M  V30 27 C -1.355947 1.453688 3.958639 0
M  V30 28 C -0.403127 3.769338 2.103815 0
M  V30 29 C -0.596180 2.861853 1.055300 0
M  V30 30 C 0.076026 -0.642934 -2.886858 0
M  V30 31 N 0.513249 -1.544775 -1.907895 0
M  V30 32 C 1.811687 -1.350404 -1.391953 0
M  V30 33 C 2.261505 -2.271539 -0.334139 0
M  V30 34 C 2.677670 -3.582851 -0.446163 0
M  V30 35 F 2.666595 -4.079098 -1.702525 0
M  V30 36 C 3.083848 -4.354766 0.619478 0
M  V30 37 C 3.088287 -3.818731 1.889418 0
M  V30 38 C 2.690957 -2.518616 2.103754 0
M  V30 39 C 2.292748 -1.794357 0.984875 0
M  V30 40 O 1.897050 -0.493968 1.204856 0
M  V30 41 C 1.874816 0.123549 2.464609 0
M  V30 42 H -2.583949 -4.827278 -4.095654 0
M  V30 43 H -2.078815 -6.418156 -4.643089 0
M  V30 44 H -3.040388 -6.242258 -3.104345 0
M  V30 45 H -1.118194 -6.053341 -1.909867 0
M  V30 46 H -0.233253 -6.553751 -3.343106 0
M  V30 47 H 0.042168 -4.433864 -5.045881 0
M  V30 48 H 1.361078 -5.121357 -4.051146 0
M  V30 49 H 1.162954 -3.341155 -4.059782 0
M  V30 50 H -0.032533 -2.540455 -0.190215 0
M  V30 51 H -2.546603 -2.489015 -0.931124 0
M  V30 52 H -1.853898 -1.098453 -0.081016 0
M  V30 53 H -2.451786 -1.445676 -3.015696 0
M  V30 54 H -3.149459 -0.300987 -1.824590 0
M  V30 55 H -1.410179 0.839532 -3.344267 0
M  V30 56 H -0.704001 0.554819 -0.360193 0
M  V30 57 H -0.648676 5.033799 -1.584353 0
M  V30 58 H -0.309967 6.588831 0.260650 0
M  V30 59 H -0.011081 6.791631 3.070644 0
M  V30 60 H 1.336035 2.692752 5.469796 0
M  V30 61 H 1.083614 0.512190 6.705407 0
M  V30 62 H -2.997349 -1.298552 5.070113 0
M  V30 63 H -3.464771 -0.019372 3.879697 0
M  V30 64 H -2.367659 -1.342306 3.394336 0
M  V30 65 H -2.074595 1.663781 3.194729 0
M  V30 66 H -0.677071 1.812521 1.263484 0
M  V30 67 H 0.910615 0.093566 -3.073314 0
M  V30 68 H -0.151378 -1.075722 -3.878565 0
M  V30 69 H 2.033948 -0.307684 -1.076767 0
M  V30 70 H 2.531197 -1.519866 -2.251727 0
M  V30 71 H 3.388883 -5.372189 0.407343 0
M  V30 72 H 3.407795 -4.432808 2.717702 0
M  V30 73 H 2.679379 -2.058006 3.077881 0
M  V30 74 H 1.470654 1.158477 2.341963 0
M  V30 75 H 1.240055 -0.386652 3.201453 0
M  V30 76 H 2.893979 0.267533 2.881288 0
M  V30 END ATOM
M  V30 BEGIN BOND
M  V30 1 1 1 2
M  V30 2 1 2 3
M  V30 3 1 3 4
M  V30 4 1 3 5
M  V30 5 2 5 6
M  V30 6 1 5 7
M  V30 7 1 7 8
M  V30 8 1 8 9
M  V30 9 1 9 10
M  V30 10 1 10 11
M  V30 11 1 11 12
M  V30 12 2 12 13
M  V30 13 1 12 14
M  V30 14 2 14 15
M  V30 15 1 15 16
M  V30 16 2 16 17
M  V30 17 1 17 18
M  V30 18 1 18 19
M  V30 19 2 19 20
M  V30 20 1 20 21
M  V30 21 2 21 22
M  V30 22 1 22 23
M  V30 23 2 23 24
M  V30 24 1 24 25
M  V30 25 1 25 26
M  V30 26 2 25 27
M  V30 27 1 20 28
M  V30 28 2 28 29
M  V30 29 1 10 30
M  V30 30 1 30 31
M  V30 31 1 31 32
M  V30 32 1 32 33
M  V30 33 2 33 34
M  V30 34 1 34 35
M  V30 35 1 34 36
M  V30 36 2 36 37
M  V30 37 1 37 38
M  V30 38 2 38 39
M  V30 39 1 39 40
M  V30 40 1 40 41
M  V30 41 1 31 7
M  V30 42 1 39 33
M  V30 43 1 29 14
M  V30 44 1 28 17
M  V30 45 1 27 21
M  V30 46 1 1 42
M  V30 47 1 1 43
M  V30 48 1 1 44
M  V30 49 1 2 45
M  V30 50 1 2 46
M  V30 51 1 4 47
M  V30 52 1 4 48
M  V30 53 1 4 49
M  V30 54 1 7 50 CFG=1
M  V30 55 1 8 51
M  V30 56 1 8 52
M  V30 57 1 9 53
M  V30 58 1 9 54
M  V30 59 1 10 55 CFG=3
M  V30 60 1 11 56
M  V30 61 1 15 57
M  V30 62 1 16 58
M  V30 63 1 18 59
M  V30 64 1 22 60
M  V30 65 1 23 61
M  V30 66 1 26 62
M  V30 67 1 26 63
M  V30 68 1 26 64
M  V30 69 1 27 65
M  V30 70 1 29 66
M  V30 71 1 30 67
M  V30 72 1 30 68
M  V30 73 1 32 69
M  V30 74 1 32 70
M  V30 75 1 36 71
M  V30 76 1 37 72
M  V30 77 1 38 73
M  V30 78 1 41 74
M  V30 79 1 41 75
M  V30 80 1 41 76
M  V30 END BOND
M  V30 END CTAB
M  END
>  <Dataset>  (520) 
ChEMBL_Kinases

>  <Ligand_Instance>  (520) 
nan

>  <PDB_ID>  (520) 
nan

>  <Standardized_SMILES>  (520) 
CCN(C)C(=O)[C@@H]1CC[C@@H](NC(=O)c2ccc3[nH]nc(-c4ccnc(C)c4)c3c2)CN1Cc1c(F)cccc1OC

>  <Name>  (520) 
nan

>  <Pocket>  (520) 
nan

>  <ATP_Site>  (520) 
nan

>  <Peripheral>  (520) 
nan

>  <Num_H_Atoms_ProtBoundConf>  (520) 
nan

>  <Num_Resolved_Atoms>  (520) 
nan

>  <Num_Not_Resolved_Atoms>  (520) 
nan

$$$$
CHEMBL3654646
     RDKit          3D

  0  0  0  0  0  0  0  0  0  0999 V3000
M  V30 BEGIN CTAB
M  V30 COUNTS 91 95 0 0 0
M  V30 BEGIN ATOM
M  V30 1 C 2.314369 -5.271731 -0.174418 0
M  V30 2 C 3.001558 -4.072173 0.501747 0
M  V30 3 C 2.678707 -2.885156 -0.333821 0
M  V30 4 C 3.242167 -1.581347 0.105054 0
M  V30 5 N 2.856387 -1.136945 1.414532 0
M  V30 6 C 3.764516 -1.543929 2.490737 0
M  V30 7 C 4.883854 -0.557475 2.705657 0
M  V30 8 C 4.411316 0.815162 3.081421 0
M  V30 9 C 5.680160 1.669540 3.245629 0
M  V30 10 C 1.757755 -0.348322 1.857724 0
M  V30 11 O 1.493730 -0.039899 3.047320 0
M  V30 12 C 0.703019 0.268002 1.000009 0 CFG=2
M  V30 13 C 1.386147 1.253817 0.121348 0
M  V30 14 C 0.936805 2.671828 0.286613 0
M  V30 15 C -0.591406 2.619399 0.131554 0 CFG=1
M  V30 16 N -0.849225 2.224645 -1.202262 0
M  V30 17 C -1.192375 2.908127 -2.371510 0
M  V30 18 O -1.287499 4.129211 -2.219039 0
M  V30 19 C -1.408991 2.214045 -3.633756 0
M  V30 20 C -1.564012 2.933244 -4.803207 0
M  V30 21 C -1.787960 2.277049 -6.008419 0
M  V30 22 C -1.854515 0.908172 -6.027424 0
M  V30 23 N -2.059077 -0.011627 -7.016107 0
M  V30 24 N -2.037170 -1.237663 -6.507701 0
M  V30 25 C -1.823071 -1.200763 -5.195216 0
M  V30 26 C -1.739487 -2.327340 -4.275564 0
M  V30 27 C -0.839848 -2.580705 -3.278092 0
M  V30 28 C -1.008684 -3.746526 -2.546707 0
M  V30 29 N -2.000766 -4.627534 -2.768453 0
M  V30 30 C -2.903458 -4.400408 -3.748863 0
M  V30 31 C -3.985757 -5.390993 -3.966771 0
M  V30 32 C -2.766311 -3.256122 -4.492037 0
M  V30 33 C -1.708080 0.140356 -4.893406 0
M  V30 34 C -1.483771 0.840312 -3.703938 0
M  V30 35 C -1.127836 1.842960 1.233964 0
M  V30 36 N -0.357543 0.782887 1.804606 0
M  V30 37 C -1.192391 -0.271753 2.335260 0
M  V30 38 C -2.210020 0.086419 3.292221 0
M  V30 39 C -1.937132 0.467911 4.594449 0
M  V30 40 F -0.680122 0.552120 5.050060 0
M  V30 41 C -2.870753 0.797703 5.553183 0
M  V30 42 C -4.209089 0.755673 5.223058 0
M  V30 43 C -4.554816 0.385133 3.948556 0
M  V30 44 C -3.584497 0.055115 2.995116 0
M  V30 45 O -4.033531 -0.309371 1.737969 0
M  V30 46 C -5.398177 -0.347495 1.418830 0
M  V30 47 H 1.231438 -5.249239 0.112703 0
M  V30 48 H 2.793302 -6.225524 0.082684 0
M  V30 49 H 2.355469 -5.106003 -1.250595 0
M  V30 50 H 4.075818 -4.269887 0.491642 0
M  V30 51 H 2.535085 -4.048414 1.510224 0
M  V30 52 H 3.135186 -3.088842 -1.347511 0
M  V30 53 H 1.582510 -2.814701 -0.573094 0
M  V30 54 H 2.923664 -0.827351 -0.654119 0
M  V30 55 H 4.347072 -1.636561 0.019262 0
M  V30 56 H 4.188146 -2.524133 2.254346 0
M  V30 57 H 3.260639 -1.642122 3.464516 0
M  V30 58 H 5.563984 -0.484132 1.834909 0
M  V30 59 H 5.512720 -0.931039 3.534983 0
M  V30 60 H 3.869894 0.810690 4.063329 0
M  V30 61 H 3.781931 1.291715 2.326532 0
M  V30 62 H 5.413611 2.541840 3.880571 0
M  V30 63 H 5.945483 1.990712 2.205063 0
M  V30 64 H 6.450443 1.010419 3.698819 0
M  V30 65 H 0.296898 -0.552400 0.376941 0
M  V30 66 H 1.294794 1.001493 -0.955771 0
M  V30 67 H 2.505162 1.285792 0.302742 0
M  V30 68 H 1.302616 3.240066 -0.591639 0
M  V30 69 H 1.224509 3.142757 1.229760 0
M  V30 70 H -0.883882 3.695885 0.214898 0
M  V30 71 H -0.719453 1.173874 -1.164310 0
M  V30 72 H -1.508954 4.028297 -4.779617 0
M  V30 73 H -1.911158 2.842608 -6.939718 0
M  V30 74 H -2.204729 0.279327 -8.009305 0
M  V30 75 H -0.094321 -1.833831 -3.175041 0
M  V30 76 H -0.289228 -3.923336 -1.768888 0
M  V30 77 H -3.685769 -6.374740 -3.529908 0
M  V30 78 H -4.261609 -5.506446 -5.021360 0
M  V30 79 H -4.900261 -5.011794 -3.439526 0
M  V30 80 H -3.533009 -3.156191 -5.257606 0
M  V30 81 H -1.372091 0.215517 -2.827999 0
M  V30 82 H -2.164785 1.471121 1.099229 0
M  V30 83 H -1.266458 2.565629 2.101020 0
M  V30 84 H -0.563025 -1.071749 2.731823 0
M  V30 85 H -1.711367 -0.715120 1.439063 0
M  V30 86 H -2.648642 1.093836 6.563804 0
M  V30 87 H -4.991926 1.001579 5.922553 0
M  V30 88 H -5.592122 0.344566 3.667723 0
M  V30 89 H -5.518291 -0.558108 0.336097 0
M  V30 90 H -5.955422 -1.119552 1.969981 0
M  V30 91 H -5.924071 0.614930 1.607099 0
M  V30 END ATOM
M  V30 BEGIN BOND
M  V30 1 1 1 2
M  V30 2 1 2 3
M  V30 3 1 3 4
M  V30 4 1 4 5
M  V30 5 1 5 6
M  V30 6 1 6 7
M  V30 7 1 7 8
M  V30 8 1 8 9
M  V30 9 1 5 10
M  V30 10 2 10 11
M  V30 11 1 10 12
M  V30 12 1 12 13
M  V30 13 1 13 14
M  V30 14 1 14 15
M  V30 15 1 15 16
M  V30 16 1 16 17
M  V30 17 2 17 18
M  V30 18 1 17 19
M  V30 19 2 19 20
M  V30 20 1 20 21
M  V30 21 2 21 22
M  V30 22 1 22 23
M  V30 23 1 23 24
M  V30 24 2 24 25
M  V30 25 1 25 26
M  V30 26 2 26 27
M  V30 27 1 27 28
M  V30 28 2 28 29
M  V30 29 1 29 30
M  V30 30 1 30 31
M  V30 31 2 30 32
M  V30 32 1 25 33
M  V30 33 2 33 34
M  V30 34 1 15 35
M  V30 35 1 35 36
M  V30 36 1 36 37
M  V30 37 1 37 38
M  V30 38 2 38 39
M  V30 39 1 39 40
M  V30 40 1 39 41
M  V30 41 2 41 42
M  V30 42 1 42 43
M  V30 43 2 43 44
M  V30 44 1 44 45
M  V30 45 1 45 46
M  V30 46 1 36 12
M  V30 47 1 44 38
M  V30 48 1 34 19
M  V30 49 1 33 22
M  V30 50 1 32 26
M  V30 51 1 1 47
M  V30 52 1 1 48
M  V30 53 1 1 49
M  V30 54 1 2 50
M  V30 55 1 2 51
M  V30 56 1 3 52
M  V30 57 1 3 53
M  V30 58 1 4 54
M  V30 59 1 4 55
M  V30 60 1 6 56
M  V30 61 1 6 57
M  V30 62 1 7 58
M  V30 63 1 7 59
M  V30 64 1 8 60
M  V30 65 1 8 61
M  V30 66 1 9 62
M  V30 67 1 9 63
M  V30 68 1 9 64
M  V30 69 1 12 65 CFG=3
M  V30 70 1 13 66
M  V30 71 1 13 67
M  V30 72 1 14 68
M  V30 73 1 14 69
M  V30 74 1 15 70 CFG=3
M  V30 75 1 16 71
M  V30 76 1 20 72
M  V30 77 1 21 73
M  V30 78 1 23 74
M  V30 79 1 27 75
M  V30 80 1 28 76
M  V30 81 1 31 77
M  V30 82 1 31 78
M  V30 83 1 31 79
M  V30 84 1 32 80
M  V30 85 1 34 81
M  V30 86 1 35 82
M  V30 87 1 35 83
M  V30 88 1 37 84
M  V30 89 1 37 85
M  V30 90 1 41 86
M  V30 91 1 42 87
M  V30 92 1 43 88
M  V30 93 1 46 89
M  V30 94 1 46 90
M  V30 95 1 46 91
M  V30 END BOND
M  V30 END CTAB
M  END
>  <Dataset>  (521) 
ChEMBL_Kinases

>  <Ligand_Instance>  (521) 
nan

>  <PDB_ID>  (521) 
nan

>  <Standardized_SMILES>  (521) 
CCCCN(CCCC)C(=O)[C@@H]1CC[C@@H](NC(=O)c2ccc3[nH]nc(-c4ccnc(C)c4)c3c2)CN1Cc1c(F)cccc1OC

>  <Name>  (521) 
nan

>  <Pocket>  (521) 
nan

>  <ATP_Site>  (521) 
nan

>  <Peripheral>  (521) 
nan

>  <Num_H_Atoms_ProtBoundConf>  (521) 
nan

>  <Num_Resolved_Atoms>  (521) 
nan

>  <Num_Not_Resolved_Atoms>  (521) 
nan

$$$$
CHEMBL3654645
     RDKit          3D

  0  0  0  0  0  0  0  0  0  0999 V3000
M  V30 BEGIN CTAB
M  V30 COUNTS 85 89 0 0 0
M  V30 BEGIN ATOM
M  V30 1 C -0.160447 -4.070868 -0.324842 0
M  V30 2 C 0.214575 -3.272365 -1.554628 0
M  V30 3 C 1.546100 -2.611268 -1.290238 0
M  V30 4 N 1.993084 -1.812678 -2.414262 0
M  V30 5 C 2.776085 -2.588045 -3.371988 0
M  V30 6 C 4.250193 -2.556389 -3.034197 0
M  V30 7 C 5.008794 -3.357933 -4.044574 0
M  V30 8 C 1.727981 -0.421913 -2.612505 0
M  V30 9 O 2.173620 0.032489 -3.730803 0
M  V30 10 C 1.039596 0.510918 -1.739619 0 CFG=2
M  V30 11 C 0.998444 1.877017 -2.362310 0
M  V30 12 C -0.234009 2.557959 -1.740094 0
M  V30 13 C -0.194465 2.421393 -0.239851 0 CFG=1
M  V30 14 N -1.336275 1.742359 0.224796 0
M  V30 15 C -2.275138 2.383591 1.063217 0
M  V30 16 O -2.053752 3.584163 1.377021 0
M  V30 17 C -3.489641 1.790097 1.609990 0
M  V30 18 C -4.265107 2.577868 2.447943 0
M  V30 19 C -5.441973 2.065674 3.010087 0
M  V30 20 C -5.864176 0.774050 2.751494 0
M  V30 21 N -6.914631 0.031783 3.138300 0
M  V30 22 N -6.821077 -1.151557 2.585842 0
M  V30 23 C -5.719084 -1.247445 1.817584 0
M  V30 24 C -5.240861 -2.380960 1.034458 0
M  V30 25 C -4.839149 -2.076768 -0.270298 0
M  V30 26 C -4.366099 -3.057041 -1.100042 0
M  V30 27 N -4.280524 -4.328693 -0.672400 0
M  V30 28 C -4.665132 -4.644568 0.589509 0
M  V30 29 C -4.555516 -6.055446 1.030749 0
M  V30 30 C -5.143276 -3.694830 1.450029 0
M  V30 31 C -5.079790 -0.010859 1.908156 0
M  V30 32 C -3.943312 0.511234 1.376675 0
M  V30 33 C 1.141642 1.898020 0.189581 0
M  V30 34 N 1.495820 0.608826 -0.376611 0
M  V30 35 C 2.930081 0.469579 -0.225515 0
M  V30 36 C 3.269790 0.627877 1.203618 0
M  V30 37 C 3.013310 -0.270350 2.211040 0
M  V30 38 F 2.377530 -1.407192 1.923104 0
M  V30 39 C 3.345537 -0.140334 3.540078 0
M  V30 40 C 4.013948 1.016694 3.927950 0
M  V30 41 C 4.308785 1.966782 2.977313 0
M  V30 42 C 3.944779 1.777546 1.640082 0
M  V30 43 O 4.313163 2.815324 0.812942 0
M  V30 44 C 4.989249 3.981965 1.207031 0
M  V30 45 H -1.233789 -4.396634 -0.366082 0
M  V30 46 H 0.441651 -4.991583 -0.194296 0
M  V30 47 H -0.061210 -3.484704 0.614672 0
M  V30 48 H 0.236208 -3.965586 -2.402649 0
M  V30 49 H -0.594043 -2.538897 -1.737100 0
M  V30 50 H 2.275014 -3.397027 -1.040557 0
M  V30 51 H 1.362203 -1.908275 -0.451345 0
M  V30 52 H 2.651947 -2.127085 -4.370772 0
M  V30 53 H 2.483467 -3.637226 -3.426622 0
M  V30 54 H 4.375366 -2.935402 -1.992129 0
M  V30 55 H 4.617241 -1.498988 -3.064937 0
M  V30 56 H 4.498302 -3.264937 -5.019035 0
M  V30 57 H 6.082999 -3.026501 -4.114540 0
M  V30 58 H 4.951720 -4.431250 -3.748832 0
M  V30 59 H -0.037978 0.170862 -1.726238 0
M  V30 60 H 0.758345 1.729172 -3.454529 0
M  V30 61 H 1.883702 2.490368 -2.218490 0
M  V30 62 H -0.213850 3.596116 -2.097486 0
M  V30 63 H -1.124237 2.089265 -2.204652 0
M  V30 64 H -0.226161 3.478939 0.156106 0
M  V30 65 H -1.581736 0.752638 0.003074 0
M  V30 66 H -4.031660 3.607973 2.721681 0
M  V30 67 H -6.052756 2.674952 3.665023 0
M  V30 68 H -7.655680 0.404403 3.783909 0
M  V30 69 H -4.851052 -1.095700 -0.765336 0
M  V30 70 H -4.034763 -2.907092 -2.120418 0
M  V30 71 H -5.572429 -6.447629 1.249557 0
M  V30 72 H -4.028232 -6.679658 0.269944 0
M  V30 73 H -4.000260 -6.082370 2.007898 0
M  V30 74 H -5.460749 -3.889871 2.456047 0
M  V30 75 H -3.300207 -0.061601 0.714190 0
M  V30 76 H 1.235789 1.938045 1.285896 0
M  V30 77 H 1.870407 2.633314 -0.213955 0
M  V30 78 H 3.482697 1.248885 -0.790158 0
M  V30 79 H 3.344859 -0.488200 -0.540321 0
M  V30 80 H 3.122955 -0.871402 4.289287 0
M  V30 81 H 4.297098 1.167896 4.949991 0
M  V30 82 H 4.826094 2.843061 3.320815 0
M  V30 83 H 4.866115 4.739692 0.379994 0
M  V30 84 H 6.041973 3.824741 1.436185 0
M  V30 85 H 4.422371 4.418240 2.075141 0
M  V30 END ATOM
M  V30 BEGIN BOND
M  V30 1 1 1 2
M  V30 2 1 2 3
M  V30 3 1 3 4
M  V30 4 1 4 5
M  V30 5 1 5 6
M  V30 6 1 6 7
M  V30 7 1 4 8
M  V30 8 2 8 9
M  V30 9 1 8 10
M  V30 10 1 10 11
M  V30 11 1 11 12
M  V30 12 1 12 13
M  V30 13 1 13 14
M  V30 14 1 14 15
M  V30 15 2 15 16
M  V30 16 1 15 17
M  V30 17 2 17 18
M  V30 18 1 18 19
M  V30 19 2 19 20
M  V30 20 1 20 21
M  V30 21 1 21 22
M  V30 22 2 22 23
M  V30 23 1 23 24
M  V30 24 2 24 25
M  V30 25 1 25 26
M  V30 26 2 26 27
M  V30 27 1 27 28
M  V30 28 1 28 29
M  V30 29 2 28 30
M  V30 30 1 23 31
M  V30 31 2 31 32
M  V30 32 1 13 33
M  V30 33 1 33 34
M  V30 34 1 34 35
M  V30 35 1 35 36
M  V30 36 2 36 37
M  V30 37 1 37 38
M  V30 38 1 37 39
M  V30 39 2 39 40
M  V30 40 1 40 41
M  V30 41 2 41 42
M  V30 42 1 42 43
M  V30 43 1 43 44
M  V30 44 1 34 10
M  V30 45 1 42 36
M  V30 46 1 32 17
M  V30 47 1 31 20
M  V30 48 1 30 24
M  V30 49 1 1 45
M  V30 50 1 1 46
M  V30 51 1 1 47
M  V30 52 1 2 48
M  V30 53 1 2 49
M  V30 54 1 3 50
M  V30 55 1 3 51
M  V30 56 1 5 52
M  V30 57 1 5 53
M  V30 58 1 6 54
M  V30 59 1 6 55
M  V30 60 1 7 56
M  V30 61 1 7 57
M  V30 62 1 7 58
M  V30 63 1 10 59 CFG=1
M  V30 64 1 11 60
M  V30 65 1 11 61
M  V30 66 1 12 62
M  V30 67 1 12 63
M  V30 68 1 13 64 CFG=1
M  V30 69 1 14 65
M  V30 70 1 18 66
M  V30 71 1 19 67
M  V30 72 1 21 68
M  V30 73 1 25 69
M  V30 74 1 26 70
M  V30 75 1 29 71
M  V30 76 1 29 72
M  V30 77 1 29 73
M  V30 78 1 30 74
M  V30 79 1 32 75
M  V30 80 1 33 76
M  V30 81 1 33 77
M  V30 82 1 35 78
M  V30 83 1 35 79
M  V30 84 1 39 80
M  V30 85 1 40 81
M  V30 86 1 41 82
M  V30 87 1 44 83
M  V30 88 1 44 84
M  V30 89 1 44 85
M  V30 END BOND
M  V30 END CTAB
M  END
>  <Dataset>  (522) 
ChEMBL_Kinases

>  <Ligand_Instance>  (522) 
nan

>  <PDB_ID>  (522) 
nan

>  <Standardized_SMILES>  (522) 
CCCN(CCC)C(=O)[C@@H]1CC[C@@H](NC(=O)c2ccc3[nH]nc(-c4ccnc(C)c4)c3c2)CN1Cc1c(F)cccc1OC

>  <Name>  (522) 
nan

>  <Pocket>  (522) 
nan

>  <ATP_Site>  (522) 
nan

>  <Peripheral>  (522) 
nan

>  <Num_H_Atoms_ProtBoundConf>  (522) 
nan

>  <Num_Resolved_Atoms>  (522) 
nan

>  <Num_Not_Resolved_Atoms>  (522) 
nan

$$$$
CHEMBL3654644
     RDKit          3D

  0  0  0  0  0  0  0  0  0  0999 V3000
M  V30 BEGIN CTAB
M  V30 COUNTS 74 78 0 0 0
M  V30 BEGIN ATOM
M  V30 1 C 2.197778 -3.779869 1.747975 0
M  V30 2 O 2.681590 -2.468818 1.594515 0
M  V30 3 C 2.931337 -1.620201 2.629903 0
M  V30 4 C 2.703876 -2.059775 3.911439 0
M  V30 5 C 2.946587 -1.238368 4.986476 0
M  V30 6 C 3.421880 0.027627 4.726445 0
M  V30 7 C 3.630630 0.413371 3.421442 0
M  V30 8 F 4.112482 1.675783 3.304964 0
M  V30 9 C 3.401138 -0.377936 2.280315 0
M  V30 10 C 3.691602 0.244395 1.001611 0
M  V30 11 N 2.714141 0.750232 0.165685 0
M  V30 12 C 1.724947 -0.160161 -0.385615 0
M  V30 13 C 0.474515 -0.215270 0.397523 0 CFG=2
M  V30 14 N -0.743676 -0.130789 -0.431110 0
M  V30 15 C -1.715693 -1.149582 -0.621248 0
M  V30 16 O -1.456685 -2.195556 0.000002 0
M  V30 17 C -2.859483 -0.885121 -1.478770 0
M  V30 18 C -3.153163 0.284086 -2.152471 0
M  V30 19 C -4.270988 0.369881 -2.921407 0
M  V30 20 C -5.166703 -0.672982 -3.080396 0
M  V30 21 N -6.318096 -0.838299 -3.768389 0
M  V30 22 N -6.743839 -2.079421 -3.537504 0
M  V30 23 C -5.883555 -2.707557 -2.713992 0
M  V30 24 C -6.046745 -4.084886 -2.255804 0
M  V30 25 C -6.403282 -5.016397 -3.220192 0
M  V30 26 C -6.582769 -6.360836 -2.881290 0
M  V30 27 N -6.410956 -6.770169 -1.608538 0
M  V30 28 C -6.069617 -5.893658 -0.671552 0
M  V30 29 C -5.873551 -6.336063 0.749854 0
M  V30 30 C -5.885145 -4.562331 -0.972087 0
M  V30 31 C -4.855522 -1.844589 -2.394220 0
M  V30 32 C -3.719143 -1.969466 -1.596866 0
M  V30 33 C 0.382660 0.713111 1.578647 0
M  V30 34 C 1.163753 1.977861 1.493228 0
M  V30 35 C 2.145179 2.038783 0.390288 0 CFG=1
M  V30 36 C 3.136682 3.097033 0.454039 0
M  V30 37 O 2.664046 4.096570 1.104675 0
M  V30 38 N 4.458179 3.306606 -0.007937 0
M  V30 39 C 4.882851 4.639959 0.432184 0
M  V30 40 C 6.292218 4.824098 -0.078005 0
M  V30 41 O 6.819095 6.062364 0.274145 0
M  V30 42 H 1.203374 -3.823635 2.220255 0
M  V30 43 H 2.878082 -4.411862 2.367124 0
M  V30 44 H 2.122772 -4.297642 0.776205 0
M  V30 45 H 2.330374 -3.062889 4.061549 0
M  V30 46 H 2.749933 -1.636637 5.960532 0
M  V30 47 H 3.608654 0.661624 5.574638 0
M  V30 48 H 4.497287 1.029765 1.147780 0
M  V30 49 H 4.267804 -0.544063 0.403478 0
M  V30 50 H 2.250693 -1.090632 -0.611988 0
M  V30 51 H 1.559934 0.264080 -1.433755 0
M  V30 52 H 0.395952 -1.237923 0.816376 0
M  V30 53 H -0.777339 0.822239 -0.865517 0
M  V30 54 H -2.438025 1.087260 -2.013688 0
M  V30 55 H -4.446376 1.320092 -3.427253 0
M  V30 56 H -6.686466 -0.037863 -4.339077 0
M  V30 57 H -6.568233 -4.790173 -4.283176 0
M  V30 58 H -6.863769 -7.123625 -3.612160 0
M  V30 59 H -5.308250 -5.539100 1.310203 0
M  V30 60 H -6.894826 -6.365868 1.187920 0
M  V30 61 H -5.323384 -7.287009 0.811491 0
M  V30 62 H -5.607820 -3.820012 -0.235901 0
M  V30 63 H -3.572226 -2.909277 -1.113884 0
M  V30 64 H 0.600736 0.235180 2.556529 0
M  V30 65 H -0.697420 0.985312 1.671109 0
M  V30 66 H 0.465023 2.860217 1.331094 0
M  V30 67 H 1.663258 2.242411 2.440050 0
M  V30 68 H 1.527720 2.307761 -0.534867 0
M  V30 69 H 4.817574 2.494303 -0.554595 0
M  V30 70 H 4.898543 4.620591 1.539103 0
M  V30 71 H 4.181390 5.411370 0.020558 0
M  V30 72 H 6.359275 4.659964 -1.163854 0
M  V30 73 H 6.883915 3.986443 0.389833 0
M  V30 74 H 7.739496 6.070733 -0.072610 0
M  V30 END ATOM
M  V30 BEGIN BOND
M  V30 1 1 1 2
M  V30 2 1 2 3
M  V30 3 2 3 4
M  V30 4 1 4 5
M  V30 5 2 5 6
M  V30 6 1 6 7
M  V30 7 1 7 8
M  V30 8 2 7 9
M  V30 9 1 9 10
M  V30 10 1 10 11
M  V30 11 1 11 12
M  V30 12 1 12 13
M  V30 13 1 13 14
M  V30 14 1 14 15
M  V30 15 2 15 16
M  V30 16 1 15 17
M  V30 17 2 17 18
M  V30 18 1 18 19
M  V30 19 2 19 20
M  V30 20 1 20 21
M  V30 21 1 21 22
M  V30 22 2 22 23
M  V30 23 1 23 24
M  V30 24 2 24 25
M  V30 25 1 25 26
M  V30 26 2 26 27
M  V30 27 1 27 28
M  V30 28 1 28 29
M  V30 29 2 28 30
M  V30 30 1 23 31
M  V30 31 2 31 32
M  V30 32 1 13 33
M  V30 33 1 33 34
M  V30 34 1 34 35
M  V30 35 1 35 36
M  V30 36 2 36 37
M  V30 37 1 36 38
M  V30 38 1 38 39
M  V30 39 1 39 40
M  V30 40 1 40 41
M  V30 41 1 9 3
M  V30 42 1 35 11
M  V30 43 1 32 17
M  V30 44 1 31 20
M  V30 45 1 30 24
M  V30 46 1 1 42
M  V30 47 1 1 43
M  V30 48 1 1 44
M  V30 49 1 4 45
M  V30 50 1 5 46
M  V30 51 1 6 47
M  V30 52 1 10 48
M  V30 53 1 10 49
M  V30 54 1 12 50
M  V30 55 1 12 51
M  V30 56 1 13 52 CFG=1
M  V30 57 1 14 53
M  V30 58 1 18 54
M  V30 59 1 19 55
M  V30 60 1 21 56
M  V30 61 1 25 57
M  V30 62 1 26 58
M  V30 63 1 29 59
M  V30 64 1 29 60
M  V30 65 1 29 61
M  V30 66 1 30 62
M  V30 67 1 32 63
M  V30 68 1 33 64
M  V30 69 1 33 65
M  V30 70 1 34 66
M  V30 71 1 34 67
M  V30 72 1 35 68 CFG=3
M  V30 73 1 38 69
M  V30 74 1 39 70
M  V30 75 1 39 71
M  V30 76 1 40 72
M  V30 77 1 40 73
M  V30 78 1 41 74
M  V30 END BOND
M  V30 END CTAB
M  END
>  <Dataset>  (523) 
ChEMBL_Kinases

>  <Ligand_Instance>  (523) 
nan

>  <PDB_ID>  (523) 
nan

>  <Standardized_SMILES>  (523) 
COc1cccc(F)c1CN1C[C@H](NC(=O)c2ccc3[nH]nc(-c4ccnc(C)c4)c3c2)CC[C@H]1C(=O)NCCO

>  <Name>  (523) 
nan

>  <Pocket>  (523) 
nan

>  <ATP_Site>  (523) 
nan

>  <Peripheral>  (523) 
nan

>  <Num_H_Atoms_ProtBoundConf>  (523) 
nan

>  <Num_Resolved_Atoms>  (523) 
nan

>  <Num_Not_Resolved_Atoms>  (523) 
nan

$$$$
CHEMBL3654643
     RDKit          3D

  0  0  0  0  0  0  0  0  0  0999 V3000
M  V30 BEGIN CTAB
M  V30 COUNTS 80 85 0 0 0
M  V30 BEGIN ATOM
M  V30 1 C -1.716913 -2.246089 2.786689 0
M  V30 2 O -0.411335 -2.041563 2.294441 0
M  V30 3 C 0.655212 -2.205778 3.138039 0
M  V30 4 C 0.486681 -2.570508 4.456421 0
M  V30 5 C 1.563276 -2.740212 5.299665 0
M  V30 6 C 2.819849 -2.531486 4.775693 0
M  V30 7 C 2.963789 -2.167456 3.456678 0
M  V30 8 F 4.251707 -1.997062 3.078603 0
M  V30 9 C 1.888051 -1.985820 2.572253 0
M  V30 10 C 2.280260 -1.557985 1.234486 0
M  V30 11 N 2.306716 -0.180217 0.932432 0
M  V30 12 C 1.174975 0.631566 1.115872 0
M  V30 13 C 0.354830 0.912945 -0.127591 0 CFG=2
M  V30 14 N -0.613718 -0.121507 -0.423369 0
M  V30 15 C -2.036138 -0.016803 -0.406340 0
M  V30 16 O -2.456338 1.131014 -0.091152 0
M  V30 17 C -2.907855 -1.121795 -0.720619 0
M  V30 18 C -2.474097 -2.386771 -1.055925 0
M  V30 19 C -3.304612 -3.442466 -1.359097 0
M  V30 20 C -4.663294 -3.213275 -1.323682 0
M  V30 21 N -5.686076 -4.045801 -1.571438 0
M  V30 22 N -6.813945 -3.358932 -1.407587 0
M  V30 23 C -6.495544 -2.086079 -1.054324 0
M  V30 24 C -7.508710 -1.077166 -0.801788 0
M  V30 25 C -8.531145 -1.039882 -1.750053 0
M  V30 26 C -9.592139 -0.158494 -1.699437 0
M  V30 27 N -9.598439 0.698944 -0.652393 0
M  V30 28 C -8.635895 0.693035 0.276545 0
M  V30 29 C -8.713995 1.658449 1.388697 0
M  V30 30 C -7.584586 -0.183902 0.221596 0
M  V30 31 C -5.123679 -1.951521 -0.989502 0
M  V30 32 C -4.287094 -0.881546 -0.682003 0
M  V30 33 C 1.218450 1.250084 -1.304710 0
M  V30 34 C 2.647348 1.458728 -0.793332 0
M  V30 35 C 3.108999 0.150847 -0.209908 0 CFG=1
M  V30 36 C 4.559969 0.138598 0.082687 0
M  V30 37 O 5.379235 -0.043698 1.019534 0
M  V30 38 N 5.306098 0.434110 -1.100297 0
M  V30 39 C 6.741037 0.513895 -1.218923 0
M  V30 40 C 7.206998 1.822169 -1.787827 0
M  V30 41 C 8.567121 1.451548 -2.360759 0
M  V30 42 C 8.446552 0.016172 -2.815759 0
M  V30 43 C 7.158897 -0.515259 -2.272559 0
M  V30 44 H -1.907847 -1.686520 3.727416 0
M  V30 45 H -2.491222 -1.872377 2.065874 0
M  V30 46 H -1.830861 -3.312638 3.038559 0
M  V30 47 H -0.523264 -2.720747 4.811759 0
M  V30 48 H 1.341516 -3.023896 6.304827 0
M  V30 49 H 3.642347 -2.670754 5.454483 0
M  V30 50 H 3.309792 -1.965413 0.962794 0
M  V30 51 H 1.638715 -2.053545 0.434084 0
M  V30 52 H 0.471943 0.373335 1.906400 0
M  V30 53 H 1.527914 1.680794 1.432795 0
M  V30 54 H -0.257280 1.831954 0.105132 0
M  V30 55 H -0.199256 -1.042740 -0.679603 0
M  V30 56 H -1.423045 -2.602038 -1.093470 0
M  V30 57 H -2.909224 -4.411817 -1.614912 0
M  V30 58 H -5.573598 -5.055377 -1.843653 0
M  V30 59 H -8.559995 -1.716757 -2.608402 0
M  V30 60 H -10.374109 -0.136535 -2.434315 0
M  V30 61 H -9.591624 1.397803 2.045594 0
M  V30 62 H -7.775895 1.687272 1.967690 0
M  V30 63 H -8.883883 2.673904 0.945528 0
M  V30 64 H -6.776514 -0.238976 0.939265 0
M  V30 65 H -4.762773 0.059385 -0.435720 0
M  V30 66 H 1.264267 0.386151 -2.003165 0
M  V30 67 H 0.865146 2.139693 -1.861054 0
M  V30 68 H 2.646774 2.305780 -0.094111 0
M  V30 69 H 3.302197 1.783676 -1.641618 0
M  V30 70 H 2.933478 -0.610383 -1.009529 0
M  V30 71 H 4.928776 0.640377 -2.073587 0
M  V30 72 H 7.280411 0.339583 -0.269120 0
M  V30 73 H 6.535718 2.222622 -2.565453 0
M  V30 74 H 7.408389 2.585112 -1.016383 0
M  V30 75 H 8.836060 2.078806 -3.216460 0
M  V30 76 H 9.368285 1.495561 -1.599817 0
M  V30 77 H 8.470713 -0.028742 -3.940215 0
M  V30 78 H 9.302170 -0.621947 -2.500173 0
M  V30 79 H 7.245036 -1.498121 -1.777027 0
M  V30 80 H 6.361660 -0.534065 -3.050557 0
M  V30 END ATOM
M  V30 BEGIN BOND
M  V30 1 1 1 2
M  V30 2 1 2 3
M  V30 3 2 3 4
M  V30 4 1 4 5
M  V30 5 2 5 6
M  V30 6 1 6 7
M  V30 7 1 7 8
M  V30 8 2 7 9
M  V30 9 1 9 10
M  V30 10 1 10 11
M  V30 11 1 11 12
M  V30 12 1 12 13
M  V30 13 1 13 14
M  V30 14 1 14 15
M  V30 15 2 15 16
M  V30 16 1 15 17
M  V30 17 2 17 18
M  V30 18 1 18 19
M  V30 19 2 19 20
M  V30 20 1 20 21
M  V30 21 1 21 22
M  V30 22 2 22 23
M  V30 23 1 23 24
M  V30 24 2 24 25
M  V30 25 1 25 26
M  V30 26 2 26 27
M  V30 27 1 27 28
M  V30 28 1 28 29
M  V30 29 2 28 30
M  V30 30 1 23 31
M  V30 31 2 31 32
M  V30 32 1 13 33
M  V30 33 1 33 34
M  V30 34 1 34 35
M  V30 35 1 35 36
M  V30 36 2 36 37
M  V30 37 1 36 38
M  V30 38 1 38 39
M  V30 39 1 39 40
M  V30 40 1 40 41
M  V30 41 1 41 42
M  V30 42 1 42 43
M  V30 43 1 9 3
M  V30 44 1 35 11
M  V30 45 1 43 39
M  V30 46 1 32 17
M  V30 47 1 31 20
M  V30 48 1 30 24
M  V30 49 1 1 44
M  V30 50 1 1 45
M  V30 51 1 1 46
M  V30 52 1 4 47
M  V30 53 1 5 48
M  V30 54 1 6 49
M  V30 55 1 10 50
M  V30 56 1 10 51
M  V30 57 1 12 52
M  V30 58 1 12 53
M  V30 59 1 13 54 CFG=1
M  V30 60 1 14 55
M  V30 61 1 18 56
M  V30 62 1 19 57
M  V30 63 1 21 58
M  V30 64 1 25 59
M  V30 65 1 26 60
M  V30 66 1 29 61
M  V30 67 1 29 62
M  V30 68 1 29 63
M  V30 69 1 30 64
M  V30 70 1 32 65
M  V30 71 1 33 66
M  V30 72 1 33 67
M  V30 73 1 34 68
M  V30 74 1 34 69
M  V30 75 1 35 70 CFG=3
M  V30 76 1 38 71
M  V30 77 1 39 72
M  V30 78 1 40 73
M  V30 79 1 40 74
M  V30 80 1 41 75
M  V30 81 1 41 76
M  V30 82 1 42 77
M  V30 83 1 42 78
M  V30 84 1 43 79
M  V30 85 1 43 80
M  V30 END BOND
M  V30 END CTAB
M  END
>  <Dataset>  (524) 
ChEMBL_Kinases

>  <Ligand_Instance>  (524) 
nan

>  <PDB_ID>  (524) 
nan

>  <Standardized_SMILES>  (524) 
COc1cccc(F)c1CN1C[C@H](NC(=O)c2ccc3[nH]nc(-c4ccnc(C)c4)c3c2)CC[C@H]1C(=O)NC1CCCC1

>  <Name>  (524) 
nan

>  <Pocket>  (524) 
nan

>  <ATP_Site>  (524) 
nan

>  <Peripheral>  (524) 
nan

>  <Num_H_Atoms_ProtBoundConf>  (524) 
nan

>  <Num_Resolved_Atoms>  (524) 
nan

>  <Num_Not_Resolved_Atoms>  (524) 
nan

$$$$
CHEMBL3654642
     RDKit          3D

  0  0  0  0  0  0  0  0  0  0999 V3000
M  V30 BEGIN CTAB
M  V30 COUNTS 76 80 0 0 0
M  V30 BEGIN ATOM
M  V30 1 C 4.031325 -1.481606 4.778926 0
M  V30 2 O 3.372425 -0.507268 4.021406 0
M  V30 3 C 2.216687 0.104531 4.478692 0
M  V30 4 C 1.709850 -0.259728 5.709087 0
M  V30 5 C 0.566445 0.294150 6.245706 0
M  V30 6 C -0.055136 1.250450 5.470672 0
M  V30 7 C 0.409007 1.655453 4.227519 0
M  V30 8 F -0.240882 2.607894 3.493947 0
M  V30 9 C 1.573469 1.068483 3.718495 0
M  V30 10 C 2.087731 1.479420 2.400959 0
M  V30 11 N 1.872536 0.607115 1.329018 0
M  V30 12 C 0.570159 0.259140 0.946363 0
M  V30 13 C 0.566495 -0.028685 -0.528663 0 CFG=2
M  V30 14 N -0.744197 -0.249566 -1.071397 0
M  V30 15 C -1.390091 0.431196 -2.112965 0
M  V30 16 O -0.814223 1.381004 -2.710859 0
M  V30 17 C -2.736725 0.097324 -2.564799 0
M  V30 18 C -3.284086 0.831512 -3.594883 0
M  V30 19 C -4.563795 0.606080 -4.112120 0
M  V30 20 C -5.332866 -0.409357 -3.566180 0
M  V30 21 N -6.551971 -0.907230 -3.781822 0
M  V30 22 N -6.791502 -1.900586 -2.951849 0
M  V30 23 C -5.727348 -2.097060 -2.149001 0
M  V30 24 C -5.665391 -3.121741 -1.114080 0
M  V30 25 C -4.505701 -3.870828 -1.048354 0
M  V30 26 C -4.342019 -4.862085 -0.108587 0
M  V30 27 N -5.302048 -5.151230 0.792237 0
M  V30 28 C -6.441642 -4.428105 0.741181 0
M  V30 29 C -7.511596 -4.714797 1.709117 0
M  V30 30 C -6.635301 -3.427740 -0.189372 0
M  V30 31 C -4.769453 -1.149949 -2.520720 0
M  V30 32 C -3.494925 -0.913373 -2.017071 0
M  V30 33 C 1.331087 -1.324813 -0.686136 0
M  V30 34 C 2.723786 -1.116172 -0.205281 0
M  V30 35 C 2.967497 0.101116 0.617037 0 CFG=1
M  V30 36 C 3.577484 1.123275 -0.310600 0
M  V30 37 O 3.378060 2.323007 -0.705675 0
M  V30 38 N 4.725323 0.617370 -0.948293 0
M  V30 39 C 5.608886 1.224122 -1.894565 0
M  V30 40 C 5.704798 0.472399 -3.204899 0
M  V30 41 C 7.031911 1.325673 -1.360932 0
M  V30 42 H 3.376601 -2.326272 5.043966 0
M  V30 43 H 4.858841 -1.887929 4.157135 0
M  V30 44 H 4.438537 -1.066907 5.723244 0
M  V30 45 H 2.206129 -1.017476 6.319458 0
M  V30 46 H 0.138050 0.035457 7.205113 0
M  V30 47 H -0.957273 1.747775 5.795012 0
M  V30 48 H 1.617141 2.471550 2.134845 0
M  V30 49 H 3.171881 1.704234 2.462895 0
M  V30 50 H -0.121945 1.101893 1.138696 0
M  V30 51 H 0.286859 -0.674283 1.504436 0
M  V30 52 H 1.077955 0.793768 -1.051177 0
M  V30 53 H -1.209313 -1.037190 -0.568849 0
M  V30 54 H -2.763149 1.647209 -4.089536 0
M  V30 55 H -4.976071 1.192769 -4.921200 0
M  V30 56 H -7.207624 -0.537757 -4.518680 0
M  V30 57 H -3.629028 -3.784941 -1.685980 0
M  V30 58 H -3.446723 -5.489458 -0.006261 0
M  V30 59 H -7.459181 -4.001964 2.563159 0
M  V30 60 H -8.496999 -4.606753 1.226566 0
M  V30 61 H -7.355401 -5.727477 2.161663 0
M  V30 62 H -7.542509 -2.825935 -0.257382 0
M  V30 63 H -3.090132 -1.503999 -1.207164 0
M  V30 64 H 0.793897 -2.082224 -0.064797 0
M  V30 65 H 1.246826 -1.603822 -1.763672 0
M  V30 66 H 3.367266 -1.165093 -1.134026 0
M  V30 67 H 3.031712 -2.052623 0.348084 0
M  V30 68 H 3.785430 -0.129549 1.331802 0
M  V30 69 H 5.182464 -0.318909 -0.862970 0
M  V30 70 H 5.259439 2.247541 -2.109317 0
M  V30 71 H 4.756632 0.359074 -3.735054 0
M  V30 72 H 6.392827 1.045348 -3.859164 0
M  V30 73 H 6.226657 -0.516916 -3.050697 0
M  V30 74 H 7.151013 2.262691 -0.781341 0
M  V30 75 H 7.291031 0.441354 -0.763043 0
M  V30 76 H 7.706704 1.388192 -2.219576 0
M  V30 END ATOM
M  V30 BEGIN BOND
M  V30 1 1 1 2
M  V30 2 1 2 3
M  V30 3 2 3 4
M  V30 4 1 4 5
M  V30 5 2 5 6
M  V30 6 1 6 7
M  V30 7 1 7 8
M  V30 8 2 7 9
M  V30 9 1 9 10
M  V30 10 1 10 11
M  V30 11 1 11 12
M  V30 12 1 12 13
M  V30 13 1 13 14
M  V30 14 1 14 15
M  V30 15 2 15 16
M  V30 16 1 15 17
M  V30 17 2 17 18
M  V30 18 1 18 19
M  V30 19 2 19 20
M  V30 20 1 20 21
M  V30 21 1 21 22
M  V30 22 2 22 23
M  V30 23 1 23 24
M  V30 24 2 24 25
M  V30 25 1 25 26
M  V30 26 2 26 27
M  V30 27 1 27 28
M  V30 28 1 28 29
M  V30 29 2 28 30
M  V30 30 1 23 31
M  V30 31 2 31 32
M  V30 32 1 13 33
M  V30 33 1 33 34
M  V30 34 1 34 35
M  V30 35 1 35 36
M  V30 36 2 36 37
M  V30 37 1 36 38
M  V30 38 1 38 39
M  V30 39 1 39 40
M  V30 40 1 39 41
M  V30 41 1 9 3
M  V30 42 1 35 11
M  V30 43 1 32 17
M  V30 44 1 31 20
M  V30 45 1 30 24
M  V30 46 1 1 42
M  V30 47 1 1 43
M  V30 48 1 1 44
M  V30 49 1 4 45
M  V30 50 1 5 46
M  V30 51 1 6 47
M  V30 52 1 10 48
M  V30 53 1 10 49
M  V30 54 1 12 50
M  V30 55 1 12 51
M  V30 56 1 13 52 CFG=3
M  V30 57 1 14 53
M  V30 58 1 18 54
M  V30 59 1 19 55
M  V30 60 1 21 56
M  V30 61 1 25 57
M  V30 62 1 26 58
M  V30 63 1 29 59
M  V30 64 1 29 60
M  V30 65 1 29 61
M  V30 66 1 30 62
M  V30 67 1 32 63
M  V30 68 1 33 64
M  V30 69 1 33 65
M  V30 70 1 34 66
M  V30 71 1 34 67
M  V30 72 1 35 68 CFG=1
M  V30 73 1 38 69
M  V30 74 1 39 70
M  V30 75 1 40 71
M  V30 76 1 40 72
M  V30 77 1 40 73
M  V30 78 1 41 74
M  V30 79 1 41 75
M  V30 80 1 41 76
M  V30 END BOND
M  V30 END CTAB
M  END
>  <Dataset>  (525) 
ChEMBL_Kinases

>  <Ligand_Instance>  (525) 
nan

>  <PDB_ID>  (525) 
nan

>  <Standardized_SMILES>  (525) 
COc1cccc(F)c1CN1C[C@H](NC(=O)c2ccc3[nH]nc(-c4ccnc(C)c4)c3c2)CC[C@H]1C(=O)NC(C)C

>  <Name>  (525) 
nan

>  <Pocket>  (525) 
nan

>  <ATP_Site>  (525) 
nan

>  <Peripheral>  (525) 
nan

>  <Num_H_Atoms_ProtBoundConf>  (525) 
nan

>  <Num_Resolved_Atoms>  (525) 
nan

>  <Num_Not_Resolved_Atoms>  (525) 
nan

$$$$
CHEMBL3654558
     RDKit          3D

  0  0  0  0  0  0  0  0  0  0999 V3000
M  V30 BEGIN CTAB
M  V30 COUNTS 67 72 0 0 0
M  V30 BEGIN ATOM
M  V30 1 C 1.825648 -3.068769 0.101305 0
M  V30 2 O 2.667753 -2.095838 0.676756 0
M  V30 3 C 2.498704 -1.792449 2.016448 0
M  V30 4 C 1.572116 -2.358171 2.860443 0
M  V30 5 C 1.464174 -2.007598 4.187163 0
M  V30 6 C 2.333776 -1.049661 4.654664 0
M  V30 7 C 3.257021 -0.487330 3.808303 0
M  V30 8 F 4.033989 0.436650 4.428389 0
M  V30 9 C 3.381053 -0.832509 2.451836 0
M  V30 10 C 4.439865 -0.046179 1.778241 0
M  V30 11 N 3.994363 1.061987 1.088849 0
M  V30 12 C 3.139892 1.048997 -0.011032 0
M  V30 13 C 1.734956 1.418240 0.492802 0 CFG=2
M  V30 14 N 0.837358 1.181106 -0.600360 0
M  V30 15 C -0.246528 0.266462 -0.547644 0
M  V30 16 O -0.292669 -0.290732 0.589204 0
M  V30 17 C -1.127637 0.065339 -1.694075 0
M  V30 18 C -1.084794 0.702674 -2.916493 0
M  V30 19 C -2.022091 0.350115 -3.864901 0
M  V30 20 C -2.980178 -0.607044 -3.618285 0
M  V30 21 N -3.973107 -1.115083 -4.352014 0
M  V30 22 N -4.621373 -2.027702 -3.647505 0
M  V30 23 C -4.076147 -2.154569 -2.417573 0
M  V30 24 C -4.500031 -3.051355 -1.352621 0
M  V30 25 C -4.756885 -4.354654 -1.782051 0
M  V30 26 C -5.166591 -5.331633 -0.906419 0
M  V30 27 C -5.305667 -4.936131 0.420623 0
M  V30 28 N -5.690970 -5.682805 1.489200 0
M  V30 29 C -5.674268 -4.862154 2.560326 0
M  V30 30 C -5.280914 -3.605990 2.169336 0
M  V30 31 N -5.065578 -3.696107 0.852795 0
M  V30 32 C -4.663739 -2.747914 -0.020372 0
M  V30 33 C -3.026164 -1.248973 -2.392121 0
M  V30 34 C -2.097095 -0.911170 -1.428126 0
M  V30 35 C 1.804909 2.866042 0.906345 0
M  V30 36 C 2.870681 3.007659 1.956968 0 CFG=2
M  V30 37 C 3.185641 4.492048 2.189330 0
M  V30 38 F 2.056521 5.155688 2.610675 0
M  V30 39 F 3.605781 5.074589 0.999932 0
M  V30 40 F 4.172006 4.651155 3.114532 0
M  V30 41 C 4.173226 2.367494 1.598960 0
M  V30 42 H 0.810522 -2.706781 -0.076838 0
M  V30 43 H 1.847995 -3.943375 0.813631 0
M  V30 44 H 2.306004 -3.383117 -0.866906 0
M  V30 45 H 0.923525 -3.102801 2.421448 0
M  V30 46 H 0.726488 -2.468618 4.828378 0
M  V30 47 H 2.219531 -0.801925 5.695864 0
M  V30 48 H 4.895940 -0.795566 1.038929 0
M  V30 49 H 5.297346 0.145628 2.477237 0
M  V30 50 H 3.386157 1.957028 -0.672327 0
M  V30 51 H 3.129941 0.157369 -0.667054 0
M  V30 52 H 1.558639 0.840960 1.400844 0
M  V30 53 H 1.047693 1.749987 -1.465169 0
M  V30 54 H -0.294384 1.439725 -3.012125 0
M  V30 55 H -1.943038 0.880769 -4.806533 0
M  V30 56 H -4.214179 -0.840721 -5.340437 0
M  V30 57 H -4.652276 -4.680541 -2.819537 0
M  V30 58 H -5.381801 -6.361859 -1.178966 0
M  V30 59 H -5.945972 -5.219538 3.552402 0
M  V30 60 H -5.173398 -2.742777 2.799444 0
M  V30 61 H -4.455390 -1.740623 0.254140 0
M  V30 62 H -2.195613 -1.456766 -0.492623 0
M  V30 63 H 1.938765 3.550435 0.058929 0
M  V30 64 H 0.840296 3.143819 1.422965 0
M  V30 65 H 2.471115 2.638846 2.947053 0
M  V30 66 H 4.657268 3.047485 0.838253 0
M  V30 67 H 4.812579 2.409015 2.501941 0
M  V30 END ATOM
M  V30 BEGIN BOND
M  V30 1 1 1 2
M  V30 2 1 2 3
M  V30 3 2 3 4
M  V30 4 1 4 5
M  V30 5 2 5 6
M  V30 6 1 6 7
M  V30 7 1 7 8
M  V30 8 2 7 9
M  V30 9 1 9 10
M  V30 10 1 10 11
M  V30 11 1 11 12
M  V30 12 1 12 13
M  V30 13 1 13 14
M  V30 14 1 14 15
M  V30 15 2 15 16
M  V30 16 1 15 17
M  V30 17 2 17 18
M  V30 18 1 18 19
M  V30 19 2 19 20
M  V30 20 1 20 21
M  V30 21 1 21 22
M  V30 22 2 22 23
M  V30 23 1 23 24
M  V30 24 1 24 25
M  V30 25 2 25 26
M  V30 26 1 26 27
M  V30 27 2 27 28
M  V30 28 1 28 29
M  V30 29 2 29 30
M  V30 30 1 30 31
M  V30 31 1 31 32
M  V30 32 1 23 33
M  V30 33 2 33 34
M  V30 34 1 13 35
M  V30 35 1 35 36
M  V30 36 1 36 37
M  V30 37 1 37 38
M  V30 38 1 37 39
M  V30 39 1 37 40
M  V30 40 1 36 41
M  V30 41 1 9 3
M  V30 42 1 41 11
M  V30 43 1 34 17
M  V30 44 1 33 20
M  V30 45 2 32 24
M  V30 46 1 31 27
M  V30 47 1 1 42
M  V30 48 1 1 43
M  V30 49 1 1 44
M  V30 50 1 4 45
M  V30 51 1 5 46
M  V30 52 1 6 47
M  V30 53 1 10 48
M  V30 54 1 10 49
M  V30 55 1 12 50
M  V30 56 1 12 51
M  V30 57 1 13 52 CFG=1
M  V30 58 1 14 53
M  V30 59 1 18 54
M  V30 60 1 19 55
M  V30 61 1 21 56
M  V30 62 1 25 57
M  V30 63 1 26 58
M  V30 64 1 29 59
M  V30 65 1 30 60
M  V30 66 1 32 61
M  V30 67 1 34 62
M  V30 68 1 35 63
M  V30 69 1 35 64
M  V30 70 1 36 65 CFG=1
M  V30 71 1 41 66
M  V30 72 1 41 67
M  V30 END BOND
M  V30 END CTAB
M  END
>  <Dataset>  (526) 
ChEMBL_Kinases

>  <Ligand_Instance>  (526) 
nan

>  <PDB_ID>  (526) 
nan

>  <Standardized_SMILES>  (526) 
COc1cccc(F)c1CN1C[C@H](NC(=O)c2ccc3[nH]nc(-c4ccc5nccn5c4)c3c2)C[C@H](C(F)(F)F)C1

>  <Name>  (526) 
nan

>  <Pocket>  (526) 
nan

>  <ATP_Site>  (526) 
nan

>  <Peripheral>  (526) 
nan

>  <Num_H_Atoms_ProtBoundConf>  (526) 
nan

>  <Num_Resolved_Atoms>  (526) 
nan

>  <Num_Not_Resolved_Atoms>  (526) 
nan

$$$$
CHEMBL3654625
     RDKit          3D

  0  0  0  0  0  0  0  0  0  0999 V3000
M  V30 BEGIN CTAB
M  V30 COUNTS 60 64 0 0 0
M  V30 BEGIN ATOM
M  V30 1 O -0.855859 -2.569403 3.151791 0
M  V30 2 C -1.240687 -1.813392 2.223335 0
M  V30 3 N -0.561651 -0.611017 1.810454 0
M  V30 4 C 0.649754 -0.279394 2.537218 0
M  V30 5 C 0.453378 0.987067 3.313183 0
M  V30 6 O 1.585443 1.533803 3.839571 0
M  V30 7 C 2.665472 0.707041 3.997977 0
M  V30 8 C 3.538593 0.852686 2.748072 0
M  V30 9 N 2.562410 0.992270 1.647243 0
M  V30 10 C 3.354355 1.056573 0.438307 0
M  V30 11 C 2.572018 1.269224 -0.814043 0
M  V30 12 C 1.848465 2.553475 -0.676449 0
M  V30 13 C 0.495818 2.735805 -0.401715 0
M  V30 14 C -0.076855 3.975268 -0.292288 0
M  V30 15 C 0.710217 5.108567 -0.459458 0
M  V30 16 C 2.052063 4.963364 -0.732386 0
M  V30 17 C 2.593253 3.703225 -0.835306 0
M  V30 18 F 3.938134 3.729337 -1.110218 0
M  V30 19 C 1.850582 -0.263232 1.640061 0
M  V30 20 C -2.477607 -2.247809 1.554455 0
M  V30 21 C -3.789286 -1.930043 1.869741 0
M  V30 22 C -4.804388 -2.456941 1.100862 0
M  V30 23 C -4.540861 -3.294348 0.023641 0
M  V30 24 N -5.414734 -3.898100 -0.834650 0
M  V30 25 N -4.669605 -4.594736 -1.690039 0
M  V30 26 C -3.371020 -4.435415 -1.380952 0
M  V30 27 C -2.248588 -5.045595 -2.093150 0
M  V30 28 C -2.428046 -6.380186 -2.386677 0
M  V30 29 C -1.496828 -7.147434 -3.050439 0
M  V30 30 N -0.341533 -6.525951 -3.426509 0
M  V30 31 C -0.154069 -5.225251 -3.146452 0
M  V30 32 C -1.073053 -4.446868 -2.485679 0
M  V30 33 C -3.254465 -3.607177 -0.286881 0
M  V30 34 C -2.216558 -3.091235 0.469279 0
M  V30 35 H -0.953888 -0.040244 1.026271 0
M  V30 36 H 0.809908 -1.081229 3.288563 0
M  V30 37 H -0.234393 0.773391 4.156595 0
M  V30 38 H -0.059417 1.800357 2.729768 0
M  V30 39 H 2.455900 -0.340110 4.218399 0
M  V30 40 H 3.293955 1.154516 4.821775 0
M  V30 41 H 4.104152 1.791983 2.760553 0
M  V30 42 H 4.220223 0.012870 2.598853 0
M  V30 43 H 3.990749 0.139908 0.302733 0
M  V30 44 H 4.092311 1.906942 0.493422 0
M  V30 45 H 1.955349 0.431511 -1.122862 0
M  V30 46 H 3.344393 1.400471 -1.629298 0
M  V30 47 H -0.072569 1.829385 -0.280871 0
M  V30 48 H -1.136949 3.981799 -0.075693 0
M  V30 49 H 0.172596 6.061810 -0.355418 0
M  V30 50 H 2.547320 5.912932 -0.840038 0
M  V30 51 H 2.572062 -1.076796 1.875692 0
M  V30 52 H 1.490309 -0.438976 0.612741 0
M  V30 53 H -3.871107 -1.273520 2.723642 0
M  V30 54 H -5.793889 -2.152664 1.422651 0
M  V30 55 H -6.449094 -3.805655 -0.793480 0
M  V30 56 H -3.324027 -6.949739 -2.120544 0
M  V30 57 H -1.608587 -8.193902 -3.294553 0
M  V30 58 H 0.767481 -4.700317 -3.437859 0
M  V30 59 H -0.986105 -3.401450 -2.230628 0
M  V30 60 H -1.224270 -3.392412 0.152553 0
M  V30 END ATOM
M  V30 BEGIN BOND
M  V30 1 2 1 2
M  V30 2 1 2 3
M  V30 3 1 3 4
M  V30 4 1 4 5
M  V30 5 1 5 6
M  V30 6 1 6 7
M  V30 7 1 7 8
M  V30 8 1 8 9
M  V30 9 1 9 10
M  V30 10 1 10 11
M  V30 11 1 11 12
M  V30 12 2 12 13
M  V30 13 1 13 14
M  V30 14 2 14 15
M  V30 15 1 15 16
M  V30 16 2 16 17
M  V30 17 1 17 18
M  V30 18 1 9 19
M  V30 19 1 2 20
M  V30 20 2 20 21
M  V30 21 1 21 22
M  V30 22 2 22 23
M  V30 23 1 23 24
M  V30 24 1 24 25
M  V30 25 2 25 26
M  V30 26 1 26 27
M  V30 27 2 27 28
M  V30 28 1 28 29
M  V30 29 2 29 30
M  V30 30 1 30 31
M  V30 31 2 31 32
M  V30 32 1 26 33
M  V30 33 2 33 34
M  V30 34 1 19 4
M  V30 35 1 34 20
M  V30 36 1 17 12
M  V30 37 1 33 23
M  V30 38 1 32 27
M  V30 39 1 3 35
M  V30 40 1 4 36
M  V30 41 1 5 37
M  V30 42 1 5 38
M  V30 43 1 7 39
M  V30 44 1 7 40
M  V30 45 1 8 41
M  V30 46 1 8 42
M  V30 47 1 10 43
M  V30 48 1 10 44
M  V30 49 1 11 45
M  V30 50 1 11 46
M  V30 51 1 13 47
M  V30 52 1 14 48
M  V30 53 1 15 49
M  V30 54 1 16 50
M  V30 55 1 19 51
M  V30 56 1 19 52
M  V30 57 1 21 53
M  V30 58 1 22 54
M  V30 59 1 24 55
M  V30 60 1 28 56
M  V30 61 1 29 57
M  V30 62 1 31 58
M  V30 63 1 32 59
M  V30 64 1 34 60
M  V30 END BOND
M  V30 END CTAB
M  END
>  <Dataset>  (527) 
ChEMBL_Kinases

>  <Ligand_Instance>  (527) 
nan

>  <PDB_ID>  (527) 
nan

>  <Standardized_SMILES>  (527) 
O=C(NC1COCCN(CCc2ccccc2F)C1)c1ccc2[nH]nc(-c3ccncc3)c2c1

>  <Name>  (527) 
nan

>  <Pocket>  (527) 
nan

>  <ATP_Site>  (527) 
nan

>  <Peripheral>  (527) 
nan

>  <Num_H_Atoms_ProtBoundConf>  (527) 
nan

>  <Num_Resolved_Atoms>  (527) 
nan

>  <Num_Not_Resolved_Atoms>  (527) 
nan

$$$$
CHEMBL3654626
     RDKit          3D

  0  0  0  0  0  0  0  0  0  0999 V3000
M  V30 BEGIN CTAB
M  V30 COUNTS 60 64 0 0 0
M  V30 BEGIN ATOM
M  V30 1 O -0.760443 -2.759117 3.870889 0
M  V30 2 C -1.011411 -2.346595 2.708543 0
M  V30 3 N -0.235260 -1.298578 2.185334 0
M  V30 4 C 0.852255 -0.638281 2.882409 0
M  V30 5 C 0.502502 0.810705 3.058573 0
M  V30 6 O 1.563166 1.648274 3.348035 0
M  V30 7 C 2.541767 1.071386 4.110664 0
M  V30 8 C 3.600836 0.540567 3.175488 0
M  V30 9 N 2.921194 0.274536 1.898491 0
M  V30 10 C 4.000755 -0.021000 0.983334 0
M  V30 11 C 3.590766 -0.294721 -0.419653 0
M  V30 12 C 2.876219 0.881788 -0.979824 0
M  V30 13 C 1.520024 1.016316 -0.868499 0
M  V30 14 C 0.777404 2.079088 -1.360352 0
M  V30 15 C 1.446916 3.094104 -2.019602 0
M  V30 16 C 2.828666 2.998651 -2.156343 0
M  V30 17 F 3.453831 4.007462 -2.806282 0
M  V30 18 C 3.516706 1.917794 -1.646963 0
M  V30 19 C 2.116708 -0.879037 2.118098 0
M  V30 20 C -2.105285 -2.998664 1.983724 0
M  V30 21 C -2.773383 -4.022056 2.636039 0
M  V30 22 C -3.830954 -4.709961 2.032518 0
M  V30 23 C -4.138141 -4.279455 0.751093 0
M  V30 24 N -5.101370 -4.747661 -0.077229 0
M  V30 25 N -5.062891 -4.064741 -1.210106 0
M  V30 26 C -4.091393 -3.136051 -1.176030 0
M  V30 27 C -3.736805 -2.189737 -2.228624 0
M  V30 28 C -3.643852 -2.676117 -3.537348 0
M  V30 29 C -3.306599 -1.760188 -4.518169 0
M  V30 30 N -3.062730 -0.455472 -4.324606 0
M  V30 31 C -3.152836 0.009364 -3.065696 0
M  V30 32 C -3.484894 -0.846840 -2.036152 0
M  V30 33 C -3.500819 -3.266949 0.065410 0
M  V30 34 C -2.466976 -2.623316 0.705938 0
M  V30 35 H -0.429988 -0.943695 1.223157 0
M  V30 36 H 1.002913 -1.058505 3.901968 0
M  V30 37 H -0.246886 0.951033 3.865015 0
M  V30 38 H 0.035082 1.198780 2.129077 0
M  V30 39 H 2.166834 0.323795 4.834891 0
M  V30 40 H 3.021264 1.894153 4.698863 0
M  V30 41 H 4.357965 1.327405 2.960407 0
M  V30 42 H 4.073668 -0.395902 3.530769 0
M  V30 43 H 4.757271 0.796306 1.024723 0
M  V30 44 H 4.527428 -0.919049 1.410366 0
M  V30 45 H 4.554104 -0.400969 -1.005959 0
M  V30 46 H 3.009558 -1.223987 -0.516136 0
M  V30 47 H 0.917475 0.259586 -0.362840 0
M  V30 48 H -0.299194 2.131955 -1.242137 0
M  V30 49 H 0.858639 3.916538 -2.398042 0
M  V30 50 H 4.591614 1.873182 -1.769799 0
M  V30 51 H 2.761608 -1.653568 2.631197 0
M  V30 52 H 1.885655 -1.341482 1.138467 0
M  V30 53 H -2.530280 -4.359481 3.645389 0
M  V30 54 H -4.383775 -5.514455 2.497651 0
M  V30 55 H -5.810363 -5.515082 0.055196 0
M  V30 56 H -3.815340 -3.704618 -3.829740 0
M  V30 57 H -3.220312 -2.086029 -5.555185 0
M  V30 58 H -2.964147 1.064030 -2.854035 0
M  V30 59 H -3.555962 -0.470079 -1.028731 0
M  V30 60 H -1.951829 -1.830326 0.197236 0
M  V30 END ATOM
M  V30 BEGIN BOND
M  V30 1 2 1 2
M  V30 2 1 2 3
M  V30 3 1 3 4
M  V30 4 1 4 5
M  V30 5 1 5 6
M  V30 6 1 6 7
M  V30 7 1 7 8
M  V30 8 1 8 9
M  V30 9 1 9 10
M  V30 10 1 10 11
M  V30 11 1 11 12
M  V30 12 2 12 13
M  V30 13 1 13 14
M  V30 14 2 14 15
M  V30 15 1 15 16
M  V30 16 1 16 17
M  V30 17 2 16 18
M  V30 18 1 9 19
M  V30 19 1 2 20
M  V30 20 2 20 21
M  V30 21 1 21 22
M  V30 22 2 22 23
M  V30 23 1 23 24
M  V30 24 1 24 25
M  V30 25 2 25 26
M  V30 26 1 26 27
M  V30 27 2 27 28
M  V30 28 1 28 29
M  V30 29 2 29 30
M  V30 30 1 30 31
M  V30 31 2 31 32
M  V30 32 1 26 33
M  V30 33 2 33 34
M  V30 34 1 19 4
M  V30 35 1 34 20
M  V30 36 1 18 12
M  V30 37 1 33 23
M  V30 38 1 32 27
M  V30 39 1 3 35
M  V30 40 1 4 36
M  V30 41 1 5 37
M  V30 42 1 5 38
M  V30 43 1 7 39
M  V30 44 1 7 40
M  V30 45 1 8 41
M  V30 46 1 8 42
M  V30 47 1 10 43
M  V30 48 1 10 44
M  V30 49 1 11 45
M  V30 50 1 11 46
M  V30 51 1 13 47
M  V30 52 1 14 48
M  V30 53 1 15 49
M  V30 54 1 18 50
M  V30 55 1 19 51
M  V30 56 1 19 52
M  V30 57 1 21 53
M  V30 58 1 22 54
M  V30 59 1 24 55
M  V30 60 1 28 56
M  V30 61 1 29 57
M  V30 62 1 31 58
M  V30 63 1 32 59
M  V30 64 1 34 60
M  V30 END BOND
M  V30 END CTAB
M  END
>  <Dataset>  (528) 
ChEMBL_Kinases

>  <Ligand_Instance>  (528) 
nan

>  <PDB_ID>  (528) 
nan

>  <Standardized_SMILES>  (528) 
O=C(NC1COCCN(CCc2cccc(F)c2)C1)c1ccc2[nH]nc(-c3ccncc3)c2c1

>  <Name>  (528) 
nan

>  <Pocket>  (528) 
nan

>  <ATP_Site>  (528) 
nan

>  <Peripheral>  (528) 
nan

>  <Num_H_Atoms_ProtBoundConf>  (528) 
nan

>  <Num_Resolved_Atoms>  (528) 
nan

>  <Num_Not_Resolved_Atoms>  (528) 
nan

$$$$
CHEMBL3654627
     RDKit          3D

  0  0  0  0  0  0  0  0  0  0999 V3000
M  V30 BEGIN CTAB
M  V30 COUNTS 63 68 0 0 0
M  V30 BEGIN ATOM
M  V30 1 C 2.881791 -2.210959 5.613659 0
M  V30 2 C 2.170956 -1.171034 4.793863 0
M  V30 3 C 2.928409 -0.389591 3.945949 0
M  V30 4 C 2.263394 0.578733 3.183400 0
M  V30 5 C 2.999384 1.442186 2.265157 0
M  V30 6 N 4.155894 2.066515 2.551283 0
M  V30 7 N 4.562280 2.778514 1.489763 0
M  V30 8 C 3.660869 2.623910 0.483923 0
M  V30 9 C 3.544415 3.097316 -0.809274 0
M  V30 10 C 2.459284 2.739672 -1.615573 0
M  V30 11 C 1.467827 1.899592 -1.142437 0
M  V30 12 C 0.368662 1.573717 -2.042136 0
M  V30 13 O 0.388808 2.086946 -3.180761 0
M  V30 14 N -0.703051 0.711794 -1.680532 0
M  V30 15 C -1.805302 0.389913 -2.591665 0
M  V30 16 C -3.056552 0.823166 -1.894676 0
M  V30 17 C -3.609988 -0.125905 -0.913851 0
M  V30 18 C -3.211858 -1.563852 -1.067108 0 CFG=1
M  V30 19 C -3.969329 -2.096334 -2.265672 0
M  V30 20 C -3.187773 -1.492333 -3.412562 0
M  V30 21 C -1.874109 -1.106142 -2.803373 0 CFG=2
M  V30 22 N -1.850208 -1.664673 -1.467202 0
M  V30 23 C -1.318949 -3.003448 -1.438829 0
M  V30 24 C -1.346282 -3.469396 -0.028104 0
M  V30 25 C -2.226136 -4.339972 0.528326 0
M  V30 26 C -2.166483 -4.713096 1.863709 0
M  V30 27 C -1.161979 -4.172322 2.668056 0
M  V30 28 C -0.252479 -3.281821 2.123822 0
M  V30 29 C -0.345797 -2.931481 0.776692 0
M  V30 30 F 0.590436 -2.046484 0.315202 0
M  V30 31 C 1.604309 1.440274 0.148026 0
M  V30 32 C 2.661212 1.774089 0.967757 0
M  V30 33 C 0.897021 0.678565 3.338194 0
M  V30 34 C 0.185579 -0.129771 4.202128 0
M  V30 35 N 0.829840 -1.062184 4.935606 0
M  V30 36 H 3.530979 -2.849261 5.010321 0
M  V30 37 H 2.172198 -2.767877 6.244745 0
M  V30 38 H 3.531669 -1.644808 6.343561 0
M  V30 39 H 3.992862 -0.482290 3.838804 0
M  V30 40 H 5.425017 3.372543 1.401127 0
M  V30 41 H 4.320415 3.752640 -1.174880 0
M  V30 42 H 2.472746 3.173363 -2.618578 0
M  V30 43 H -0.723227 0.280051 -0.729753 0
M  V30 44 H -1.659078 0.921558 -3.550455 0
M  V30 45 H -3.845369 1.023163 -2.679283 0
M  V30 46 H -2.934237 1.825662 -1.387604 0
M  V30 47 H -3.257716 0.174002 0.115856 0
M  V30 48 H -4.731297 -0.003026 -0.869958 0
M  V30 49 H -3.423452 -2.151528 -0.149760 0
M  V30 50 H -3.948520 -3.197334 -2.356328 0
M  V30 51 H -4.999784 -1.693141 -2.210224 0
M  V30 52 H -3.063326 -2.253335 -4.232828 0
M  V30 53 H -3.689250 -0.620105 -3.877242 0
M  V30 54 H -1.068875 -1.525001 -3.401841 0
M  V30 55 H -1.903445 -3.715026 -2.054237 0
M  V30 56 H -0.269163 -2.958047 -1.772927 0
M  V30 57 H -2.987169 -4.737236 -0.122541 0
M  V30 58 H -2.878581 -5.407132 2.279223 0
M  V30 59 H -1.053328 -4.412027 3.702254 0
M  V30 60 H 0.536227 -2.859610 2.761688 0
M  V30 61 H 0.831128 0.783131 0.522001 0
M  V30 62 H 0.322147 1.390127 2.793844 0
M  V30 63 H -0.889131 -0.086127 4.354554 0
M  V30 END ATOM
M  V30 BEGIN BOND
M  V30 1 1 1 2
M  V30 2 2 2 3
M  V30 3 1 3 4
M  V30 4 1 4 5
M  V30 5 2 5 6
M  V30 6 1 6 7
M  V30 7 1 7 8
M  V30 8 2 8 9
M  V30 9 1 9 10
M  V30 10 2 10 11
M  V30 11 1 11 12
M  V30 12 2 12 13
M  V30 13 1 12 14
M  V30 14 1 14 15
M  V30 15 1 15 16
M  V30 16 1 16 17
M  V30 17 1 17 18
M  V30 18 1 18 19
M  V30 19 1 19 20
M  V30 20 1 20 21
M  V30 21 1 21 22
M  V30 22 1 22 23
M  V30 23 1 23 24
M  V30 24 2 24 25
M  V30 25 1 25 26
M  V30 26 2 26 27
M  V30 27 1 27 28
M  V30 28 2 28 29
M  V30 29 1 29 30
M  V30 30 1 11 31
M  V30 31 2 31 32
M  V30 32 2 4 33
M  V30 33 1 33 34
M  V30 34 2 34 35
M  V30 35 1 35 2
M  V30 36 1 32 5
M  V30 37 1 32 8
M  V30 38 1 21 15
M  V30 39 1 29 24
M  V30 40 1 22 18
M  V30 41 1 1 36
M  V30 42 1 1 37
M  V30 43 1 1 38
M  V30 44 1 3 39
M  V30 45 1 7 40
M  V30 46 1 9 41
M  V30 47 1 10 42
M  V30 48 1 14 43
M  V30 49 1 15 44
M  V30 50 1 16 45
M  V30 51 1 16 46
M  V30 52 1 17 47
M  V30 53 1 17 48
M  V30 54 1 18 49 CFG=1
M  V30 55 1 19 50
M  V30 56 1 19 51
M  V30 57 1 20 52
M  V30 58 1 20 53
M  V30 59 1 21 54 CFG=3
M  V30 60 1 23 55
M  V30 61 1 23 56
M  V30 62 1 25 57
M  V30 63 1 26 58
M  V30 64 1 27 59
M  V30 65 1 28 60
M  V30 66 1 31 61
M  V30 67 1 33 62
M  V30 68 1 34 63
M  V30 END BOND
M  V30 END CTAB
M  END
>  <Dataset>  (529) 
ChEMBL_Kinases

>  <Ligand_Instance>  (529) 
nan

>  <PDB_ID>  (529) 
nan

>  <Standardized_SMILES>  (529) 
Cc1cc(-c2n[nH]c3ccc(C(=O)NC4CC[C@H]5CC[C@@H]4N5Cc4ccccc4F)cc23)ccn1

>  <Name>  (529) 
nan

>  <Pocket>  (529) 
nan

>  <ATP_Site>  (529) 
nan

>  <Peripheral>  (529) 
nan

>  <Num_H_Atoms_ProtBoundConf>  (529) 
nan

>  <Num_Resolved_Atoms>  (529) 
nan

>  <Num_Not_Resolved_Atoms>  (529) 
nan

$$$$
CHEMBL3654628
     RDKit          3D

  0  0  0  0  0  0  0  0  0  0999 V3000
M  V30 BEGIN CTAB
M  V30 COUNTS 67 72 0 0 0
M  V30 BEGIN ATOM
M  V30 1 C 3.561769 1.054790 5.369051 0
M  V30 2 O 3.391433 0.588916 4.061335 0
M  V30 3 C 4.416204 -0.038475 3.396396 0
M  V30 4 C 5.620653 -0.215407 4.018614 0
M  V30 5 C 6.668382 -0.843645 3.385716 0
M  V30 6 C 6.480470 -1.293392 2.107048 0
M  V30 7 C 5.245936 -1.087722 1.527315 0
M  V30 8 F 5.118990 -1.559716 0.245404 0
M  V30 9 C 4.144852 -0.454246 2.124297 0
M  V30 10 C 2.922770 -0.309661 1.306116 0
M  V30 11 N 2.859344 0.937638 0.680398 0
M  V30 12 C 2.820221 2.144546 1.375209 0
M  V30 13 C 1.500210 2.451747 2.051130 0
M  V30 14 C 0.380406 2.465270 1.012164 0
M  V30 15 C 0.504049 1.145667 0.288311 0
M  V30 16 N -0.505264 0.946824 -0.731771 0
M  V30 17 C -1.364885 -0.176127 -0.678939 0
M  V30 18 O -1.150037 -0.943985 0.320456 0
M  V30 19 C -2.402219 -0.436868 -1.672254 0
M  V30 20 C -2.690941 0.351745 -2.748716 0
M  V30 21 C -3.700091 -0.013143 -3.614362 0
M  V30 22 C -4.462162 -1.168706 -3.451018 0
M  V30 23 N -5.466005 -1.791157 -4.071308 0
M  V30 24 N -5.787220 -2.912211 -3.414615 0
M  V30 25 C -4.988720 -3.043405 -2.340236 0
M  V30 26 C -5.091600 -4.169116 -1.420636 0
M  V30 27 C -5.219398 -5.451460 -1.955211 0
M  V30 28 C -5.324410 -6.597834 -1.199393 0
M  V30 29 N -5.304670 -6.497407 0.159249 0
M  V30 30 C -5.181945 -5.268858 0.715352 0
M  V30 31 C -5.163184 -5.187002 2.197959 0
M  V30 32 C -5.077319 -4.125652 -0.044519 0
M  V30 33 C -4.144163 -1.952513 -2.344166 0
M  V30 34 C -3.150807 -1.595044 -1.490703 0
M  V30 35 C 1.865915 1.070713 -0.353376 0
M  V30 36 C 2.271747 2.433208 -0.926890 0
M  V30 37 C 2.914724 3.169301 0.218486 0
M  V30 38 H 2.611807 1.428970 5.777630 0
M  V30 39 H 3.963381 0.265380 6.040554 0
M  V30 40 H 4.268287 1.925506 5.414592 0
M  V30 41 H 5.744678 0.148503 5.031662 0
M  V30 42 H 7.580111 -0.945222 3.934493 0
M  V30 43 H 7.271885 -1.788653 1.577762 0
M  V30 44 H 2.945780 -1.119344 0.520094 0
M  V30 45 H 2.045680 -0.516645 1.996106 0
M  V30 46 H 3.636042 2.334135 2.090824 0
M  V30 47 H 1.254144 1.719838 2.820269 0
M  V30 48 H 1.568907 3.466247 2.475707 0
M  V30 49 H 0.420992 3.348926 0.369394 0
M  V30 50 H -0.585964 2.470470 1.549221 0
M  V30 51 H 0.474415 0.352961 1.062663 0
M  V30 52 H -0.590395 1.641343 -1.504566 0
M  V30 53 H -2.103909 1.250553 -2.881946 0
M  V30 54 H -3.939682 0.607825 -4.475509 0
M  V30 55 H -5.911668 -1.423653 -4.943870 0
M  V30 56 H -5.242335 -5.605889 -3.035722 0
M  V30 57 H -5.422036 -7.573780 -1.653019 0
M  V30 58 H -4.232034 -5.698860 2.572207 0
M  V30 59 H -6.018213 -5.703291 2.668024 0
M  V30 60 H -5.094542 -4.132818 2.547845 0
M  V30 61 H -4.977533 -3.129275 0.388836 0
M  V30 62 H -2.942002 -2.252232 -0.630769 0
M  V30 63 H 1.859519 0.277180 -1.105695 0
M  V30 64 H 3.001280 2.191530 -1.737422 0
M  V30 65 H 1.430148 2.971310 -1.377700 0
M  V30 66 H 4.020271 3.235526 0.035802 0
M  V30 67 H 2.460715 4.125630 0.475417 0
M  V30 END ATOM
M  V30 BEGIN BOND
M  V30 1 1 1 2
M  V30 2 1 2 3
M  V30 3 2 3 4
M  V30 4 1 4 5
M  V30 5 2 5 6
M  V30 6 1 6 7
M  V30 7 1 7 8
M  V30 8 2 7 9
M  V30 9 1 9 10
M  V30 10 1 10 11
M  V30 11 1 11 12
M  V30 12 1 12 13
M  V30 13 1 13 14
M  V30 14 1 14 15
M  V30 15 1 15 16
M  V30 16 1 16 17
M  V30 17 2 17 18
M  V30 18 1 17 19
M  V30 19 2 19 20
M  V30 20 1 20 21
M  V30 21 2 21 22
M  V30 22 1 22 23
M  V30 23 1 23 24
M  V30 24 2 24 25
M  V30 25 1 25 26
M  V30 26 2 26 27
M  V30 27 1 27 28
M  V30 28 2 28 29
M  V30 29 1 29 30
M  V30 30 1 30 31
M  V30 31 2 30 32
M  V30 32 1 25 33
M  V30 33 2 33 34
M  V30 34 1 15 35
M  V30 35 1 35 36
M  V30 36 1 36 37
M  V30 37 1 9 3
M  V30 38 1 35 11
M  V30 39 1 37 12
M  V30 40 1 34 19
M  V30 41 1 33 22
M  V30 42 1 32 26
M  V30 43 1 1 38
M  V30 44 1 1 39
M  V30 45 1 1 40
M  V30 46 1 4 41
M  V30 47 1 5 42
M  V30 48 1 6 43
M  V30 49 1 10 44
M  V30 50 1 10 45
M  V30 51 1 12 46
M  V30 52 1 13 47
M  V30 53 1 13 48
M  V30 54 1 14 49
M  V30 55 1 14 50
M  V30 56 1 15 51
M  V30 57 1 16 52
M  V30 58 1 20 53
M  V30 59 1 21 54
M  V30 60 1 23 55
M  V30 61 1 27 56
M  V30 62 1 28 57
M  V30 63 1 31 58
M  V30 64 1 31 59
M  V30 65 1 31 60
M  V30 66 1 32 61
M  V30 67 1 34 62
M  V30 68 1 35 63
M  V30 69 1 36 64
M  V30 70 1 36 65
M  V30 71 1 37 66
M  V30 72 1 37 67
M  V30 END BOND
M  V30 END CTAB
M  END
>  <Dataset>  (530) 
ChEMBL_Kinases

>  <Ligand_Instance>  (530) 
nan

>  <PDB_ID>  (530) 
nan

>  <Standardized_SMILES>  (530) 
COc1cccc(F)c1CN1C2CCC(NC(=O)c3ccc4[nH]nc(-c5ccnc(C)c5)c4c3)C1CC2

>  <Name>  (530) 
nan

>  <Pocket>  (530) 
nan

>  <ATP_Site>  (530) 
nan

>  <Peripheral>  (530) 
nan

>  <Num_H_Atoms_ProtBoundConf>  (530) 
nan

>  <Num_Resolved_Atoms>  (530) 
nan

>  <Num_Not_Resolved_Atoms>  (530) 
nan

$$$$
CHEMBL3654629
     RDKit          3D

  0  0  0  0  0  0  0  0  0  0999 V3000
M  V30 BEGIN CTAB
M  V30 COUNTS 70 74 0 0 0
M  V30 BEGIN ATOM
M  V30 1 C 3.653677 -1.070443 -2.916162 0
M  V30 2 O 3.375356 0.101043 -2.180681 0
M  V30 3 C 4.007487 0.282945 -0.963074 0
M  V30 4 C 4.894596 -0.659053 -0.477046 0
M  V30 5 C 5.536949 -0.498256 0.726111 0
M  V30 6 C 5.274442 0.641225 1.450938 0
M  V30 7 C 4.384234 1.551430 0.928598 0
M  V30 8 F 4.170726 2.655006 1.692402 0
M  V30 9 C 3.700244 1.439602 -0.290702 0
M  V30 10 C 2.762847 2.513449 -0.653059 0
M  V30 11 N 1.399682 2.265248 -0.343612 0
M  V30 12 C 0.813350 1.133347 -0.919225 0
M  V30 13 C -0.674430 1.084104 -0.619214 0 CFG=2
M  V30 14 N -1.245989 -0.200061 -0.799814 0
M  V30 15 C -1.860590 -1.225753 -0.042701 0
M  V30 16 O -1.936576 -0.931156 1.179102 0
M  V30 17 C -2.325552 -2.452025 -0.675275 0
M  V30 18 C -2.235761 -2.744398 -2.019977 0
M  V30 19 C -2.707808 -3.938808 -2.518293 0
M  V30 20 C -3.271198 -4.827184 -1.624958 0
M  V30 21 N -3.792452 -6.028605 -1.850539 0
M  V30 22 N -4.204204 -6.499714 -0.704462 0
M  V30 23 C -3.979348 -5.652192 0.305681 0
M  V30 24 C -4.300818 -5.833739 1.715223 0
M  V30 25 C -3.965533 -7.086306 2.195530 0
M  V30 26 C -4.188267 -7.453664 3.499613 0
M  V30 27 N -4.755379 -6.544127 4.323227 0
M  V30 28 C -5.084283 -5.314947 3.851052 0
M  V30 29 C -4.879170 -4.912284 2.563201 0
M  V30 30 C -3.370450 -4.554305 -0.277457 0
M  V30 31 C -2.892680 -3.350849 0.211963 0
M  V30 32 C -1.283889 2.201587 -1.400248 0
M  V30 33 C -0.672355 3.486825 -0.972488 0
M  V30 34 C 0.595341 3.437198 -0.218939 0 CFG=1
M  V30 35 C 0.387512 3.849350 1.189847 0
M  V30 36 O -0.306036 4.923740 1.198471 0
M  V30 37 N 0.646911 3.534990 2.545871 0
M  V30 38 C 0.082180 4.482713 3.484506 0
M  V30 39 C 1.370858 2.443570 3.213912 0
M  V30 40 H 4.767277 -1.078700 -3.073334 0
M  V30 41 H 3.113060 -1.096642 -3.883108 0
M  V30 42 H 3.386356 -1.930844 -2.279815 0
M  V30 43 H 5.069891 -1.548719 -1.090486 0
M  V30 44 H 6.219556 -1.217630 1.105430 0
M  V30 45 H 5.760790 0.803199 2.401230 0
M  V30 46 H 2.927142 2.807742 -1.719944 0
M  V30 47 H 3.057003 3.439230 -0.073242 0
M  V30 48 H 0.911614 1.177955 -2.021872 0
M  V30 49 H 1.296154 0.226535 -0.486105 0
M  V30 50 H -0.763036 1.346102 0.471157 0
M  V30 51 H -1.102960 -0.283055 -1.835492 0
M  V30 52 H -1.789433 -2.015531 -2.658206 0
M  V30 53 H -2.601529 -4.094775 -3.582464 0
M  V30 54 H -3.858154 -6.509639 -2.793435 0
M  V30 55 H -3.502646 -7.878576 1.590109 0
M  V30 56 H -3.931933 -8.438297 3.904571 0
M  V30 57 H -5.538223 -4.594723 4.520478 0
M  V30 58 H -5.110298 -3.971831 2.128036 0
M  V30 59 H -2.991553 -3.182580 1.267410 0
M  V30 60 H -1.150589 2.021408 -2.500013 0
M  V30 61 H -2.397906 2.166839 -1.236446 0
M  V30 62 H -1.462876 4.019956 -0.363568 0
M  V30 63 H -0.622523 4.129025 -1.901421 0
M  V30 64 H 1.236264 4.270904 -0.639993 0
M  V30 65 H -0.837891 3.989457 3.913626 0
M  V30 66 H 0.766113 4.644071 4.344546 0
M  V30 67 H -0.252779 5.424404 3.043600 0
M  V30 68 H 2.203011 2.791050 3.827483 0
M  V30 69 H 0.617503 2.003179 3.929505 0
M  V30 70 H 1.740742 1.696659 2.502947 0
M  V30 END ATOM
M  V30 BEGIN BOND
M  V30 1 1 1 2
M  V30 2 1 2 3
M  V30 3 2 3 4
M  V30 4 1 4 5
M  V30 5 2 5 6
M  V30 6 1 6 7
M  V30 7 1 7 8
M  V30 8 2 7 9
M  V30 9 1 9 10
M  V30 10 1 10 11
M  V30 11 1 11 12
M  V30 12 1 12 13
M  V30 13 1 13 14
M  V30 14 1 14 15
M  V30 15 2 15 16
M  V30 16 1 15 17
M  V30 17 2 17 18
M  V30 18 1 18 19
M  V30 19 2 19 20
M  V30 20 1 20 21
M  V30 21 1 21 22
M  V30 22 2 22 23
M  V30 23 1 23 24
M  V30 24 2 24 25
M  V30 25 1 25 26
M  V30 26 2 26 27
M  V30 27 1 27 28
M  V30 28 2 28 29
M  V30 29 1 23 30
M  V30 30 2 30 31
M  V30 31 1 13 32
M  V30 32 1 32 33
M  V30 33 1 33 34
M  V30 34 1 34 35
M  V30 35 2 35 36
M  V30 36 1 35 37
M  V30 37 1 37 38
M  V30 38 1 37 39
M  V30 39 1 9 3
M  V30 40 1 34 11
M  V30 41 1 31 17
M  V30 42 1 30 20
M  V30 43 1 29 24
M  V30 44 1 1 40
M  V30 45 1 1 41
M  V30 46 1 1 42
M  V30 47 1 4 43
M  V30 48 1 5 44
M  V30 49 1 6 45
M  V30 50 1 10 46
M  V30 51 1 10 47
M  V30 52 1 12 48
M  V30 53 1 12 49
M  V30 54 1 13 50 CFG=1
M  V30 55 1 14 51
M  V30 56 1 18 52
M  V30 57 1 19 53
M  V30 58 1 21 54
M  V30 59 1 25 55
M  V30 60 1 26 56
M  V30 61 1 28 57
M  V30 62 1 29 58
M  V30 63 1 31 59
M  V30 64 1 32 60
M  V30 65 1 32 61
M  V30 66 1 33 62
M  V30 67 1 33 63
M  V30 68 1 34 64 CFG=3
M  V30 69 1 38 65
M  V30 70 1 38 66
M  V30 71 1 38 67
M  V30 72 1 39 68
M  V30 73 1 39 69
M  V30 74 1 39 70
M  V30 END BOND
M  V30 END CTAB
M  END
>  <Dataset>  (531) 
ChEMBL_Kinases

>  <Ligand_Instance>  (531) 
nan

>  <PDB_ID>  (531) 
nan

>  <Standardized_SMILES>  (531) 
COc1cccc(F)c1CN1C[C@H](NC(=O)c2ccc3[nH]nc(-c4ccncc4)c3c2)CC[C@H]1C(=O)N(C)C

>  <Name>  (531) 
nan

>  <Pocket>  (531) 
nan

>  <ATP_Site>  (531) 
nan

>  <Peripheral>  (531) 
nan

>  <Num_H_Atoms_ProtBoundConf>  (531) 
nan

>  <Num_Resolved_Atoms>  (531) 
nan

>  <Num_Not_Resolved_Atoms>  (531) 
nan

$$$$
CHEMBL3654630
     RDKit          3D

  0  0  0  0  0  0  0  0  0  0999 V3000
M  V30 BEGIN CTAB
M  V30 COUNTS 64 68 0 0 0
M  V30 BEGIN ATOM
M  V30 1 C 2.356624 1.218694 6.324084 0
M  V30 2 O 1.888758 1.090907 5.001198 0
M  V30 3 C 2.556960 0.225907 4.108541 0
M  V30 4 C 3.650846 -0.462420 4.572781 0
M  V30 5 C 4.377970 -1.335715 3.782427 0
M  V30 6 C 3.958512 -1.493423 2.490728 0
M  V30 7 C 2.862947 -0.799380 2.037636 0
M  V30 8 F 2.438924 -0.965269 0.769685 0
M  V30 9 C 2.107304 0.079566 2.781027 0
M  V30 10 C 0.941380 0.876124 2.479541 0
M  V30 11 N 0.543851 1.020327 1.102870 0
M  V30 12 C -0.716434 1.787745 1.195510 0
M  V30 13 C -1.381379 1.856214 -0.167618 0 CFG=2
M  V30 14 N -1.751602 0.506775 -0.505982 0
M  V30 15 C -3.117982 0.176892 -0.299100 0
M  V30 16 O -3.904156 1.058558 0.162636 0
M  V30 17 C -3.684027 -1.129719 -0.586534 0
M  V30 18 C -4.971527 -1.372914 -0.162085 0
M  V30 19 C -5.604191 -2.581124 -0.404053 0
M  V30 20 C -4.832916 -3.514820 -1.105384 0
M  V30 21 N -5.224558 -4.757296 -1.466907 0
M  V30 22 N -4.215063 -5.316103 -2.115817 0
M  V30 23 C -3.161930 -4.447566 -2.181890 0
M  V30 24 C -1.846412 -4.627054 -2.818294 0
M  V30 25 C -1.984414 -5.141919 -4.082944 0
M  V30 26 C -0.833663 -5.378846 -4.847690 0
M  V30 27 N 0.381986 -5.096971 -4.325013 0
M  V30 28 C 0.452747 -4.591595 -3.070671 0
M  V30 29 C -0.625979 -4.330546 -2.258066 0
M  V30 30 C -3.546226 -3.281583 -1.533708 0
M  V30 31 C -2.941558 -2.080296 -1.282280 0
M  V30 32 C -0.383621 2.487344 -1.091245 0
M  V30 33 C 0.797816 3.039050 -0.314441 0
M  V30 34 C 1.470319 1.826670 0.333665 0 CFG=1
M  V30 35 C 2.617064 2.276802 1.160634 0
M  V30 36 N 3.542613 3.034400 0.360855 0
M  V30 37 O 3.469517 2.539998 2.039800 0
M  V30 38 H 1.748552 2.051698 6.785572 0
M  V30 39 H 3.429027 1.452461 6.391417 0
M  V30 40 H 2.173365 0.317912 6.949840 0
M  V30 41 H 4.010901 -0.361487 5.591517 0
M  V30 42 H 5.233268 -1.863736 4.175542 0
M  V30 43 H 4.471240 -2.157527 1.814749 0
M  V30 44 H 0.053141 0.394332 2.987515 0
M  V30 45 H 1.015550 1.877582 2.965119 0
M  V30 46 H -0.568272 2.761390 1.674283 0
M  V30 47 H -1.346615 1.176235 1.908097 0
M  V30 48 H -2.273074 2.506876 -0.001009 0
M  V30 49 H -1.089717 -0.203721 -0.877463 0
M  V30 50 H -5.561219 -0.629979 0.388730 0
M  V30 51 H -6.612934 -2.773409 -0.071552 0
M  V30 52 H -6.106554 -5.313935 -1.339399 0
M  V30 53 H -2.871860 -5.411357 -4.630777 0
M  V30 54 H -0.813000 -5.786115 -5.866530 0
M  V30 55 H 1.451659 -4.374570 -2.671605 0
M  V30 56 H -0.614849 -3.931071 -1.259905 0
M  V30 57 H -1.937055 -1.901785 -1.617768 0
M  V30 58 H -0.853320 3.365979 -1.609470 0
M  V30 59 H -0.014219 1.810890 -1.865517 0
M  V30 60 H 0.560344 3.836768 0.380500 0
M  V30 61 H 1.528044 3.394531 -1.078248 0
M  V30 62 H 1.827714 1.227460 -0.525622 0
M  V30 63 H 4.345778 3.253197 -0.274582 0
M  V30 64 H 4.336069 3.298586 -0.273614 0
M  V30 END ATOM
M  V30 BEGIN BOND
M  V30 1 1 1 2
M  V30 2 1 2 3
M  V30 3 2 3 4
M  V30 4 1 4 5
M  V30 5 2 5 6
M  V30 6 1 6 7
M  V30 7 1 7 8
M  V30 8 2 7 9
M  V30 9 1 9 10
M  V30 10 1 10 11
M  V30 11 1 11 12
M  V30 12 1 12 13
M  V30 13 1 13 14
M  V30 14 1 14 15
M  V30 15 2 15 16
M  V30 16 1 15 17
M  V30 17 2 17 18
M  V30 18 1 18 19
M  V30 19 2 19 20
M  V30 20 1 20 21
M  V30 21 1 21 22
M  V30 22 2 22 23
M  V30 23 1 23 24
M  V30 24 2 24 25
M  V30 25 1 25 26
M  V30 26 2 26 27
M  V30 27 1 27 28
M  V30 28 2 28 29
M  V30 29 1 23 30
M  V30 30 2 30 31
M  V30 31 1 13 32
M  V30 32 1 32 33
M  V30 33 1 33 34
M  V30 34 1 34 35
M  V30 35 1 35 36
M  V30 36 2 35 37
M  V30 37 1 9 3
M  V30 38 1 34 11
M  V30 39 1 31 17
M  V30 40 1 30 20
M  V30 41 1 29 24
M  V30 42 1 1 38
M  V30 43 1 1 39
M  V30 44 1 1 40
M  V30 45 1 4 41
M  V30 46 1 5 42
M  V30 47 1 6 43
M  V30 48 1 10 44
M  V30 49 1 10 45
M  V30 50 1 12 46
M  V30 51 1 12 47
M  V30 52 1 13 48 CFG=1
M  V30 53 1 14 49
M  V30 54 1 18 50
M  V30 55 1 19 51
M  V30 56 1 21 52
M  V30 57 1 25 53
M  V30 58 1 26 54
M  V30 59 1 28 55
M  V30 60 1 29 56
M  V30 61 1 31 57
M  V30 62 1 32 58
M  V30 63 1 32 59
M  V30 64 1 33 60
M  V30 65 1 33 61
M  V30 66 1 34 62 CFG=3
M  V30 67 1 36 63
M  V30 68 1 36 64
M  V30 END BOND
M  V30 END CTAB
M  END
>  <Dataset>  (532) 
ChEMBL_Kinases

>  <Ligand_Instance>  (532) 
nan

>  <PDB_ID>  (532) 
nan

>  <Standardized_SMILES>  (532) 
COc1cccc(F)c1CN1C[C@H](NC(=O)c2ccc3[nH]nc(-c4ccncc4)c3c2)CC[C@H]1C(N)=O

>  <Name>  (532) 
nan

>  <Pocket>  (532) 
nan

>  <ATP_Site>  (532) 
nan

>  <Peripheral>  (532) 
nan

>  <Num_H_Atoms_ProtBoundConf>  (532) 
nan

>  <Num_Resolved_Atoms>  (532) 
nan

>  <Num_Not_Resolved_Atoms>  (532) 
nan

$$$$
CHEMBL3654631
     RDKit          3D

  0  0  0  0  0  0  0  0  0  0999 V3000
M  V30 BEGIN CTAB
M  V30 COUNTS 76 80 0 0 0
M  V30 BEGIN ATOM
M  V30 1 C 1.265791 -5.434723 -1.874148 0
M  V30 2 C 0.419849 -4.686314 -2.881541 0
M  V30 3 N -0.194418 -3.514948 -2.287011 0
M  V30 4 C -1.484495 -3.704446 -1.690507 0
M  V30 5 C -1.429168 -4.094097 -0.228648 0
M  V30 6 C 0.637829 -2.378145 -2.413006 0
M  V30 7 O 1.622936 -2.901804 -2.986428 0
M  V30 8 C 0.497993 -0.922818 -2.017811 0 CFG=2
M  V30 9 C -0.527788 -0.387172 -2.975537 0
M  V30 10 C -0.580360 1.073352 -3.199267 0
M  V30 11 C 0.369075 1.789312 -2.298160 0 CFG=1
M  V30 12 N -0.171866 1.949510 -0.994362 0
M  V30 13 C -0.307407 3.265649 -0.439810 0
M  V30 14 O 0.075627 4.256887 -1.132088 0
M  V30 15 C -0.857381 3.571209 0.875380 0
M  V30 16 C -0.751579 4.871056 1.310338 0
M  V30 17 C -1.255225 5.297632 2.544425 0
M  V30 18 C -1.880677 4.383515 3.354151 0
M  V30 19 N -2.477104 4.444629 4.582235 0
M  V30 20 N -2.938155 3.254156 4.913129 0
M  V30 21 C -2.664892 2.367242 3.919704 0
M  V30 22 C -3.038101 0.959190 3.950989 0
M  V30 23 C -4.330887 0.632257 4.366584 0
M  V30 24 C -4.778444 -0.668515 4.430727 0
M  V30 25 N -3.944840 -1.683585 4.079761 0
M  V30 26 C -2.678575 -1.419040 3.668478 0
M  V30 27 C -2.240435 -0.120842 3.607632 0
M  V30 28 C -1.999291 3.068195 2.935734 0
M  V30 29 C -1.487465 2.664729 1.699088 0
M  V30 30 C 1.689368 1.133691 -2.430225 0
M  V30 31 N 1.763491 -0.263237 -2.091592 0
M  V30 32 C 2.548643 -0.307534 -0.880338 0
M  V30 33 C 2.965236 -1.584120 -0.367523 0
M  V30 34 C 4.029325 -2.227646 -1.010601 0
M  V30 35 F 4.622264 -1.647764 -2.096968 0
M  V30 36 C 4.565782 -3.438732 -0.648018 0
M  V30 37 C 4.035299 -4.116541 0.445484 0
M  V30 38 C 2.987062 -3.515364 1.103964 0
M  V30 39 C 2.481929 -2.298149 0.703869 0
M  V30 40 O 1.416467 -1.714626 1.396067 0
M  V30 41 C 0.834375 -2.350482 2.518503 0
M  V30 42 H 2.014295 -6.003418 -2.491008 0
M  V30 43 H 1.767617 -4.672092 -1.252014 0
M  V30 44 H 0.706251 -6.178109 -1.287953 0
M  V30 45 H -0.404459 -5.405103 -3.181636 0
M  V30 46 H 0.983119 -4.459543 -3.802952 0
M  V30 47 H -2.162535 -2.845588 -1.798274 0
M  V30 48 H -2.018785 -4.544316 -2.222632 0
M  V30 49 H -1.452972 -3.118610 0.336269 0
M  V30 50 H -0.540576 -4.649195 0.065851 0
M  V30 51 H -2.319855 -4.669579 0.078315 0
M  V30 52 H 0.179900 -0.957156 -0.966596 0
M  V30 53 H -1.543389 -0.752353 -2.656222 0
M  V30 54 H -0.367396 -0.886678 -3.968200 0
M  V30 55 H -1.630741 1.459052 -3.090925 0
M  V30 56 H -0.315096 1.350197 -4.257476 0
M  V30 57 H 0.490027 2.820172 -2.717536 0
M  V30 58 H -0.515621 1.236226 -0.313353 0
M  V30 59 H -0.274799 5.682641 0.753980 0
M  V30 60 H -1.170424 6.318578 2.884246 0
M  V30 61 H -2.553020 5.322589 5.178258 0
M  V30 62 H -5.035999 1.419027 4.658512 0
M  V30 63 H -5.798326 -0.888088 4.761393 0
M  V30 64 H -1.987311 -2.172895 3.380438 0
M  V30 65 H -1.250917 0.244852 3.296088 0
M  V30 66 H -1.577458 1.644965 1.370310 0
M  V30 67 H 2.448628 1.744039 -1.895900 0
M  V30 68 H 1.981734 1.246366 -3.519784 0
M  V30 69 H 1.931032 0.225073 -0.112565 0
M  V30 70 H 3.464863 0.332770 -0.994967 0
M  V30 71 H 5.377942 -3.897601 -1.160125 0
M  V30 72 H 4.413354 -5.057264 0.768745 0
M  V30 73 H 2.581983 -4.045138 1.947498 0
M  V30 74 H 0.296037 -1.565692 3.085074 0
M  V30 75 H 0.106466 -3.083584 2.149074 0
M  V30 76 H 1.599243 -2.775939 3.200868 0
M  V30 END ATOM
M  V30 BEGIN BOND
M  V30 1 1 1 2
M  V30 2 1 2 3
M  V30 3 1 3 4
M  V30 4 1 4 5
M  V30 5 1 3 6
M  V30 6 2 6 7
M  V30 7 1 6 8
M  V30 8 1 8 9
M  V30 9 1 9 10
M  V30 10 1 10 11
M  V30 11 1 11 12
M  V30 12 1 12 13
M  V30 13 2 13 14
M  V30 14 1 13 15
M  V30 15 2 15 16
M  V30 16 1 16 17
M  V30 17 2 17 18
M  V30 18 1 18 19
M  V30 19 1 19 20
M  V30 20 2 20 21
M  V30 21 1 21 22
M  V30 22 2 22 23
M  V30 23 1 23 24
M  V30 24 2 24 25
M  V30 25 1 25 26
M  V30 26 2 26 27
M  V30 27 1 21 28
M  V30 28 2 28 29
M  V30 29 1 11 30
M  V30 30 1 30 31
M  V30 31 1 31 32
M  V30 32 1 32 33
M  V30 33 2 33 34
M  V30 34 1 34 35
M  V30 35 1 34 36
M  V30 36 2 36 37
M  V30 37 1 37 38
M  V30 38 2 38 39
M  V30 39 1 39 40
M  V30 40 1 40 41
M  V30 41 1 31 8
M  V30 42 1 39 33
M  V30 43 1 29 15
M  V30 44 1 28 18
M  V30 45 1 27 22
M  V30 46 1 1 42
M  V30 47 1 1 43
M  V30 48 1 1 44
M  V30 49 1 2 45
M  V30 50 1 2 46
M  V30 51 1 4 47
M  V30 52 1 4 48
M  V30 53 1 5 49
M  V30 54 1 5 50
M  V30 55 1 5 51
M  V30 56 1 8 52 CFG=1
M  V30 57 1 9 53
M  V30 58 1 9 54
M  V30 59 1 10 55
M  V30 60 1 10 56
M  V30 61 1 11 57 CFG=3
M  V30 62 1 12 58
M  V30 63 1 16 59
M  V30 64 1 17 60
M  V30 65 1 19 61
M  V30 66 1 23 62
M  V30 67 1 24 63
M  V30 68 1 26 64
M  V30 69 1 27 65
M  V30 70 1 29 66
M  V30 71 1 30 67
M  V30 72 1 30 68
M  V30 73 1 32 69
M  V30 74 1 32 70
M  V30 75 1 36 71
M  V30 76 1 37 72
M  V30 77 1 38 73
M  V30 78 1 41 74
M  V30 79 1 41 75
M  V30 80 1 41 76
M  V30 END BOND
M  V30 END CTAB
M  END
>  <Dataset>  (533) 
ChEMBL_Kinases

>  <Ligand_Instance>  (533) 
nan

>  <PDB_ID>  (533) 
nan

>  <Standardized_SMILES>  (533) 
CCN(CC)C(=O)[C@@H]1CC[C@@H](NC(=O)c2ccc3[nH]nc(-c4ccncc4)c3c2)CN1Cc1c(F)cccc1OC

>  <Name>  (533) 
nan

>  <Pocket>  (533) 
nan

>  <ATP_Site>  (533) 
nan

>  <Peripheral>  (533) 
nan

>  <Num_H_Atoms_ProtBoundConf>  (533) 
nan

>  <Num_Resolved_Atoms>  (533) 
nan

>  <Num_Not_Resolved_Atoms>  (533) 
nan

$$$$
CHEMBL3654641
     RDKit          3D

  0  0  0  0  0  0  0  0  0  0999 V3000
M  V30 BEGIN CTAB
M  V30 COUNTS 77 81 0 0 0
M  V30 BEGIN ATOM
M  V30 1 C -2.562439 -7.497962 -1.030979 0
M  V30 2 O -1.519207 -6.612077 -0.945585 0
M  V30 3 C -0.486670 -6.839664 -1.849534 0
M  V30 4 C 0.623198 -5.797497 -1.642722 0
M  V30 5 N 0.066121 -4.467258 -1.864961 0
M  V30 6 C 1.100711 -3.475398 -1.667898 0
M  V30 7 O 2.133365 -4.144635 -1.363593 0
M  V30 8 C 0.680842 -2.060883 -1.864405 0 CFG=2
M  V30 9 C 0.097473 -1.868136 -3.266587 0
M  V30 10 C -0.631310 -0.541489 -3.252550 0
M  V30 11 C 0.248737 0.562424 -2.753338 0 CFG=1
M  V30 12 N -0.305320 1.263283 -1.628916 0
M  V30 13 C -0.591989 2.625344 -1.367791 0
M  V30 14 O -0.297591 3.388078 -2.317243 0
M  V30 15 C -1.168345 3.097397 -0.118606 0
M  V30 16 C -1.295274 4.488932 -0.051401 0
M  V30 17 C -1.842061 4.994947 1.127409 0
M  V30 18 C -2.241153 4.195257 2.171674 0
M  V30 19 N -2.780419 4.322695 3.397198 0
M  V30 20 N -2.948403 3.157782 3.976117 0
M  V30 21 C -2.529707 2.135995 3.172171 0
M  V30 22 C -2.560255 0.708200 3.480405 0
M  V30 23 C -3.072680 -0.045821 2.436556 0
M  V30 24 C -3.150800 -1.415310 2.609217 0
M  V30 25 N -2.738986 -2.010897 3.764548 0
M  V30 26 C -2.240316 -1.239634 4.771198 0
M  V30 27 C -1.796562 -1.942233 6.017879 0
M  V30 28 C -2.138831 0.126768 4.656181 0
M  V30 29 C -2.086605 2.836326 2.032421 0
M  V30 30 C -1.548577 2.237848 0.893356 0
M  V30 31 C 1.657502 0.051427 -2.441348 0
M  V30 32 N 1.670251 -1.101177 -1.649372 0
M  V30 33 C 2.679223 -1.232255 -0.704571 0
M  V30 34 C 2.624220 -0.087955 0.263926 0
M  V30 35 C 1.638494 -0.082766 1.209812 0
M  V30 36 F 0.727655 -1.076640 1.314801 0
M  V30 37 C 1.534078 0.962224 2.124285 0
M  V30 38 C 2.427362 2.033346 2.106451 0
M  V30 39 C 3.413937 1.975348 1.120898 0
M  V30 40 C 3.534848 0.957180 0.211259 0
M  V30 41 O 4.494188 1.034331 -0.640012 0
M  V30 42 C 5.530237 1.385720 -1.356858 0
M  V30 43 H -3.366666 -7.281725 -0.281123 0
M  V30 44 H -3.069414 -7.500776 -2.017947 0
M  V30 45 H -2.225215 -8.528926 -0.817685 0
M  V30 46 H -0.057762 -7.857245 -1.782504 0
M  V30 47 H -0.907568 -6.696119 -2.870442 0
M  V30 48 H 1.415155 -6.062722 -2.374925 0
M  V30 49 H 0.992400 -5.874742 -0.602188 0
M  V30 50 H -0.946995 -4.282209 -2.126551 0
M  V30 51 H -0.173344 -1.882770 -1.170559 0
M  V30 52 H 0.901135 -1.857449 -4.026727 0
M  V30 53 H -0.626212 -2.641213 -3.534855 0
M  V30 54 H -1.450782 -0.647749 -2.495841 0
M  V30 55 H -1.112699 -0.305433 -4.223997 0
M  V30 56 H 0.407362 1.285691 -3.580011 0
M  V30 57 H -0.493487 0.520776 -0.922964 0
M  V30 58 H -0.993860 5.161733 -0.848574 0
M  V30 59 H -1.970844 6.054125 1.260059 0
M  V30 60 H -3.009737 5.268322 3.785509 0
M  V30 61 H -3.458658 0.194226 1.458103 0
M  V30 62 H -3.522500 -2.165188 1.897752 0
M  V30 63 H -0.751288 -2.266118 5.838514 0
M  V30 64 H -2.470520 -2.804009 6.219152 0
M  V30 65 H -1.790820 -1.228082 6.857165 0
M  V30 66 H -1.756720 0.759373 5.420180 0
M  V30 67 H -1.407872 1.180815 0.750721 0
M  V30 68 H 2.112863 -0.167278 -3.451721 0
M  V30 69 H 2.184394 0.932998 -2.053215 0
M  V30 70 H 3.713157 -1.212402 -1.161662 0
M  V30 71 H 2.675930 -2.162801 -0.103985 0
M  V30 72 H 0.750387 0.944856 2.859110 0
M  V30 73 H 2.286818 2.797153 2.833316 0
M  V30 74 H 4.082442 2.837404 1.158146 0
M  V30 75 H 5.190531 1.949501 -2.286303 0
M  V30 76 H 6.238209 2.128441 -0.876182 0
M  V30 77 H 6.124979 0.495385 -1.701588 0
M  V30 END ATOM
M  V30 BEGIN BOND
M  V30 1 1 1 2
M  V30 2 1 2 3
M  V30 3 1 3 4
M  V30 4 1 4 5
M  V30 5 1 5 6
M  V30 6 2 6 7
M  V30 7 1 6 8
M  V30 8 1 8 9
M  V30 9 1 9 10
M  V30 10 1 10 11
M  V30 11 1 11 12
M  V30 12 1 12 13
M  V30 13 2 13 14
M  V30 14 1 13 15
M  V30 15 2 15 16
M  V30 16 1 16 17
M  V30 17 2 17 18
M  V30 18 1 18 19
M  V30 19 1 19 20
M  V30 20 2 20 21
M  V30 21 1 21 22
M  V30 22 2 22 23
M  V30 23 1 23 24
M  V30 24 2 24 25
M  V30 25 1 25 26
M  V30 26 1 26 27
M  V30 27 2 26 28
M  V30 28 1 21 29
M  V30 29 2 29 30
M  V30 30 1 11 31
M  V30 31 1 31 32
M  V30 32 1 32 33
M  V30 33 1 33 34
M  V30 34 2 34 35
M  V30 35 1 35 36
M  V30 36 1 35 37
M  V30 37 2 37 38
M  V30 38 1 38 39
M  V30 39 2 39 40
M  V30 40 1 40 41
M  V30 41 1 41 42
M  V30 42 1 32 8
M  V30 43 1 40 34
M  V30 44 1 30 15
M  V30 45 1 29 18
M  V30 46 1 28 22
M  V30 47 1 1 43
M  V30 48 1 1 44
M  V30 49 1 1 45
M  V30 50 1 3 46
M  V30 51 1 3 47
M  V30 52 1 4 48
M  V30 53 1 4 49
M  V30 54 1 5 50
M  V30 55 1 8 51 CFG=1
M  V30 56 1 9 52
M  V30 57 1 9 53
M  V30 58 1 10 54
M  V30 59 1 10 55
M  V30 60 1 11 56 CFG=3
M  V30 61 1 12 57
M  V30 62 1 16 58
M  V30 63 1 17 59
M  V30 64 1 19 60
M  V30 65 1 23 61
M  V30 66 1 24 62
M  V30 67 1 27 63
M  V30 68 1 27 64
M  V30 69 1 27 65
M  V30 70 1 28 66
M  V30 71 1 30 67
M  V30 72 1 31 68
M  V30 73 1 31 69
M  V30 74 1 33 70
M  V30 75 1 33 71
M  V30 76 1 37 72
M  V30 77 1 38 73
M  V30 78 1 39 74
M  V30 79 1 42 75
M  V30 80 1 42 76
M  V30 81 1 42 77
M  V30 END BOND
M  V30 END CTAB
M  END
>  <Dataset>  (534) 
ChEMBL_Kinases

>  <Ligand_Instance>  (534) 
nan

>  <PDB_ID>  (534) 
nan

>  <Standardized_SMILES>  (534) 
COCCNC(=O)[C@@H]1CC[C@@H](NC(=O)c2ccc3[nH]nc(-c4ccnc(C)c4)c3c2)CN1Cc1c(F)cccc1OC

>  <Name>  (534) 
nan

>  <Pocket>  (534) 
nan

>  <ATP_Site>  (534) 
nan

>  <Peripheral>  (534) 
nan

>  <Num_H_Atoms_ProtBoundConf>  (534) 
nan

>  <Num_Resolved_Atoms>  (534) 
nan

>  <Num_Not_Resolved_Atoms>  (534) 
nan

$$$$
CHEMBL3654633
     RDKit          3D

  0  0  0  0  0  0  0  0  0  0999 V3000
M  V30 BEGIN CTAB
M  V30 COUNTS 74 79 0 0 0
M  V30 BEGIN ATOM
M  V30 1 C 5.258203 0.325756 -3.299718 0
M  V30 2 O 4.262342 0.774379 -2.398953 0
M  V30 3 C 4.505888 1.321986 -1.160368 0
M  V30 4 C 5.796522 1.469781 -0.711550 0
M  V30 5 C 5.972486 2.027896 0.543643 0
M  V30 6 C 4.893196 2.426680 1.327224 0
M  V30 7 C 3.631592 2.244324 0.803490 0
M  V30 8 F 2.618711 2.649649 1.589150 0
M  V30 9 C 3.357990 1.693477 -0.443638 0
M  V30 10 C 2.022275 1.508744 -0.989427 0
M  V30 11 N 1.537474 0.154676 -0.954451 0
M  V30 12 C 0.242925 0.039120 -1.585692 0
M  V30 13 C -0.233348 -1.352574 -1.811784 0 CFG=2
M  V30 14 N -1.679503 -1.465203 -1.752590 0
M  V30 15 C -2.609382 -1.877066 -2.740392 0
M  V30 16 O -2.207084 -2.217142 -3.878538 0
M  V30 17 C -4.022218 -1.915473 -2.465965 0
M  V30 18 C -4.891349 -2.310310 -3.489213 0
M  V30 19 C -6.268621 -2.354623 -3.245875 0
M  V30 20 C -6.833655 -2.022407 -2.022970 0
M  V30 21 N -8.074719 -1.969828 -1.514789 0
M  V30 22 N -8.034765 -1.568959 -0.242824 0
M  V30 23 C -6.741255 -1.349160 0.106144 0
M  V30 24 C -6.265991 -0.894702 1.424125 0
M  V30 25 C -5.171656 -1.568648 1.976145 0
M  V30 26 C -4.628779 -1.245355 3.193958 0
M  V30 27 N -5.167872 -0.233104 3.898498 0
M  V30 28 C -6.225844 0.445085 3.403455 0
M  V30 29 C -6.796681 0.145449 2.180812 0
M  V30 30 C -5.978714 -1.634508 -1.017125 0
M  V30 31 C -4.628954 -1.597045 -1.274164 0
M  V30 32 C 0.322298 -2.300870 -0.766026 0
M  V30 33 C 0.411103 -1.456218 0.506691 0
M  V30 34 C 1.561197 -0.439164 0.355713 0 CFG=1
M  V30 35 C 2.780535 -1.222338 0.657345 0
M  V30 36 O 3.741018 -1.593027 -0.066467 0
M  V30 37 N 2.862490 -1.622735 2.045491 0
M  V30 38 C 1.972009 -1.390070 3.192621 0
M  V30 39 C 2.950169 -0.791794 4.195049 0
M  V30 40 C 4.273102 -1.480694 3.865341 0
M  V30 41 C 3.902377 -2.396640 2.694015 0
M  V30 42 H 5.916524 1.191057 -3.519474 0
M  V30 43 H 5.800449 -0.558105 -2.952515 0
M  V30 44 H 4.767576 0.064470 -4.272564 0
M  V30 45 H 6.597625 1.148042 -1.352783 0
M  V30 46 H 6.997506 2.154281 0.919523 0
M  V30 47 H 5.067028 2.857941 2.300120 0
M  V30 48 H 1.310116 2.114275 -0.346576 0
M  V30 49 H 1.957937 1.973397 -1.975592 0
M  V30 50 H -0.479674 0.607912 -0.932309 0
M  V30 51 H 0.286347 0.591629 -2.540143 0
M  V30 52 H 0.043712 -1.700016 -2.849391 0
M  V30 53 H -1.946439 -1.175648 -0.803710 0
M  V30 54 H -4.569922 -2.591123 -4.480929 0
M  V30 55 H -6.930321 -2.667249 -4.064313 0
M  V30 56 H -8.883637 -2.229045 -2.117884 0
M  V30 57 H -4.648392 -2.412986 1.497798 0
M  V30 58 H -3.779984 -1.760205 3.635271 0
M  V30 59 H -6.690049 1.276285 3.951040 0
M  V30 60 H -7.633762 0.645077 1.736083 0
M  V30 61 H -3.948830 -1.290858 -0.488473 0
M  V30 62 H -0.359119 -3.137021 -0.588073 0
M  V30 63 H 1.309808 -2.714542 -1.045850 0
M  V30 64 H -0.551530 -0.961920 0.668322 0
M  V30 65 H 0.588792 -2.171574 1.315951 0
M  V30 66 H 1.342345 0.355503 1.090055 0
M  V30 67 H 1.516290 -2.324569 3.535753 0
M  V30 68 H 1.222031 -0.605650 2.996833 0
M  V30 69 H 3.029696 0.311225 3.981318 0
M  V30 70 H 2.601375 -0.973602 5.210699 0
M  V30 71 H 4.526620 -2.097966 4.774535 0
M  V30 72 H 5.054804 -0.758215 3.607744 0
M  V30 73 H 3.525143 -3.340433 3.124808 0
M  V30 74 H 4.780636 -2.592922 2.049802 0
M  V30 END ATOM
M  V30 BEGIN BOND
M  V30 1 1 1 2
M  V30 2 1 2 3
M  V30 3 2 3 4
M  V30 4 1 4 5
M  V30 5 2 5 6
M  V30 6 1 6 7
M  V30 7 1 7 8
M  V30 8 2 7 9
M  V30 9 1 9 10
M  V30 10 1 10 11
M  V30 11 1 11 12
M  V30 12 1 12 13
M  V30 13 1 13 14
M  V30 14 1 14 15
M  V30 15 2 15 16
M  V30 16 1 15 17
M  V30 17 2 17 18
M  V30 18 1 18 19
M  V30 19 2 19 20
M  V30 20 1 20 21
M  V30 21 1 21 22
M  V30 22 2 22 23
M  V30 23 1 23 24
M  V30 24 2 24 25
M  V30 25 1 25 26
M  V30 26 2 26 27
M  V30 27 1 27 28
M  V30 28 2 28 29
M  V30 29 1 23 30
M  V30 30 2 30 31
M  V30 31 1 13 32
M  V30 32 1 32 33
M  V30 33 1 33 34
M  V30 34 1 34 35
M  V30 35 2 35 36
M  V30 36 1 35 37
M  V30 37 1 37 38
M  V30 38 1 38 39
M  V30 39 1 39 40
M  V30 40 1 40 41
M  V30 41 1 9 3
M  V30 42 1 34 11
M  V30 43 1 41 37
M  V30 44 1 31 17
M  V30 45 1 30 20
M  V30 46 1 29 24
M  V30 47 1 1 42
M  V30 48 1 1 43
M  V30 49 1 1 44
M  V30 50 1 4 45
M  V30 51 1 5 46
M  V30 52 1 6 47
M  V30 53 1 10 48
M  V30 54 1 10 49
M  V30 55 1 12 50
M  V30 56 1 12 51
M  V30 57 1 13 52 CFG=3
M  V30 58 1 14 53
M  V30 59 1 18 54
M  V30 60 1 19 55
M  V30 61 1 21 56
M  V30 62 1 25 57
M  V30 63 1 26 58
M  V30 64 1 28 59
M  V30 65 1 29 60
M  V30 66 1 31 61
M  V30 67 1 32 62
M  V30 68 1 32 63
M  V30 69 1 33 64
M  V30 70 1 33 65
M  V30 71 1 34 66 CFG=1
M  V30 72 1 38 67
M  V30 73 1 38 68
M  V30 74 1 39 69
M  V30 75 1 39 70
M  V30 76 1 40 71
M  V30 77 1 40 72
M  V30 78 1 41 73
M  V30 79 1 41 74
M  V30 END BOND
M  V30 END CTAB
M  END
>  <Dataset>  (535) 
ChEMBL_Kinases

>  <Ligand_Instance>  (535) 
nan

>  <PDB_ID>  (535) 
nan

>  <Standardized_SMILES>  (535) 
COc1cccc(F)c1CN1C[C@H](NC(=O)c2ccc3[nH]nc(-c4ccncc4)c3c2)CC[C@H]1C(=O)N1CCCC1

>  <Name>  (535) 
nan

>  <Pocket>  (535) 
nan

>  <ATP_Site>  (535) 
nan

>  <Peripheral>  (535) 
nan

>  <Num_H_Atoms_ProtBoundConf>  (535) 
nan

>  <Num_Resolved_Atoms>  (535) 
nan

>  <Num_Not_Resolved_Atoms>  (535) 
nan

$$$$
CHEMBL3654634
     RDKit          3D

  0  0  0  0  0  0  0  0  0  0999 V3000
M  V30 BEGIN CTAB
M  V30 COUNTS 77 82 0 0 0
M  V30 BEGIN ATOM
M  V30 1 C 4.582098 -3.940027 0.108650 0
M  V30 2 O 3.591889 -3.499448 -0.771425 0
M  V30 3 C 3.765581 -3.302996 -2.118039 0
M  V30 4 C 5.002312 -3.550197 -2.672529 0
M  V30 5 C 5.162799 -3.347357 -4.041794 0
M  V30 6 C 4.078111 -2.908592 -4.781574 0
M  V30 7 C 2.858668 -2.673431 -4.187637 0
M  V30 8 F 1.890926 -2.255365 -5.069532 0
M  V30 9 C 2.662874 -2.866655 -2.813708 0
M  V30 10 C 1.326182 -2.608927 -2.252800 0
M  V30 11 N 1.211556 -1.400212 -1.467560 0
M  V30 12 C -0.171687 -1.325408 -1.044244 0
M  V30 13 C -0.443175 0.073570 -0.560000 0 CFG=2
M  V30 14 N -1.654851 0.132931 0.245575 0
M  V30 15 C -1.563634 0.563626 1.621738 0
M  V30 16 O -0.426727 0.870330 2.061627 0
M  V30 17 C -2.713594 0.657770 2.512298 0
M  V30 18 C -2.445473 1.084747 3.794179 0
M  V30 19 C -3.491697 1.204260 4.716500 0
M  V30 20 C -4.790780 0.904086 4.372172 0
M  V30 21 N -5.942716 0.934683 5.050612 0
M  V30 22 N -6.895371 0.537006 4.207950 0
M  V30 23 C -6.362400 0.252670 2.997561 0
M  V30 24 C -7.132500 -0.209140 1.848906 0
M  V30 25 C -8.080698 -1.207888 2.065343 0
M  V30 26 C -8.847509 -1.695681 1.023338 0
M  V30 27 N -8.677543 -1.201414 -0.214621 0
M  V30 28 C -7.767155 -0.227019 -0.480409 0
M  V30 29 C -6.995672 0.266152 0.558436 0
M  V30 30 C -4.994474 0.478287 3.061571 0
M  V30 31 C -3.995760 0.344953 2.118188 0
M  V30 32 C -0.502105 0.969411 -1.752264 0
M  V30 33 C 0.623515 0.661871 -2.662781 0
M  V30 34 C 1.687334 -0.254973 -2.137290 0 CFG=1
M  V30 35 C 2.615087 0.534776 -1.294414 0
M  V30 36 O 2.981961 1.524486 -2.027027 0
M  V30 37 N 3.132827 0.431481 0.030051 0
M  V30 38 C 2.925197 -0.538941 1.100596 0
M  V30 39 C 4.256642 -0.779415 1.817451 0
M  V30 40 C 4.668625 0.465286 2.587351 0
M  V30 41 F 4.367752 0.365608 3.908573 0
M  V30 42 F 6.013354 0.681035 2.351824 0
M  V30 43 C 3.950599 1.659239 1.963163 0
M  V30 44 C 4.052867 1.459188 0.474499 0
M  V30 45 H 4.120071 -4.084035 1.112624 0
M  V30 46 H 4.984342 -4.929903 -0.254419 0
M  V30 47 H 5.433530 -3.251318 0.140485 0
M  V30 48 H 5.818143 -3.896481 -2.031775 0
M  V30 49 H 6.166375 -3.564724 -4.399634 0
M  V30 50 H 4.284806 -2.777376 -5.832699 0
M  V30 51 H 1.088364 -3.517533 -1.620944 0
M  V30 52 H 0.544312 -2.568895 -3.025353 0
M  V30 53 H -0.273735 -2.074855 -0.221982 0
M  V30 54 H -0.868590 -1.540265 -1.878830 0
M  V30 55 H 0.391936 0.402099 0.072186 0
M  V30 56 H -2.584296 -0.121970 -0.130586 0
M  V30 57 H -1.462215 1.348633 4.175473 0
M  V30 58 H -3.299328 1.536444 5.723360 0
M  V30 59 H -6.063456 1.220754 6.061386 0
M  V30 60 H -8.249876 -1.634090 3.047937 0
M  V30 61 H -9.575245 -2.471434 1.226710 0
M  V30 62 H -7.621025 0.182791 -1.488546 0
M  V30 63 H -6.241955 1.048342 0.433272 0
M  V30 64 H -4.191914 0.012189 1.114716 0
M  V30 65 H -0.465329 2.052821 -1.482030 0
M  V30 66 H -1.481522 0.738796 -2.267500 0
M  V30 67 H 0.209642 0.157885 -3.586841 0
M  V30 68 H 1.075286 1.614567 -3.033145 0
M  V30 69 H 2.253362 -0.606161 -3.035102 0
M  V30 70 H 2.557629 -1.504793 0.775928 0
M  V30 71 H 2.270294 -0.056058 1.873121 0
M  V30 72 H 5.021114 -1.104142 1.109349 0
M  V30 73 H 4.074352 -1.603223 2.535476 0
M  V30 74 H 4.581877 2.545830 2.220674 0
M  V30 75 H 2.934668 1.804078 2.346734 0
M  V30 76 H 5.080986 1.077781 0.269051 0
M  V30 77 H 3.835902 2.386884 -0.091927 0
M  V30 END ATOM
M  V30 BEGIN BOND
M  V30 1 1 1 2
M  V30 2 1 2 3
M  V30 3 2 3 4
M  V30 4 1 4 5
M  V30 5 2 5 6
M  V30 6 1 6 7
M  V30 7 1 7 8
M  V30 8 2 7 9
M  V30 9 1 9 10
M  V30 10 1 10 11
M  V30 11 1 11 12
M  V30 12 1 12 13
M  V30 13 1 13 14
M  V30 14 1 14 15
M  V30 15 2 15 16
M  V30 16 1 15 17
M  V30 17 2 17 18
M  V30 18 1 18 19
M  V30 19 2 19 20
M  V30 20 1 20 21
M  V30 21 1 21 22
M  V30 22 2 22 23
M  V30 23 1 23 24
M  V30 24 2 24 25
M  V30 25 1 25 26
M  V30 26 2 26 27
M  V30 27 1 27 28
M  V30 28 2 28 29
M  V30 29 1 23 30
M  V30 30 2 30 31
M  V30 31 1 13 32
M  V30 32 1 32 33
M  V30 33 1 33 34
M  V30 34 1 34 35
M  V30 35 2 35 36
M  V30 36 1 35 37
M  V30 37 1 37 38
M  V30 38 1 38 39
M  V30 39 1 39 40
M  V30 40 1 40 41
M  V30 41 1 40 42
M  V30 42 1 40 43
M  V30 43 1 43 44
M  V30 44 1 9 3
M  V30 45 1 34 11
M  V30 46 1 44 37
M  V30 47 1 31 17
M  V30 48 1 30 20
M  V30 49 1 29 24
M  V30 50 1 1 45
M  V30 51 1 1 46
M  V30 52 1 1 47
M  V30 53 1 4 48
M  V30 54 1 5 49
M  V30 55 1 6 50
M  V30 56 1 10 51
M  V30 57 1 10 52
M  V30 58 1 12 53
M  V30 59 1 12 54
M  V30 60 1 13 55 CFG=1
M  V30 61 1 14 56
M  V30 62 1 18 57
M  V30 63 1 19 58
M  V30 64 1 21 59
M  V30 65 1 25 60
M  V30 66 1 26 61
M  V30 67 1 28 62
M  V30 68 1 29 63
M  V30 69 1 31 64
M  V30 70 1 32 65
M  V30 71 1 32 66
M  V30 72 1 33 67
M  V30 73 1 33 68
M  V30 74 1 34 69 CFG=3
M  V30 75 1 38 70
M  V30 76 1 38 71
M  V30 77 1 39 72
M  V30 78 1 39 73
M  V30 79 1 43 74
M  V30 80 1 43 75
M  V30 81 1 44 76
M  V30 82 1 44 77
M  V30 END BOND
M  V30 END CTAB
M  END
>  <Dataset>  (536) 
ChEMBL_Kinases

>  <Ligand_Instance>  (536) 
nan

>  <PDB_ID>  (536) 
nan

>  <Standardized_SMILES>  (536) 
COc1cccc(F)c1CN1C[C@H](NC(=O)c2ccc3[nH]nc(-c4ccncc4)c3c2)CC[C@H]1C(=O)N1CCC(F)(F)CC1

>  <Name>  (536) 
nan

>  <Pocket>  (536) 
nan

>  <ATP_Site>  (536) 
nan

>  <Peripheral>  (536) 
nan

>  <Num_H_Atoms_ProtBoundConf>  (536) 
nan

>  <Num_Resolved_Atoms>  (536) 
nan

>  <Num_Not_Resolved_Atoms>  (536) 
nan

$$$$
CHEMBL3654635
     RDKit          3D

  0  0  0  0  0  0  0  0  0  0999 V3000
M  V30 BEGIN CTAB
M  V30 COUNTS 73 77 0 0 0
M  V30 BEGIN ATOM
M  V30 1 C 1.909084 -2.687216 2.726599 0
M  V30 2 O 2.100514 -1.305785 2.481755 0
M  V30 3 C 1.547335 -0.392251 3.368848 0
M  V30 4 C 0.817709 -0.826518 4.479553 0
M  V30 5 C 0.228931 -0.007298 5.418203 0
M  V30 6 C 0.388466 1.348316 5.221257 0
M  V30 7 C 1.092276 1.860221 4.153218 0
M  V30 8 F 1.277655 3.181603 3.925979 0
M  V30 9 C 1.662859 0.999333 3.240459 0
M  V30 10 C 2.470669 1.373423 2.015284 0
M  V30 11 N 1.636273 1.153716 0.909904 0
M  V30 12 C 0.491582 2.004942 1.050435 0
M  V30 13 C -0.392361 2.141874 -0.132513 0 CFG=2
M  V30 14 N -1.287954 1.020296 -0.283964 0
M  V30 15 C -2.690269 1.160656 -0.135152 0
M  V30 16 O -3.158392 2.309542 0.138251 0
M  V30 17 C -3.649458 0.085088 -0.271262 0
M  V30 18 C -4.980668 0.370078 -0.095680 0
M  V30 19 C -5.990906 -0.587677 -0.202085 0
M  V30 20 C -5.672337 -1.900038 -0.498385 0
M  V30 21 N -6.380242 -3.034718 -0.668192 0
M  V30 22 N -5.510557 -4.003386 -0.943260 0
M  V30 23 C -4.260574 -3.508275 -0.952157 0
M  V30 24 C -3.104808 -4.350522 -1.227382 0
M  V30 25 C -3.225203 -5.222557 -2.302780 0
M  V30 26 C -2.161082 -6.043134 -2.606165 0
M  V30 27 N -1.035116 -6.012242 -1.893308 0
M  V30 28 C -0.940268 -5.161098 -0.857648 0
M  V30 29 C 0.302009 -5.092890 -0.032204 0
M  V30 30 C -1.949392 -4.312595 -0.489116 0
M  V30 31 C -4.320590 -2.159548 -0.670753 0
M  V30 32 C -3.323711 -1.218224 -0.566327 0
M  V30 33 C 0.371813 2.510086 -1.365598 0
M  V30 34 C 1.850884 2.448967 -1.043378 0
M  V30 35 C 2.109909 1.101070 -0.402826 0 CFG=1
M  V30 36 C 3.457511 0.589432 -0.653362 0
M  V30 37 O 4.416162 0.260690 0.133379 0
M  V30 38 N 3.802356 0.409158 -2.048222 0
M  V30 39 C 3.019646 0.631482 -3.261664 0
M  V30 40 C 5.135265 -0.068538 -2.460869 0
M  V30 41 H 0.822275 -2.959983 2.823972 0
M  V30 42 H 2.423857 -3.297067 1.942121 0
M  V30 43 H 2.370005 -3.023937 3.697776 0
M  V30 44 H 0.714060 -1.913082 4.600227 0
M  V30 45 H -0.317049 -0.430789 6.245113 0
M  V30 46 H -0.048685 2.043090 5.920736 0
M  V30 47 H 2.632524 2.493133 2.081915 0
M  V30 48 H 3.451109 0.940673 2.078191 0
M  V30 49 H -0.116916 1.648308 1.917397 0
M  V30 50 H 0.811844 3.054870 1.301269 0
M  V30 51 H -1.073886 3.015009 0.093295 0
M  V30 52 H -0.920267 0.050751 -0.512258 0
M  V30 53 H -5.375410 1.365482 0.142980 0
M  V30 54 H -7.039318 -0.362564 -0.063337 0
M  V30 55 H -7.412407 -3.031521 -0.576482 0
M  V30 56 H -4.124852 -5.267629 -2.896171 0
M  V30 57 H -2.225357 -6.732436 -3.437913 0
M  V30 58 H 0.917875 -4.229078 -0.340841 0
M  V30 59 H 0.871783 -6.025358 -0.199852 0
M  V30 60 H 0.013663 -5.056560 1.037509 0
M  V30 61 H -1.887071 -3.625600 0.339144 0
M  V30 62 H -2.298257 -1.481378 -0.710347 0
M  V30 63 H 0.078321 1.876550 -2.219590 0
M  V30 64 H 0.184235 3.561860 -1.689605 0
M  V30 65 H 2.037927 3.267567 -0.285979 0
M  V30 66 H 2.402134 2.646024 -1.956145 0
M  V30 67 H 1.437543 0.380868 -0.961314 0
M  V30 68 H 3.144692 -0.231853 -3.983124 0
M  V30 69 H 1.913426 0.601480 -3.056577 0
M  V30 70 H 3.342532 1.510540 -3.839206 0
M  V30 71 H 5.092396 -0.948960 -3.102136 0
M  V30 72 H 5.568590 0.772310 -3.049640 0
M  V30 73 H 5.794403 -0.181806 -1.576873 0
M  V30 END ATOM
M  V30 BEGIN BOND
M  V30 1 1 1 2
M  V30 2 1 2 3
M  V30 3 2 3 4
M  V30 4 1 4 5
M  V30 5 2 5 6
M  V30 6 1 6 7
M  V30 7 1 7 8
M  V30 8 2 7 9
M  V30 9 1 9 10
M  V30 10 1 10 11
M  V30 11 1 11 12
M  V30 12 1 12 13
M  V30 13 1 13 14
M  V30 14 1 14 15
M  V30 15 2 15 16
M  V30 16 1 15 17
M  V30 17 2 17 18
M  V30 18 1 18 19
M  V30 19 2 19 20
M  V30 20 1 20 21
M  V30 21 1 21 22
M  V30 22 2 22 23
M  V30 23 1 23 24
M  V30 24 2 24 25
M  V30 25 1 25 26
M  V30 26 2 26 27
M  V30 27 1 27 28
M  V30 28 1 28 29
M  V30 29 2 28 30
M  V30 30 1 23 31
M  V30 31 2 31 32
M  V30 32 1 13 33
M  V30 33 1 33 34
M  V30 34 1 34 35
M  V30 35 1 35 36
M  V30 36 2 36 37
M  V30 37 1 36 38
M  V30 38 1 38 39
M  V30 39 1 38 40
M  V30 40 1 9 3
M  V30 41 1 35 11
M  V30 42 1 32 17
M  V30 43 1 31 20
M  V30 44 1 30 24
M  V30 45 1 1 41
M  V30 46 1 1 42
M  V30 47 1 1 43
M  V30 48 1 4 44
M  V30 49 1 5 45
M  V30 50 1 6 46
M  V30 51 1 10 47
M  V30 52 1 10 48
M  V30 53 1 12 49
M  V30 54 1 12 50
M  V30 55 1 13 51 CFG=1
M  V30 56 1 14 52
M  V30 57 1 18 53
M  V30 58 1 19 54
M  V30 59 1 21 55
M  V30 60 1 25 56
M  V30 61 1 26 57
M  V30 62 1 29 58
M  V30 63 1 29 59
M  V30 64 1 29 60
M  V30 65 1 30 61
M  V30 66 1 32 62
M  V30 67 1 33 63
M  V30 68 1 33 64
M  V30 69 1 34 65
M  V30 70 1 34 66
M  V30 71 1 35 67 CFG=3
M  V30 72 1 39 68
M  V30 73 1 39 69
M  V30 74 1 39 70
M  V30 75 1 40 71
M  V30 76 1 40 72
M  V30 77 1 40 73
M  V30 END BOND
M  V30 END CTAB
M  END
>  <Dataset>  (537) 
ChEMBL_Kinases

>  <Ligand_Instance>  (537) 
nan

>  <PDB_ID>  (537) 
nan

>  <Standardized_SMILES>  (537) 
COc1cccc(F)c1CN1C[C@H](NC(=O)c2ccc3[nH]nc(-c4ccnc(C)c4)c3c2)CC[C@H]1C(=O)N(C)C

>  <Name>  (537) 
nan

>  <Pocket>  (537) 
nan

>  <ATP_Site>  (537) 
nan

>  <Peripheral>  (537) 
nan

>  <Num_H_Atoms_ProtBoundConf>  (537) 
nan

>  <Num_Resolved_Atoms>  (537) 
nan

>  <Num_Not_Resolved_Atoms>  (537) 
nan

$$$$
CHEMBL3654636
     RDKit          3D

  0  0  0  0  0  0  0  0  0  0999 V3000
M  V30 BEGIN CTAB
M  V30 COUNTS 79 83 0 0 0
M  V30 BEGIN ATOM
M  V30 1 C 3.372857 -2.998277 1.457136 0
M  V30 2 C 1.956699 -3.374455 1.109917 0
M  V30 3 N 1.763550 -3.659720 -0.298284 0
M  V30 4 C 2.021257 -5.076633 -0.605148 0
M  V30 5 C 0.682879 -5.787092 -0.436681 0
M  V30 6 C 1.381175 -2.805154 -1.373967 0
M  V30 7 O 1.246965 -3.325388 -2.536062 0
M  V30 8 C 1.108614 -1.384465 -1.334626 0 CFG=2
M  V30 9 C 0.823907 -0.778953 -2.655948 0
M  V30 10 C 0.486820 0.679408 -2.590272 0
M  V30 11 C 0.559113 1.268246 -1.216104 0 CFG=1
M  V30 12 N -0.826620 1.314798 -0.716610 0
M  V30 13 C -1.489080 2.542337 -0.486925 0
M  V30 14 O -0.850862 3.626169 -0.726421 0
M  V30 15 C -2.836349 2.724532 -0.001682 0
M  V30 16 C -3.334936 3.990190 0.140134 0
M  V30 17 C -4.637071 4.211436 0.608828 0
M  V30 18 C -5.480716 3.174438 0.950044 0
M  V30 19 N -6.737762 3.061153 1.413808 0
M  V30 20 N -7.051931 1.800608 1.569548 0
M  V30 21 C -5.994431 1.017311 1.207709 0
M  V30 22 C -5.938573 -0.440079 1.237516 0
M  V30 23 C -5.452084 -1.292181 0.267350 0
M  V30 24 C -5.486031 -2.653213 0.487463 0
M  V30 25 N -5.980024 -3.177383 1.621884 0
M  V30 26 C -6.470587 -2.399707 2.608946 0
M  V30 27 C -7.014504 -2.981826 3.860352 0
M  V30 28 C -6.437899 -1.053063 2.392964 0
M  V30 29 C -4.984294 1.897234 0.809541 0
M  V30 30 C -3.701526 1.708040 0.346911 0
M  V30 31 C 1.414064 0.596187 -0.225093 0
M  V30 32 N 2.120182 -0.553857 -0.674697 0
M  V30 33 C 3.254770 -0.384120 -1.500475 0
M  V30 34 C 4.357835 0.419982 -0.944411 0
M  V30 35 C 4.430110 1.788876 -0.906508 0
M  V30 36 F 3.463906 2.547536 -1.468064 0
M  V30 37 C 5.444264 2.542511 -0.372400 0
M  V30 38 C 6.522355 1.901772 0.193754 0
M  V30 39 C 6.543563 0.526417 0.202582 0
M  V30 40 C 5.481877 -0.167473 -0.356095 0
M  V30 41 O 5.618711 -1.535472 -0.290762 0
M  V30 42 C 6.683557 -2.244986 0.266144 0
M  V30 43 H 4.086751 -3.517360 0.778814 0
M  V30 44 H 3.473723 -1.912566 1.363798 0
M  V30 45 H 3.611532 -3.251643 2.528831 0
M  V30 46 H 1.675128 -4.247716 1.746554 0
M  V30 47 H 1.240278 -2.555930 1.440760 0
M  V30 48 H 2.329110 -5.191761 -1.664800 0
M  V30 49 H 2.815317 -5.507074 0.030575 0
M  V30 50 H -0.166386 -5.067810 -0.575066 0
M  V30 51 H 0.535232 -6.546409 -1.238712 0
M  V30 52 H 0.556745 -6.197575 0.582048 0
M  V30 53 H 0.141419 -1.237372 -0.723756 0
M  V30 54 H 1.629500 -1.015358 -3.369685 0
M  V30 55 H -0.068053 -1.350951 -3.077367 0
M  V30 56 H 1.155216 1.222037 -3.283766 0
M  V30 57 H -0.531513 0.813947 -3.021358 0
M  V30 58 H 0.839164 2.338253 -1.293762 0
M  V30 59 H -1.468350 0.510802 -0.479146 0
M  V30 60 H -2.770953 4.894347 -0.094349 0
M  V30 61 H -5.005722 5.238091 0.710517 0
M  V30 62 H -7.364286 3.894912 1.615685 0
M  V30 63 H -5.074465 -0.779862 -0.612061 0
M  V30 64 H -5.100444 -3.272417 -0.287802 0
M  V30 65 H -6.202630 -3.053130 4.612897 0
M  V30 66 H -7.323653 -4.044779 3.665242 0
M  V30 67 H -7.910243 -2.468904 4.218981 0
M  V30 68 H -6.835660 -0.438442 3.196607 0
M  V30 69 H -3.358464 0.687293 0.253943 0
M  V30 70 H 0.733838 0.205901 0.605856 0
M  V30 71 H 2.103313 1.263414 0.322582 0
M  V30 72 H 3.044408 0.037906 -2.513434 0
M  V30 73 H 3.703358 -1.414535 -1.668900 0
M  V30 74 H 5.474587 3.612797 -0.355666 0
M  V30 75 H 7.340811 2.449283 0.625310 0
M  V30 76 H 7.393840 0.043181 0.648707 0
M  V30 77 H 6.686806 -2.244225 1.371152 0
M  V30 78 H 7.657318 -1.840686 -0.109941 0
M  V30 79 H 6.640127 -3.297624 -0.080781 0
M  V30 END ATOM
M  V30 BEGIN BOND
M  V30 1 1 1 2
M  V30 2 1 2 3
M  V30 3 1 3 4
M  V30 4 1 4 5
M  V30 5 1 3 6
M  V30 6 2 6 7
M  V30 7 1 6 8
M  V30 8 1 8 9
M  V30 9 1 9 10
M  V30 10 1 10 11
M  V30 11 1 11 12
M  V30 12 1 12 13
M  V30 13 2 13 14
M  V30 14 1 13 15
M  V30 15 2 15 16
M  V30 16 1 16 17
M  V30 17 2 17 18
M  V30 18 1 18 19
M  V30 19 1 19 20
M  V30 20 2 20 21
M  V30 21 1 21 22
M  V30 22 2 22 23
M  V30 23 1 23 24
M  V30 24 2 24 25
M  V30 25 1 25 26
M  V30 26 1 26 27
M  V30 27 2 26 28
M  V30 28 1 21 29
M  V30 29 2 29 30
M  V30 30 1 11 31
M  V30 31 1 31 32
M  V30 32 1 32 33
M  V30 33 1 33 34
M  V30 34 2 34 35
M  V30 35 1 35 36
M  V30 36 1 35 37
M  V30 37 2 37 38
M  V30 38 1 38 39
M  V30 39 2 39 40
M  V30 40 1 40 41
M  V30 41 1 41 42
M  V30 42 1 32 8
M  V30 43 1 40 34
M  V30 44 1 30 15
M  V30 45 1 29 18
M  V30 46 1 28 22
M  V30 47 1 1 43
M  V30 48 1 1 44
M  V30 49 1 1 45
M  V30 50 1 2 46
M  V30 51 1 2 47
M  V30 52 1 4 48
M  V30 53 1 4 49
M  V30 54 1 5 50
M  V30 55 1 5 51
M  V30 56 1 5 52
M  V30 57 1 8 53 CFG=1
M  V30 58 1 9 54
M  V30 59 1 9 55
M  V30 60 1 10 56
M  V30 61 1 10 57
M  V30 62 1 11 58 CFG=3
M  V30 63 1 12 59
M  V30 64 1 16 60
M  V30 65 1 17 61
M  V30 66 1 19 62
M  V30 67 1 23 63
M  V30 68 1 24 64
M  V30 69 1 27 65
M  V30 70 1 27 66
M  V30 71 1 27 67
M  V30 72 1 28 68
M  V30 73 1 30 69
M  V30 74 1 31 70
M  V30 75 1 31 71
M  V30 76 1 33 72
M  V30 77 1 33 73
M  V30 78 1 37 74
M  V30 79 1 38 75
M  V30 80 1 39 76
M  V30 81 1 42 77
M  V30 82 1 42 78
M  V30 83 1 42 79
M  V30 END BOND
M  V30 END CTAB
M  END
>  <Dataset>  (538) 
ChEMBL_Kinases

>  <Ligand_Instance>  (538) 
nan

>  <PDB_ID>  (538) 
nan

>  <Standardized_SMILES>  (538) 
CCN(CC)C(=O)[C@@H]1CC[C@@H](NC(=O)c2ccc3[nH]nc(-c4ccnc(C)c4)c3c2)CN1Cc1c(F)cccc1OC

>  <Name>  (538) 
nan

>  <Pocket>  (538) 
nan

>  <ATP_Site>  (538) 
nan

>  <Peripheral>  (538) 
nan

>  <Num_H_Atoms_ProtBoundConf>  (538) 
nan

>  <Num_Resolved_Atoms>  (538) 
nan

>  <Num_Not_Resolved_Atoms>  (538) 
nan

$$$$
CHEMBL3654637
     RDKit          3D

  0  0  0  0  0  0  0  0  0  0999 V3000
M  V30 BEGIN CTAB
M  V30 COUNTS 74 79 0 0 0
M  V30 BEGIN ATOM
M  V30 1 C 2.456716 -4.432911 -0.675923 0
M  V30 2 O 2.563285 -3.099025 -1.127342 0
M  V30 3 C 3.787406 -2.611854 -1.610886 0
M  V30 4 C 4.871766 -3.486954 -1.629678 0
M  V30 5 C 6.096147 -3.052786 -2.096550 0
M  V30 6 C 6.275478 -1.740221 -2.558133 0
M  V30 7 C 5.167716 -0.915583 -2.516966 0
M  V30 8 F 5.266132 0.362855 -2.950653 0
M  V30 9 C 3.920148 -1.306956 -2.055974 0
M  V30 10 C 2.705774 -0.513116 -1.971996 0
M  V30 11 N 2.373638 -0.013917 -0.637802 0
M  V30 12 C 1.029446 0.609986 -0.809694 0
M  V30 13 C 0.478844 0.697801 0.594327 0 CFG=2
M  V30 14 N -0.877565 1.168454 0.629647 0
M  V30 15 C -2.102106 0.482179 0.856620 0
M  V30 16 O -1.883179 -0.750925 1.046934 0
M  V30 17 C -3.371905 1.183035 0.849879 0
M  V30 18 C -3.428487 2.569058 0.794714 0
M  V30 19 C -4.660338 3.186833 0.787761 0
M  V30 20 C -5.786354 2.385915 0.836709 0
M  V30 21 N -7.089063 2.715802 0.846067 0
M  V30 22 N -7.831888 1.616461 0.902390 0
M  V30 23 C -7.033760 0.516385 0.932086 0
M  V30 24 C -7.462554 -0.886471 0.992749 0
M  V30 25 C -8.396794 -1.450373 1.829082 0
M  V30 26 C -8.685706 -2.792677 1.730855 0
M  V30 27 N -8.060469 -3.582334 0.815269 0
M  V30 28 C -7.131106 -3.044139 -0.023936 0
M  V30 29 C -6.448125 -3.904953 -1.036897 0
M  V30 30 C -6.838606 -1.681231 0.076600 0
M  V30 31 C -5.726762 1.013734 0.890038 0
M  V30 32 C -4.490840 0.355746 0.899066 0
M  V30 33 C 1.458900 1.481353 1.393772 0
M  V30 34 C 2.531088 2.124723 0.538727 0
M  V30 35 C 3.283205 1.063218 -0.261982 0 CFG=1
M  V30 36 C 4.433288 0.659238 0.546039 0
M  V30 37 O 5.336889 1.569750 0.413606 0
M  V30 38 N 4.599424 -0.514886 1.367823 0
M  V30 39 C 4.124640 -1.782252 1.937696 0
M  V30 40 C 5.516368 -2.245733 2.240853 0
M  V30 41 F 5.683979 -2.763008 3.521292 0
M  V30 42 F 6.095819 -3.026664 1.282217 0
M  V30 43 C 5.829358 -0.769653 2.153597 0
M  V30 44 H 3.301632 -4.564724 0.049507 0
M  V30 45 H 1.490742 -4.535427 -0.141584 0
M  V30 46 H 2.616367 -5.196917 -1.451173 0
M  V30 47 H 4.835640 -4.523085 -1.295854 0
M  V30 48 H 7.012266 -3.635515 -2.158749 0
M  V30 49 H 7.223595 -1.365622 -2.938324 0
M  V30 50 H 2.824173 0.389748 -2.614837 0
M  V30 51 H 1.832411 -1.064692 -2.392789 0
M  V30 52 H 1.226699 1.608065 -1.227332 0
M  V30 53 H 0.450972 -0.018164 -1.495505 0
M  V30 54 H 0.475994 -0.356175 0.962881 0
M  V30 55 H -0.803686 2.190707 0.447190 0
M  V30 56 H -2.538902 3.183588 0.757432 0
M  V30 57 H -4.749495 4.253968 0.744735 0
M  V30 58 H -7.433448 3.714632 0.810910 0
M  V30 59 H -8.845924 -0.758252 2.530347 0
M  V30 60 H -9.427889 -3.216081 2.400377 0
M  V30 61 H -6.014331 -3.287943 -1.847649 0
M  V30 62 H -5.740636 -4.554541 -0.518167 0
M  V30 63 H -7.216037 -4.565156 -1.495995 0
M  V30 64 H -6.092787 -1.346124 -0.629835 0
M  V30 65 H -4.418643 -0.719193 0.941578 0
M  V30 66 H 1.994026 0.805315 2.127198 0
M  V30 67 H 1.002548 2.270670 2.014868 0
M  V30 68 H 2.137899 2.946607 -0.077414 0
M  V30 69 H 3.251060 2.587327 1.234976 0
M  V30 70 H 3.604112 1.529646 -1.200793 0
M  V30 71 H 3.489504 -1.591198 2.854035 0
M  V30 72 H 3.630048 -2.474021 1.267744 0
M  V30 73 H 6.765875 -0.597659 1.620098 0
M  V30 74 H 5.772577 -0.318895 3.171586 0
M  V30 END ATOM
M  V30 BEGIN BOND
M  V30 1 1 1 2
M  V30 2 1 2 3
M  V30 3 2 3 4
M  V30 4 1 4 5
M  V30 5 2 5 6
M  V30 6 1 6 7
M  V30 7 1 7 8
M  V30 8 2 7 9
M  V30 9 1 9 10
M  V30 10 1 10 11
M  V30 11 1 11 12
M  V30 12 1 12 13
M  V30 13 1 13 14
M  V30 14 1 14 15
M  V30 15 2 15 16
M  V30 16 1 15 17
M  V30 17 2 17 18
M  V30 18 1 18 19
M  V30 19 2 19 20
M  V30 20 1 20 21
M  V30 21 1 21 22
M  V30 22 2 22 23
M  V30 23 1 23 24
M  V30 24 2 24 25
M  V30 25 1 25 26
M  V30 26 2 26 27
M  V30 27 1 27 28
M  V30 28 1 28 29
M  V30 29 2 28 30
M  V30 30 1 23 31
M  V30 31 2 31 32
M  V30 32 1 13 33
M  V30 33 1 33 34
M  V30 34 1 34 35
M  V30 35 1 35 36
M  V30 36 2 36 37
M  V30 37 1 36 38
M  V30 38 1 38 39
M  V30 39 1 39 40
M  V30 40 1 40 41
M  V30 41 1 40 42
M  V30 42 1 40 43
M  V30 43 1 9 3
M  V30 44 1 35 11
M  V30 45 1 43 38
M  V30 46 1 32 17
M  V30 47 1 31 20
M  V30 48 1 30 24
M  V30 49 1 1 44
M  V30 50 1 1 45
M  V30 51 1 1 46
M  V30 52 1 4 47
M  V30 53 1 5 48
M  V30 54 1 6 49
M  V30 55 1 10 50
M  V30 56 1 10 51
M  V30 57 1 12 52
M  V30 58 1 12 53
M  V30 59 1 13 54 CFG=1
M  V30 60 1 14 55
M  V30 61 1 18 56
M  V30 62 1 19 57
M  V30 63 1 21 58
M  V30 64 1 25 59
M  V30 65 1 26 60
M  V30 66 1 29 61
M  V30 67 1 29 62
M  V30 68 1 29 63
M  V30 69 1 30 64
M  V30 70 1 32 65
M  V30 71 1 33 66
M  V30 72 1 33 67
M  V30 73 1 34 68
M  V30 74 1 34 69
M  V30 75 1 35 70 CFG=3
M  V30 76 1 39 71
M  V30 77 1 39 72
M  V30 78 1 43 73
M  V30 79 1 43 74
M  V30 END BOND
M  V30 END CTAB
M  END
>  <Dataset>  (539) 
ChEMBL_Kinases

>  <Ligand_Instance>  (539) 
nan

>  <PDB_ID>  (539) 
nan

>  <Standardized_SMILES>  (539) 
COc1cccc(F)c1CN1C[C@H](NC(=O)c2ccc3[nH]nc(-c4ccnc(C)c4)c3c2)CC[C@H]1C(=O)N1CC(F)(F)C1

>  <Name>  (539) 
nan

>  <Pocket>  (539) 
nan

>  <ATP_Site>  (539) 
nan

>  <Peripheral>  (539) 
nan

>  <Num_H_Atoms_ProtBoundConf>  (539) 
nan

>  <Num_Resolved_Atoms>  (539) 
nan

>  <Num_Not_Resolved_Atoms>  (539) 
nan

$$$$
CHEMBL3654638
     RDKit          3D

  0  0  0  0  0  0  0  0  0  0999 V3000
M  V30 BEGIN CTAB
M  V30 COUNTS 74 79 0 0 0
M  V30 BEGIN ATOM
M  V30 1 C 1.474124 -2.975533 1.471481 0
M  V30 2 O 1.798768 -1.604139 1.603426 0
M  V30 3 C 1.566097 -0.863024 2.741760 0
M  V30 4 C 0.972571 -1.452041 3.863071 0
M  V30 5 C 0.774168 -0.657904 4.988106 0
M  V30 6 C 1.168845 0.637067 4.909880 0
M  V30 7 C 1.765439 1.283662 3.823019 0
M  V30 8 F 2.108109 2.595974 3.823232 0
M  V30 9 C 1.962570 0.488835 2.714959 0
M  V30 10 C 2.582666 1.111171 1.541856 0
M  V30 11 N 1.936403 2.112990 0.791986 0
M  V30 12 C 0.630889 2.502237 1.014722 0
M  V30 13 C -0.297308 2.638084 -0.171858 0 CFG=2
M  V30 14 N -1.060946 1.382991 -0.269969 0
M  V30 15 C -2.230428 1.292027 0.498474 0
M  V30 16 O -2.477690 2.349261 1.187540 0
M  V30 17 C -3.209897 0.232777 0.674928 0
M  V30 18 C -4.104833 0.511442 1.716555 0
M  V30 19 C -5.084066 -0.437825 2.066586 0
M  V30 20 C -5.141448 -1.652800 1.363016 0
M  V30 21 N -5.973749 -2.693505 1.564099 0
M  V30 22 N -5.612186 -3.621640 0.659589 0
M  V30 23 C -4.560799 -3.122303 -0.076376 0
M  V30 24 C -3.961911 -3.947620 -1.116041 0
M  V30 25 C -3.751429 -3.668841 -2.468368 0
M  V30 26 C -3.148692 -4.637756 -3.232374 0
M  V30 27 N -2.723767 -5.841176 -2.822371 0
M  V30 28 C -2.904963 -6.163401 -1.498066 0
M  V30 29 C -2.441834 -7.473076 -0.899737 0
M  V30 30 C -3.520426 -5.203758 -0.699338 0
M  V30 31 C -4.231273 -1.860137 0.347153 0
M  V30 32 C -3.281274 -0.941007 -0.001225 0
M  V30 33 C 0.324798 3.014511 -1.452506 0
M  V30 34 C 1.797713 3.307473 -1.237173 0
M  V30 35 C 2.348825 2.053042 -0.618576 0 CFG=1
M  V30 36 C 3.833911 1.948982 -0.692043 0
M  V30 37 O 4.716440 2.347365 0.129938 0
M  V30 38 N 4.220246 1.269923 -1.907539 0
M  V30 39 C 3.712017 0.695698 -3.174140 0
M  V30 40 C 4.948183 -0.179120 -3.283651 0
M  V30 41 C 5.560810 0.784996 -2.287513 0
M  V30 42 H 0.541998 -3.287324 1.989860 0
M  V30 43 H 2.276327 -3.605934 1.987418 0
M  V30 44 H 1.498182 -3.289425 0.421491 0
M  V30 45 H 0.696290 -2.490905 3.846481 0
M  V30 46 H 0.324151 -1.099643 5.863065 0
M  V30 47 H 0.995175 1.272787 5.794682 0
M  V30 48 H 2.758173 0.217126 0.758617 0
M  V30 49 H 3.638878 1.318733 1.804872 0
M  V30 50 H 0.664663 3.546398 1.476987 0
M  V30 51 H 0.075538 1.852384 1.754772 0
M  V30 52 H -0.978920 3.495005 0.116108 0
M  V30 53 H -0.886716 0.527071 -0.835765 0
M  V30 54 H -4.214860 1.370054 2.376004 0
M  V30 55 H -5.815164 -0.298111 2.858244 0
M  V30 56 H -6.741362 -2.805494 2.250236 0
M  V30 57 H -4.098552 -2.705412 -2.738553 0
M  V30 58 H -3.010536 -4.373100 -4.289057 0
M  V30 59 H -1.884614 -8.055030 -1.647765 0
M  V30 60 H -3.259945 -8.049545 -0.434860 0
M  V30 61 H -1.793996 -7.150066 -0.023257 0
M  V30 62 H -3.625439 -5.516578 0.350045 0
M  V30 63 H -2.598907 -1.148447 -0.786497 0
M  V30 64 H 0.295012 2.188673 -2.210679 0
M  V30 65 H -0.118052 3.892039 -1.944752 0
M  V30 66 H 2.256820 3.566414 -2.207445 0
M  V30 67 H 1.948350 4.129521 -0.537035 0
M  V30 68 H 1.852865 1.187960 -1.090473 0
M  V30 69 H 2.824471 0.087022 -2.977389 0
M  V30 70 H 3.605079 1.471502 -3.975840 0
M  V30 71 H 4.831663 -1.195433 -2.893016 0
M  V30 72 H 5.415547 -0.158481 -4.273087 0
M  V30 73 H 6.050574 0.218887 -1.443243 0
M  V30 74 H 6.228845 1.508239 -2.735219 0
M  V30 END ATOM
M  V30 BEGIN BOND
M  V30 1 1 1 2
M  V30 2 1 2 3
M  V30 3 2 3 4
M  V30 4 1 4 5
M  V30 5 2 5 6
M  V30 6 1 6 7
M  V30 7 1 7 8
M  V30 8 2 7 9
M  V30 9 1 9 10
M  V30 10 1 10 11
M  V30 11 1 11 12
M  V30 12 1 12 13
M  V30 13 1 13 14
M  V30 14 1 14 15
M  V30 15 2 15 16
M  V30 16 1 15 17
M  V30 17 2 17 18
M  V30 18 1 18 19
M  V30 19 2 19 20
M  V30 20 1 20 21
M  V30 21 1 21 22
M  V30 22 2 22 23
M  V30 23 1 23 24
M  V30 24 2 24 25
M  V30 25 1 25 26
M  V30 26 2 26 27
M  V30 27 1 27 28
M  V30 28 1 28 29
M  V30 29 2 28 30
M  V30 30 1 23 31
M  V30 31 2 31 32
M  V30 32 1 13 33
M  V30 33 1 33 34
M  V30 34 1 34 35
M  V30 35 1 35 36
M  V30 36 2 36 37
M  V30 37 1 36 38
M  V30 38 1 38 39
M  V30 39 1 39 40
M  V30 40 1 40 41
M  V30 41 1 9 3
M  V30 42 1 35 11
M  V30 43 1 41 38
M  V30 44 1 32 17
M  V30 45 1 31 20
M  V30 46 1 30 24
M  V30 47 1 1 42
M  V30 48 1 1 43
M  V30 49 1 1 44
M  V30 50 1 4 45
M  V30 51 1 5 46
M  V30 52 1 6 47
M  V30 53 1 10 48
M  V30 54 1 10 49
M  V30 55 1 12 50
M  V30 56 1 12 51
M  V30 57 1 13 52 CFG=1
M  V30 58 1 14 53
M  V30 59 1 18 54
M  V30 60 1 19 55
M  V30 61 1 21 56
M  V30 62 1 25 57
M  V30 63 1 26 58
M  V30 64 1 29 59
M  V30 65 1 29 60
M  V30 66 1 29 61
M  V30 67 1 30 62
M  V30 68 1 32 63
M  V30 69 1 33 64
M  V30 70 1 33 65
M  V30 71 1 34 66
M  V30 72 1 34 67
M  V30 73 1 35 68 CFG=3
M  V30 74 1 39 69
M  V30 75 1 39 70
M  V30 76 1 40 71
M  V30 77 1 40 72
M  V30 78 1 41 73
M  V30 79 1 41 74
M  V30 END BOND
M  V30 END CTAB
M  END
>  <Dataset>  (540) 
ChEMBL_Kinases

>  <Ligand_Instance>  (540) 
nan

>  <PDB_ID>  (540) 
nan

>  <Standardized_SMILES>  (540) 
COc1cccc(F)c1CN1C[C@H](NC(=O)c2ccc3[nH]nc(-c4ccnc(C)c4)c3c2)CC[C@H]1C(=O)N1CCC1

>  <Name>  (540) 
nan

>  <Pocket>  (540) 
nan

>  <ATP_Site>  (540) 
nan

>  <Peripheral>  (540) 
nan

>  <Num_H_Atoms_ProtBoundConf>  (540) 
nan

>  <Num_Resolved_Atoms>  (540) 
nan

>  <Num_Not_Resolved_Atoms>  (540) 
nan

$$$$
CHEMBL3654639
     RDKit          3D

  0  0  0  0  0  0  0  0  0  0999 V3000
M  V30 BEGIN CTAB
M  V30 COUNTS 78 83 0 0 0
M  V30 BEGIN ATOM
M  V30 1 C 4.565628 -0.345545 4.941301 0
M  V30 2 O 3.453209 -0.354322 4.051472 0
M  V30 3 C 3.197637 -1.482531 3.283891 0
M  V30 4 C 4.007517 -2.594024 3.373659 0
M  V30 5 C 3.752758 -3.711019 2.615561 0
M  V30 6 C 2.661728 -3.711426 1.749693 0
M  V30 7 C 1.891971 -2.569409 1.706493 0
M  V30 8 F 0.852036 -2.635581 0.851198 0
M  V30 9 C 2.085581 -1.412602 2.435245 0
M  V30 10 C 1.188108 -0.281166 2.270139 0
M  V30 11 N 1.612469 0.809205 1.470083 0
M  V30 12 C 0.672973 1.841802 1.436058 0
M  V30 13 C 0.031715 1.990030 0.098411 0 CFG=2
M  V30 14 N -0.687481 0.796849 -0.291495 0
M  V30 15 C -2.077314 0.684835 -0.549388 0
M  V30 16 O -2.747116 1.730642 -0.424494 0
M  V30 17 C -2.707796 -0.569853 -0.939033 0
M  V30 18 C -1.991252 -1.734676 -1.117158 0
M  V30 19 C -2.545359 -2.958544 -1.484722 0
M  V30 20 C -3.910899 -2.962048 -1.673984 0
M  V30 21 N -4.749131 -3.968828 -2.027222 0
M  V30 22 N -5.961072 -3.484249 -2.077673 0
M  V30 23 C -5.952778 -2.161170 -1.762938 0
M  V30 24 C -7.164916 -1.355172 -1.734592 0
M  V30 25 C -7.376507 -0.097199 -2.259703 0
M  V30 26 C -8.616976 0.485556 -2.114283 0
M  V30 27 N -9.649167 -0.095498 -1.487376 0
M  V30 28 C -9.491770 -1.323716 -0.958075 0
M  V30 29 C -10.640739 -1.943613 -0.273776 0
M  V30 30 C -8.253918 -1.931512 -1.090694 0
M  V30 31 C -4.647837 -1.807798 -1.501188 0
M  V30 32 C -4.072133 -0.609109 -1.136686 0
M  V30 33 C 1.134277 2.318878 -0.853775 0
M  V30 34 C 2.174813 1.230821 -0.902471 0
M  V30 35 C 2.492022 0.591117 0.400859 0 CFG=1
M  V30 36 C 3.902832 0.990300 0.714776 0
M  V30 37 O 4.221944 1.559960 1.790851 0
M  V30 38 N 4.950761 0.718114 -0.240819 0
M  V30 39 C 4.929206 0.090750 -1.567989 0
M  V30 40 C 6.176988 -0.788129 -1.650948 0
M  V30 41 O 6.538839 -1.241219 -0.380852 0
M  V30 42 C 7.194129 -0.152609 0.219356 0
M  V30 43 C 6.322278 1.077331 0.062079 0
M  V30 44 H 5.513722 -0.633185 4.469588 0
M  V30 45 H 4.677202 0.638791 5.435610 0
M  V30 46 H 4.388592 -1.083931 5.778170 0
M  V30 47 H 4.859788 -2.552649 4.071249 0
M  V30 48 H 4.430297 -4.532623 2.742998 0
M  V30 49 H 2.465205 -4.583387 1.159870 0
M  V30 50 H 0.917270 0.168072 3.276749 0
M  V30 51 H 0.213941 -0.648540 1.891360 0
M  V30 52 H -0.082513 1.713047 2.237572 0
M  V30 53 H 1.176882 2.813453 1.677089 0
M  V30 54 H -0.711690 2.827594 0.091460 0
M  V30 55 H -0.066885 -0.011114 -0.375077 0
M  V30 56 H -0.920459 -1.754084 -0.973820 0
M  V30 57 H -1.921147 -3.837035 -1.607505 0
M  V30 58 H -4.426038 -4.963651 -2.219094 0
M  V30 59 H -6.515816 0.325775 -2.753104 0
M  V30 60 H -8.745526 1.476885 -2.540947 0
M  V30 61 H -10.416202 -2.955844 0.113157 0
M  V30 62 H -11.454791 -2.072903 -1.047191 0
M  V30 63 H -11.072211 -1.278735 0.499996 0
M  V30 64 H -8.196232 -2.910318 -0.646097 0
M  V30 65 H -4.712783 0.251465 -1.020818 0
M  V30 66 H 1.566448 3.298332 -0.570424 0
M  V30 67 H 0.659701 2.480960 -1.852647 0
M  V30 68 H 1.771173 0.502331 -1.646654 0
M  V30 69 H 3.051904 1.679934 -1.411529 0
M  V30 70 H 2.544471 -0.511780 0.208569 0
M  V30 71 H 5.083893 0.864576 -2.345592 0
M  V30 72 H 4.086664 -0.579394 -1.719479 0
M  V30 73 H 6.015912 -1.658234 -2.308975 0
M  V30 74 H 7.044898 -0.188798 -2.038658 0
M  V30 75 H 8.164041 0.022998 -0.285453 0
M  V30 76 H 7.375429 -0.415350 1.265446 0
M  V30 77 H 6.677277 1.738769 -0.752266 0
M  V30 78 H 6.325178 1.584484 1.048572 0
M  V30 END ATOM
M  V30 BEGIN BOND
M  V30 1 1 1 2
M  V30 2 1 2 3
M  V30 3 2 3 4
M  V30 4 1 4 5
M  V30 5 2 5 6
M  V30 6 1 6 7
M  V30 7 1 7 8
M  V30 8 2 7 9
M  V30 9 1 9 10
M  V30 10 1 10 11
M  V30 11 1 11 12
M  V30 12 1 12 13
M  V30 13 1 13 14
M  V30 14 1 14 15
M  V30 15 2 15 16
M  V30 16 1 15 17
M  V30 17 2 17 18
M  V30 18 1 18 19
M  V30 19 2 19 20
M  V30 20 1 20 21
M  V30 21 1 21 22
M  V30 22 2 22 23
M  V30 23 1 23 24
M  V30 24 2 24 25
M  V30 25 1 25 26
M  V30 26 2 26 27
M  V30 27 1 27 28
M  V30 28 1 28 29
M  V30 29 2 28 30
M  V30 30 1 23 31
M  V30 31 2 31 32
M  V30 32 1 13 33
M  V30 33 1 33 34
M  V30 34 1 34 35
M  V30 35 1 35 36
M  V30 36 2 36 37
M  V30 37 1 36 38
M  V30 38 1 38 39
M  V30 39 1 39 40
M  V30 40 1 40 41
M  V30 41 1 41 42
M  V30 42 1 42 43
M  V30 43 1 9 3
M  V30 44 1 35 11
M  V30 45 1 43 38
M  V30 46 1 32 17
M  V30 47 1 31 20
M  V30 48 1 30 24
M  V30 49 1 1 44
M  V30 50 1 1 45
M  V30 51 1 1 46
M  V30 52 1 4 47
M  V30 53 1 5 48
M  V30 54 1 6 49
M  V30 55 1 10 50
M  V30 56 1 10 51
M  V30 57 1 12 52
M  V30 58 1 12 53
M  V30 59 1 13 54 CFG=1
M  V30 60 1 14 55
M  V30 61 1 18 56
M  V30 62 1 19 57
M  V30 63 1 21 58
M  V30 64 1 25 59
M  V30 65 1 26 60
M  V30 66 1 29 61
M  V30 67 1 29 62
M  V30 68 1 29 63
M  V30 69 1 30 64
M  V30 70 1 32 65
M  V30 71 1 33 66
M  V30 72 1 33 67
M  V30 73 1 34 68
M  V30 74 1 34 69
M  V30 75 1 35 70 CFG=3
M  V30 76 1 39 71
M  V30 77 1 39 72
M  V30 78 1 40 73
M  V30 79 1 40 74
M  V30 80 1 42 75
M  V30 81 1 42 76
M  V30 82 1 43 77
M  V30 83 1 43 78
M  V30 END BOND
M  V30 END CTAB
M  END
>  <Dataset>  (541) 
ChEMBL_Kinases

>  <Ligand_Instance>  (541) 
nan

>  <PDB_ID>  (541) 
nan

>  <Standardized_SMILES>  (541) 
COc1cccc(F)c1CN1C[C@H](NC(=O)c2ccc3[nH]nc(-c4ccnc(C)c4)c3c2)CC[C@H]1C(=O)N1CCOCC1

>  <Name>  (541) 
nan

>  <Pocket>  (541) 
nan

>  <ATP_Site>  (541) 
nan

>  <Peripheral>  (541) 
nan

>  <Num_H_Atoms_ProtBoundConf>  (541) 
nan

>  <Num_Resolved_Atoms>  (541) 
nan

>  <Num_Not_Resolved_Atoms>  (541) 
nan

$$$$
CHEMBL3654640
     RDKit          3D

  0  0  0  0  0  0  0  0  0  0999 V3000
M  V30 BEGIN CTAB
M  V30 COUNTS 87 92 0 0 0
M  V30 BEGIN ATOM
M  V30 1 C 3.369837 -5.867083 1.279091 0
M  V30 2 O 2.942982 -4.931262 0.318453 0
M  V30 3 C 3.718016 -4.562148 -0.772900 0
M  V30 4 C 4.964468 -5.134781 -0.933019 0
M  V30 5 C 5.753917 -4.771922 -2.027340 0
M  V30 6 C 5.305563 -3.847719 -2.952462 0
M  V30 7 C 4.052543 -3.289593 -2.767383 0
M  V30 8 F 3.674775 -2.383634 -3.722324 0
M  V30 9 C 3.254887 -3.641337 -1.682519 0
M  V30 10 C 1.932892 -3.002826 -1.565274 0
M  V30 11 N 1.856057 -1.977179 -0.552262 0
M  V30 12 C 0.592091 -1.376922 -0.513840 0
M  V30 13 C 0.614534 0.099847 -0.608423 0 CFG=2
M  V30 14 N -0.647542 0.753361 -0.769284 0
M  V30 15 C -1.106089 1.789286 0.122524 0
M  V30 16 O -0.328463 2.081322 1.045019 0
M  V30 17 C -2.383901 2.477459 -0.007286 0
M  V30 18 C -2.618445 3.456984 0.961538 0
M  V30 19 C -3.809654 4.164213 0.923498 0
M  V30 20 C -4.702264 3.846836 -0.089818 0
M  V30 21 N -5.912759 4.359601 -0.365289 0
M  V30 22 N -6.416551 3.743084 -1.443583 0
M  V30 23 C -5.550141 2.820192 -1.891513 0
M  V30 24 C -5.779368 1.962366 -3.047821 0
M  V30 25 C -7.032563 1.373639 -3.116538 0
M  V30 26 C -7.418121 0.529173 -4.158463 0
M  V30 27 N -6.494854 0.309736 -5.111242 0
M  V30 28 C -5.266161 0.858129 -5.086843 0
M  V30 29 C -4.323850 0.554615 -6.186484 0
M  V30 30 C -4.891520 1.684229 -4.067732 0
M  V30 31 C -4.467373 2.884939 -1.038491 0
M  V30 32 C -3.294510 2.190924 -0.998337 0
M  V30 33 C 1.623570 0.481040 -1.662114 0
M  V30 34 C 2.995361 0.129693 -1.139902 0
M  V30 35 C 3.028299 -1.177115 -0.410737 0 CFG=1
M  V30 36 C 3.309017 -1.063342 1.037144 0
M  V30 37 O 2.343043 -1.845915 1.334270 0
M  V30 38 N 4.197524 -0.429040 1.902710 0
M  V30 39 C 4.090631 -0.627408 3.332531 0
M  V30 40 C 2.757260 -0.172087 3.836270 0
M  V30 41 O 2.614687 -0.346351 5.209301 0
M  V30 42 C 1.363823 0.097536 5.604895 0
M  V30 43 C 0.230581 -0.590070 4.971545 0
M  V30 44 C -0.364270 -1.747396 5.483600 0
M  V30 45 C -1.431278 -2.351097 4.849526 0
M  V30 46 C -1.972393 -1.849534 3.675256 0
M  V30 47 C -1.411276 -0.719716 3.152252 0
M  V30 48 C -0.345637 -0.127666 3.797021 0
M  V30 49 H 3.940558 -6.718037 0.876147 0
M  V30 50 H 3.970541 -5.406398 2.088202 0
M  V30 51 H 2.465604 -6.280339 1.766538 0
M  V30 52 H 5.400042 -5.862530 -0.265848 0
M  V30 53 H 6.738406 -5.198323 -2.186708 0
M  V30 54 H 5.958581 -3.595974 -3.793477 0
M  V30 55 H 1.592837 -2.569517 -2.545408 0
M  V30 56 H 1.166490 -3.770900 -1.312570 0
M  V30 57 H -0.059877 -1.850622 -1.281474 0
M  V30 58 H 0.108429 -1.670095 0.469343 0
M  V30 59 H 1.041232 0.511285 0.354706 0
M  V30 60 H -1.277578 0.483728 -1.557067 0
M  V30 61 H -1.919676 3.704312 1.753347 0
M  V30 62 H -4.070085 4.941293 1.639978 0
M  V30 63 H -6.379416 5.117663 0.180393 0
M  V30 64 H -7.778460 1.548126 -2.354416 0
M  V30 65 H -8.395975 0.078109 -4.205133 0
M  V30 66 H -4.476281 1.188908 -7.080717 0
M  V30 67 H -3.292098 0.718783 -5.799621 0
M  V30 68 H -4.373800 -0.534463 -6.444934 0
M  V30 69 H -3.925559 2.158646 -3.985100 0
M  V30 70 H -3.087435 1.427651 -1.736022 0
M  V30 71 H 1.615185 1.558826 -1.914886 0
M  V30 72 H 1.402946 -0.141174 -2.552534 0
M  V30 73 H 3.694320 0.159728 -1.994652 0
M  V30 74 H 3.333869 0.905693 -0.428344 0
M  V30 75 H 3.870853 -1.768945 -0.833607 0
M  V30 76 H 4.831596 0.124779 1.270721 0
M  V30 77 H 4.338252 -1.666686 3.629606 0
M  V30 78 H 4.853459 0.024869 3.794493 0
M  V30 79 H 1.976719 -0.804916 3.367041 0
M  V30 80 H 2.577861 0.856888 3.503423 0
M  V30 81 H 1.288152 -0.067139 6.710010 0
M  V30 82 H 1.240720 1.196213 5.487066 0
M  V30 83 H 0.021912 -2.169134 6.387522 0
M  V30 84 H -1.899760 -3.254978 5.248612 0
M  V30 85 H -2.793044 -2.267891 3.139900 0
M  V30 86 H -1.722012 -0.212287 2.243584 0
M  V30 87 H 0.126306 0.777103 3.408708 0
M  V30 END ATOM
M  V30 BEGIN BOND
M  V30 1 1 1 2
M  V30 2 1 2 3
M  V30 3 2 3 4
M  V30 4 1 4 5
M  V30 5 2 5 6
M  V30 6 1 6 7
M  V30 7 1 7 8
M  V30 8 2 7 9
M  V30 9 1 9 10
M  V30 10 1 10 11
M  V30 11 1 11 12
M  V30 12 1 12 13
M  V30 13 1 13 14
M  V30 14 1 14 15
M  V30 15 2 15 16
M  V30 16 1 15 17
M  V30 17 2 17 18
M  V30 18 1 18 19
M  V30 19 2 19 20
M  V30 20 1 20 21
M  V30 21 1 21 22
M  V30 22 2 22 23
M  V30 23 1 23 24
M  V30 24 2 24 25
M  V30 25 1 25 26
M  V30 26 2 26 27
M  V30 27 1 27 28
M  V30 28 1 28 29
M  V30 29 2 28 30
M  V30 30 1 23 31
M  V30 31 2 31 32
M  V30 32 1 13 33
M  V30 33 1 33 34
M  V30 34 1 34 35
M  V30 35 1 35 36
M  V30 36 2 36 37
M  V30 37 1 36 38
M  V30 38 1 38 39
M  V30 39 1 39 40
M  V30 40 1 40 41
M  V30 41 1 41 42
M  V30 42 1 42 43
M  V30 43 2 43 44
M  V30 44 1 44 45
M  V30 45 2 45 46
M  V30 46 1 46 47
M  V30 47 2 47 48
M  V30 48 1 9 3
M  V30 49 1 35 11
M  V30 50 1 48 43
M  V30 51 1 32 17
M  V30 52 1 31 20
M  V30 53 1 30 24
M  V30 54 1 1 49
M  V30 55 1 1 50
M  V30 56 1 1 51
M  V30 57 1 4 52
M  V30 58 1 5 53
M  V30 59 1 6 54
M  V30 60 1 10 55
M  V30 61 1 10 56
M  V30 62 1 12 57
M  V30 63 1 12 58
M  V30 64 1 13 59 CFG=1
M  V30 65 1 14 60
M  V30 66 1 18 61
M  V30 67 1 19 62
M  V30 68 1 21 63
M  V30 69 1 25 64
M  V30 70 1 26 65
M  V30 71 1 29 66
M  V30 72 1 29 67
M  V30 73 1 29 68
M  V30 74 1 30 69
M  V30 75 1 32 70
M  V30 76 1 33 71
M  V30 77 1 33 72
M  V30 78 1 34 73
M  V30 79 1 34 74
M  V30 80 1 35 75 CFG=3
M  V30 81 1 38 76
M  V30 82 1 39 77
M  V30 83 1 39 78
M  V30 84 1 40 79
M  V30 85 1 40 80
M  V30 86 1 42 81
M  V30 87 1 42 82
M  V30 88 1 44 83
M  V30 89 1 45 84
M  V30 90 1 46 85
M  V30 91 1 47 86
M  V30 92 1 48 87
M  V30 END BOND
M  V30 END CTAB
M  END
>  <Dataset>  (542) 
ChEMBL_Kinases

>  <Ligand_Instance>  (542) 
nan

>  <PDB_ID>  (542) 
nan

>  <Standardized_SMILES>  (542) 
COc1cccc(F)c1CN1C[C@H](NC(=O)c2ccc3[nH]nc(-c4ccnc(C)c4)c3c2)CC[C@H]1C(=O)NCCOCc1ccccc1

>  <Name>  (542) 
nan

>  <Pocket>  (542) 
nan

>  <ATP_Site>  (542) 
nan

>  <Peripheral>  (542) 
nan

>  <Num_H_Atoms_ProtBoundConf>  (542) 
nan

>  <Num_Resolved_Atoms>  (542) 
nan

>  <Num_Not_Resolved_Atoms>  (542) 
nan

$$$$
CHEMBL3654632
     RDKit          3D

  0  0  0  0  0  0  0  0  0  0999 V3000
M  V30 BEGIN CTAB
M  V30 COUNTS 77 82 0 0 0
M  V30 BEGIN ATOM
M  V30 1 C -1.237346 1.442881 4.991382 0
M  V30 2 O -0.178391 1.078872 4.141917 0
M  V30 3 C 1.027722 1.721206 4.238594 0
M  V30 4 C 1.193003 2.708679 5.165484 0
M  V30 5 C 2.378375 3.370176 5.302994 0
M  V30 6 C 3.412713 3.006599 4.468997 0
M  V30 7 C 3.201535 2.004864 3.546787 0
M  V30 8 F 4.350902 1.795052 2.819037 0
M  V30 9 C 1.995267 1.301486 3.374652 0
M  V30 10 C 1.993848 0.303428 2.276053 0
M  V30 11 N 1.552279 0.881307 1.069589 0
M  V30 12 C 0.216700 1.311962 1.100908 0
M  V30 13 C -0.503583 1.653648 -0.140387 0 CFG=2
M  V30 14 N -1.733627 0.866266 -0.307513 0
M  V30 15 C -3.093792 1.248543 -0.350017 0
M  V30 16 O -3.345918 2.463451 -0.231640 0
M  V30 17 C -4.120295 0.235977 -0.525475 0
M  V30 18 C -5.419629 0.700370 -0.602498 0
M  V30 19 C -6.450605 -0.224142 -0.765497 0
M  V30 20 C -6.165267 -1.583146 -0.847491 0
M  V30 21 N -6.907467 -2.703712 -1.000315 0
M  V30 22 N -6.115097 -3.776384 -1.014951 0
M  V30 23 C -4.828988 -3.408021 -0.873465 0
M  V30 24 C -3.700283 -4.323982 -0.845447 0
M  V30 25 C -2.737690 -4.144503 0.132642 0
M  V30 26 C -1.623514 -4.948332 0.258709 0
M  V30 27 N -1.424475 -5.977237 -0.599090 0
M  V30 28 C -2.359888 -6.168257 -1.565839 0
M  V30 29 C -3.477483 -5.379946 -1.710290 0
M  V30 30 C -4.859669 -2.037078 -0.769024 0
M  V30 31 C -3.856922 -1.106938 -0.608284 0
M  V30 32 C 0.262970 1.667237 -1.400067 0
M  V30 33 C 1.704019 1.407435 -1.199024 0
M  V30 34 C 1.928014 0.276856 -0.162671 0 CFG=1
M  V30 35 C 3.335218 -0.112502 -0.309369 0
M  V30 36 O 4.407730 0.020608 0.381266 0
M  V30 37 N 3.574243 -0.832284 -1.555810 0
M  V30 38 C 2.699082 -1.230489 -2.630410 0
M  V30 39 C 2.768988 -2.715899 -2.869989 0
M  V30 40 C 4.176518 -3.227421 -3.081148 0
M  V30 41 C 5.069626 -2.760164 -1.944414 0
M  V30 42 C 4.940134 -1.273098 -1.890689 0
M  V30 43 H -2.171678 0.904254 4.791580 0
M  V30 44 H -0.961128 1.212648 6.056329 0
M  V30 45 H -1.448321 2.542139 4.882199 0
M  V30 46 H 0.350890 2.958761 5.798119 0
M  V30 47 H 2.424614 4.137593 6.060625 0
M  V30 48 H 4.323918 3.562996 4.622979 0
M  V30 49 H 1.345047 -0.577167 2.586865 0
M  V30 50 H 3.043596 -0.049810 2.164523 0
M  V30 51 H 0.184840 2.228510 1.763800 0
M  V30 52 H -0.444678 0.525156 1.613578 0
M  V30 53 H -0.921543 2.709068 -0.021866 0
M  V30 54 H -1.366849 -0.105513 -0.394782 0
M  V30 55 H -5.640884 1.768439 -0.537732 0
M  V30 56 H -7.486881 0.095451 -0.831161 0
M  V30 57 H -7.943855 -2.618050 -1.084202 0
M  V30 58 H -2.744666 -3.376850 0.892951 0
M  V30 59 H -0.853227 -4.850300 0.995886 0
M  V30 60 H -2.211002 -6.988607 -2.257547 0
M  V30 61 H -4.220595 -5.531272 -2.477406 0
M  V30 62 H -2.845601 -1.474274 -0.550321 0
M  V30 63 H -0.140913 0.881206 -2.109677 0
M  V30 64 H 0.117260 2.632825 -1.977515 0
M  V30 65 H 2.134934 2.333286 -0.705927 0
M  V30 66 H 2.317500 1.244814 -2.078467 0
M  V30 67 H 1.296138 -0.594293 -0.429458 0
M  V30 68 H 2.964578 -0.739531 -3.589625 0
M  V30 69 H 1.654019 -0.989894 -2.365525 0
M  V30 70 H 2.332498 -3.319811 -2.066803 0
M  V30 71 H 2.208925 -2.983758 -3.790929 0
M  V30 72 H 4.606244 -2.799662 -3.996335 0
M  V30 73 H 4.152528 -4.315264 -3.068263 0
M  V30 74 H 4.793889 -3.213894 -0.986046 0
M  V30 75 H 6.098289 -2.998552 -2.235279 0
M  V30 76 H 5.198972 -0.826871 -2.870261 0
M  V30 77 H 5.665929 -0.830133 -1.166830 0
M  V30 END ATOM
M  V30 BEGIN BOND
M  V30 1 1 1 2
M  V30 2 1 2 3
M  V30 3 2 3 4
M  V30 4 1 4 5
M  V30 5 2 5 6
M  V30 6 1 6 7
M  V30 7 1 7 8
M  V30 8 2 7 9
M  V30 9 1 9 10
M  V30 10 1 10 11
M  V30 11 1 11 12
M  V30 12 1 12 13
M  V30 13 1 13 14
M  V30 14 1 14 15
M  V30 15 2 15 16
M  V30 16 1 15 17
M  V30 17 2 17 18
M  V30 18 1 18 19
M  V30 19 2 19 20
M  V30 20 1 20 21
M  V30 21 1 21 22
M  V30 22 2 22 23
M  V30 23 1 23 24
M  V30 24 2 24 25
M  V30 25 1 25 26
M  V30 26 2 26 27
M  V30 27 1 27 28
M  V30 28 2 28 29
M  V30 29 1 23 30
M  V30 30 2 30 31
M  V30 31 1 13 32
M  V30 32 1 32 33
M  V30 33 1 33 34
M  V30 34 1 34 35
M  V30 35 2 35 36
M  V30 36 1 35 37
M  V30 37 1 37 38
M  V30 38 1 38 39
M  V30 39 1 39 40
M  V30 40 1 40 41
M  V30 41 1 41 42
M  V30 42 1 9 3
M  V30 43 1 34 11
M  V30 44 1 42 37
M  V30 45 1 31 17
M  V30 46 1 30 20
M  V30 47 1 29 24
M  V30 48 1 1 43
M  V30 49 1 1 44
M  V30 50 1 1 45
M  V30 51 1 4 46
M  V30 52 1 5 47
M  V30 53 1 6 48
M  V30 54 1 10 49
M  V30 55 1 10 50
M  V30 56 1 12 51
M  V30 57 1 12 52
M  V30 58 1 13 53 CFG=1
M  V30 59 1 14 54
M  V30 60 1 18 55
M  V30 61 1 19 56
M  V30 62 1 21 57
M  V30 63 1 25 58
M  V30 64 1 26 59
M  V30 65 1 28 60
M  V30 66 1 29 61
M  V30 67 1 31 62
M  V30 68 1 32 63
M  V30 69 1 32 64
M  V30 70 1 33 65
M  V30 71 1 33 66
M  V30 72 1 34 67 CFG=3
M  V30 73 1 38 68
M  V30 74 1 38 69
M  V30 75 1 39 70
M  V30 76 1 39 71
M  V30 77 1 40 72
M  V30 78 1 40 73
M  V30 79 1 41 74
M  V30 80 1 41 75
M  V30 81 1 42 76
M  V30 82 1 42 77
M  V30 END BOND
M  V30 END CTAB
M  END
>  <Dataset>  (543) 
ChEMBL_Kinases

>  <Ligand_Instance>  (543) 
nan

>  <PDB_ID>  (543) 
nan

>  <Standardized_SMILES>  (543) 
COc1cccc(F)c1CN1C[C@H](NC(=O)c2ccc3[nH]nc(-c4ccncc4)c3c2)CC[C@H]1C(=O)N1CCCCC1

>  <Name>  (543) 
nan

>  <Pocket>  (543) 
nan

>  <ATP_Site>  (543) 
nan

>  <Peripheral>  (543) 
nan

>  <Num_H_Atoms_ProtBoundConf>  (543) 
nan

>  <Num_Resolved_Atoms>  (543) 
nan

>  <Num_Not_Resolved_Atoms>  (543) 
nan

$$$$
CHEMBL3654695
     RDKit          3D

  0  0  0  0  0  0  0  0  0  0999 V3000
M  V30 BEGIN CTAB
M  V30 COUNTS 43 46 0 0 0
M  V30 BEGIN ATOM
M  V30 1 C 2.519569 -7.178813 2.655909 0
M  V30 2 C 1.673294 -6.484732 1.653436 0
M  V30 3 C 2.124622 -5.291404 1.129876 0
M  V30 4 C 1.391644 -4.602991 0.202418 0
M  V30 5 C 1.957039 -3.352913 -0.291074 0
M  V30 6 N 3.204919 -3.070056 -0.699515 0
M  V30 7 N 3.337036 -1.817815 -1.075836 0
M  V30 8 C 2.123083 -1.267549 -0.903369 0
M  V30 9 C 1.726720 0.028232 -1.150288 0
M  V30 10 C 0.428035 0.466260 -0.923432 0
M  V30 11 N 0.050907 1.813923 -1.188716 0
M  V30 12 C 0.182746 2.776533 -0.136084 0
M  V30 13 O 0.619862 2.402394 0.967300 0
M  V30 14 N -0.150365 4.153317 -0.246611 0
M  V30 15 C 0.072869 4.939967 0.976208 0
M  V30 16 C -1.001159 4.676705 1.980808 0
M  V30 17 N -1.024982 3.744381 2.949731 0
M  V30 18 C -2.081139 3.642319 3.772587 0
M  V30 19 C -3.150696 4.495359 3.628455 0
M  V30 20 C -3.133748 5.452945 2.638827 0
M  V30 21 N -2.051020 5.507209 1.846662 0
M  V30 22 N -0.439359 -0.468739 -0.437923 0
M  V30 23 C -0.043504 -1.732378 -0.199677 0
M  V30 24 C 1.235878 -2.196619 -0.414475 0
M  V30 25 C 0.158749 -5.042926 -0.275862 0
M  V30 26 C -0.209563 -6.242989 0.304149 0
M  V30 27 N 0.469367 -6.939335 1.203063 0
M  V30 28 H 3.339193 -7.766150 2.227676 0
M  V30 29 H 1.901002 -7.901921 3.243373 0
M  V30 30 H 2.875211 -6.426669 3.418775 0
M  V30 31 H 3.081769 -4.905257 1.471812 0
M  V30 32 H 4.253712 -1.456677 -1.417506 0
M  V30 33 H 2.395167 0.767040 -1.529776 0
M  V30 34 H -0.322020 2.166233 -2.107520 0
M  V30 35 H -0.517770 4.487727 -1.166576 0
M  V30 36 H 1.021394 4.566266 1.454371 0
M  V30 37 H 0.184001 6.012144 0.780002 0
M  V30 38 H -1.949025 2.846291 4.497815 0
M  V30 39 H -3.955880 4.356956 4.317616 0
M  V30 40 H -3.983864 6.130494 2.525956 0
M  V30 41 H -0.767402 -2.462970 0.192299 0
M  V30 42 H -0.417654 -4.507593 -1.001620 0
M  V30 43 H -1.153671 -6.695578 0.015528 0
M  V30 END ATOM
M  V30 BEGIN BOND
M  V30 1 1 1 2
M  V30 2 2 2 3
M  V30 3 1 3 4
M  V30 4 1 4 5
M  V30 5 2 5 6
M  V30 6 1 6 7
M  V30 7 1 7 8
M  V30 8 2 8 9
M  V30 9 1 9 10
M  V30 10 1 10 11
M  V30 11 1 11 12
M  V30 12 2 12 13
M  V30 13 1 12 14
M  V30 14 1 14 15
M  V30 15 1 15 16
M  V30 16 2 16 17
M  V30 17 1 17 18
M  V30 18 2 18 19
M  V30 19 1 19 20
M  V30 20 2 20 21
M  V30 21 2 10 22
M  V30 22 1 22 23
M  V30 23 2 23 24
M  V30 24 2 4 25
M  V30 25 1 25 26
M  V30 26 2 26 27
M  V30 27 1 27 2
M  V30 28 1 24 5
M  V30 29 1 24 8
M  V30 30 1 21 16
M  V30 31 1 1 28
M  V30 32 1 1 29
M  V30 33 1 1 30
M  V30 34 1 3 31
M  V30 35 1 7 32
M  V30 36 1 9 33
M  V30 37 1 11 34
M  V30 38 1 14 35
M  V30 39 1 15 36
M  V30 40 1 15 37
M  V30 41 1 18 38
M  V30 42 1 19 39
M  V30 43 1 20 40
M  V30 44 1 23 41
M  V30 45 1 25 42
M  V30 46 1 26 43
M  V30 END BOND
M  V30 END CTAB
M  END
>  <Dataset>  (544) 
ChEMBL_Kinases

>  <Ligand_Instance>  (544) 
nan

>  <PDB_ID>  (544) 
nan

>  <Standardized_SMILES>  (544) 
Cc1cc(-c2n[nH]c3cc(NC(=O)NCc4ncccn4)ncc23)ccn1

>  <Name>  (544) 
nan

>  <Pocket>  (544) 
nan

>  <ATP_Site>  (544) 
nan

>  <Peripheral>  (544) 
nan

>  <Num_H_Atoms_ProtBoundConf>  (544) 
nan

>  <Num_Resolved_Atoms>  (544) 
nan

>  <Num_Not_Resolved_Atoms>  (544) 
nan

$$$$
CHEMBL3654694
     RDKit          3D

  0  0  0  0  0  0  0  0  0  0999 V3000
M  V30 BEGIN CTAB
M  V30 COUNTS 44 47 0 0 0
M  V30 BEGIN ATOM
M  V30 1 C -0.609229 -7.361302 1.470445 0
M  V30 2 C -0.394258 -6.269189 0.503730 0
M  V30 3 C 0.555150 -5.275623 0.589601 0
M  V30 4 C 0.699449 -4.282878 -0.354558 0
M  V30 5 C 1.730465 -3.254143 -0.207960 0
M  V30 6 N 3.018921 -3.433386 0.131843 0
M  V30 7 N 3.673723 -2.275139 0.172082 0
M  V30 8 C 2.766670 -1.335341 -0.153396 0
M  V30 9 C 2.960803 0.028617 -0.248723 0
M  V30 10 C 1.877505 0.808874 -0.600062 0
M  V30 11 N 1.831729 2.244014 -0.762416 0
M  V30 12 C 1.502195 2.999000 0.420000 0
M  V30 13 O 1.268798 2.421300 1.533448 0
M  V30 14 N 1.397868 4.413061 0.503416 0
M  V30 15 C 1.048607 4.948135 1.824197 0
M  V30 16 C -0.404842 4.743949 2.100553 0
M  V30 17 C -1.414411 5.735136 1.735793 0
M  V30 18 S -2.947017 4.944663 2.309157 0
M  V30 19 C -1.997402 3.423465 2.941526 0
M  V30 20 C -2.682436 2.271326 3.589672 0
M  V30 21 N -0.831813 3.629945 2.699232 0
M  V30 22 N 0.669680 0.254009 -0.841883 0
M  V30 23 C 0.475205 -1.091048 -0.748664 0
M  V30 24 C 1.533015 -1.903133 -0.400335 0
M  V30 25 C -0.128249 -4.258910 -1.442016 0
M  V30 26 C -1.080566 -5.254893 -1.528951 0
M  V30 27 N -1.190484 -6.204277 -0.589908 0
M  V30 28 H -0.172956 -8.331737 1.153280 0
M  V30 29 H -1.720058 -7.556396 1.502540 0
M  V30 30 H -0.253738 -7.167021 2.482505 0
M  V30 31 H 1.198752 -5.330082 1.476299 0
M  V30 32 H 4.674816 -2.122314 0.405356 0
M  V30 33 H 3.867819 0.589906 -0.082555 0
M  V30 34 H 1.984228 2.899762 -1.558408 0
M  V30 35 H 1.583175 4.945165 -0.398270 0
M  V30 36 H 1.682105 4.526188 2.619099 0
M  V30 37 H 1.275392 6.042706 1.823150 0
M  V30 38 H -1.156325 6.634819 1.262660 0
M  V30 39 H -3.786424 2.411597 3.563982 0
M  V30 40 H -2.299340 2.063610 4.609375 0
M  V30 41 H -2.477058 1.382500 2.933568 0
M  V30 42 H -0.486754 -1.544248 -0.939307 0
M  V30 43 H -0.086153 -3.520679 -2.230427 0
M  V30 44 H -1.758671 -5.260826 -2.391085 0
M  V30 END ATOM
M  V30 BEGIN BOND
M  V30 1 1 1 2
M  V30 2 2 2 3
M  V30 3 1 3 4
M  V30 4 1 4 5
M  V30 5 2 5 6
M  V30 6 1 6 7
M  V30 7 1 7 8
M  V30 8 2 8 9
M  V30 9 1 9 10
M  V30 10 1 10 11
M  V30 11 1 11 12
M  V30 12 2 12 13
M  V30 13 1 12 14
M  V30 14 1 14 15
M  V30 15 1 15 16
M  V30 16 2 16 17
M  V30 17 1 17 18
M  V30 18 1 18 19
M  V30 19 1 19 20
M  V30 20 2 19 21
M  V30 21 2 10 22
M  V30 22 1 22 23
M  V30 23 2 23 24
M  V30 24 2 4 25
M  V30 25 1 25 26
M  V30 26 2 26 27
M  V30 27 1 27 2
M  V30 28 1 24 5
M  V30 29 1 24 8
M  V30 30 1 21 16
M  V30 31 1 1 28
M  V30 32 1 1 29
M  V30 33 1 1 30
M  V30 34 1 3 31
M  V30 35 1 7 32
M  V30 36 1 9 33
M  V30 37 1 11 34
M  V30 38 1 14 35
M  V30 39 1 15 36
M  V30 40 1 15 37
M  V30 41 1 17 38
M  V30 42 1 20 39
M  V30 43 1 20 40
M  V30 44 1 20 41
M  V30 45 1 23 42
M  V30 46 1 25 43
M  V30 47 1 26 44
M  V30 END BOND
M  V30 END CTAB
M  END
>  <Dataset>  (545) 
ChEMBL_Kinases

>  <Ligand_Instance>  (545) 
nan

>  <PDB_ID>  (545) 
nan

>  <Standardized_SMILES>  (545) 
Cc1cc(-c2n[nH]c3cc(NC(=O)NCc4csc(C)n4)ncc23)ccn1

>  <Name>  (545) 
nan

>  <Pocket>  (545) 
nan

>  <ATP_Site>  (545) 
nan

>  <Peripheral>  (545) 
nan

>  <Num_H_Atoms_ProtBoundConf>  (545) 
nan

>  <Num_Resolved_Atoms>  (545) 
nan

>  <Num_Not_Resolved_Atoms>  (545) 
nan

$$$$
CHEMBL3654693
     RDKit          3D

  0  0  0  0  0  0  0  0  0  0999 V3000
M  V30 BEGIN CTAB
M  V30 COUNTS 45 48 0 0 0
M  V30 BEGIN ATOM
M  V30 1 C -0.380499 -6.692852 0.489415 0
M  V30 2 C -1.359513 -5.819279 -0.199026 0
M  V30 3 C -1.029705 -4.584803 -0.734230 0
M  V30 4 C -1.961968 -3.796673 -1.367856 0
M  V30 5 C -1.664436 -2.501247 -1.941894 0
M  V30 6 N -2.049788 -2.028876 -3.148207 0
M  V30 7 N -1.589691 -0.805822 -3.328441 0
M  V30 8 C -0.871455 -0.413503 -2.234212 0
M  V30 9 C -0.207291 0.768723 -1.965441 0
M  V30 10 C 0.434788 0.858311 -0.750438 0
M  V30 11 N 1.124732 2.066786 -0.453425 0
M  V30 12 C 1.783178 2.148844 0.801225 0
M  V30 13 O 1.738845 1.177801 1.592097 0
M  V30 14 N 2.503055 3.284057 1.225083 0
M  V30 15 C 3.239013 3.606830 2.424949 0
M  V30 16 C 2.344829 3.570004 3.607583 0
M  V30 17 C 1.556414 4.678434 3.949232 0
M  V30 18 N 0.846554 4.412997 5.065877 0
M  V30 19 C 1.166172 3.156301 5.444810 0
M  V30 20 N 2.057706 2.688359 4.556189 0
M  V30 21 C 2.646922 1.385796 4.634299 0
M  V30 22 N 0.391603 -0.178001 0.102126 0
M  V30 23 C -0.260036 -1.341420 -0.158410 0
M  V30 24 C -0.922536 -1.490573 -1.360628 0
M  V30 25 C -3.283918 -4.236766 -1.484711 0
M  V30 26 C -3.538315 -5.487580 -0.922044 0
M  V30 27 N -2.630479 -6.243063 -0.311042 0
M  V30 28 H -0.395515 -7.695982 0.029180 0
M  V30 29 H -0.640968 -6.787818 1.581579 0
M  V30 30 H 0.630031 -6.243615 0.418379 0
M  V30 31 H -0.008054 -4.226499 -0.653048 0
M  V30 32 H -1.728870 -0.187147 -4.170441 0
M  V30 33 H -0.179205 1.592057 -2.655351 0
M  V30 34 H 1.161225 2.856057 -1.095323 0
M  V30 35 H 2.492059 4.055985 0.496731 0
M  V30 36 H 4.006898 2.795997 2.519837 0
M  V30 37 H 3.694483 4.597722 2.385733 0
M  V30 38 H 1.493966 5.627390 3.424848 0
M  V30 39 H 0.764025 2.655521 6.301619 0
M  V30 40 H 3.536216 1.272407 3.978381 0
M  V30 41 H 2.945828 1.215087 5.701006 0
M  V30 42 H 1.893721 0.627097 4.328122 0
M  V30 43 H -0.274872 -2.165516 0.558965 0
M  V30 44 H -4.098017 -3.682058 -1.971024 0
M  V30 45 H -4.548299 -5.862473 -0.991926 0
M  V30 END ATOM
M  V30 BEGIN BOND
M  V30 1 1 1 2
M  V30 2 2 2 3
M  V30 3 1 3 4
M  V30 4 1 4 5
M  V30 5 2 5 6
M  V30 6 1 6 7
M  V30 7 1 7 8
M  V30 8 2 8 9
M  V30 9 1 9 10
M  V30 10 1 10 11
M  V30 11 1 11 12
M  V30 12 2 12 13
M  V30 13 1 12 14
M  V30 14 1 14 15
M  V30 15 1 15 16
M  V30 16 2 16 17
M  V30 17 1 17 18
M  V30 18 2 18 19
M  V30 19 1 19 20
M  V30 20 1 20 21
M  V30 21 2 10 22
M  V30 22 1 22 23
M  V30 23 2 23 24
M  V30 24 2 4 25
M  V30 25 1 25 26
M  V30 26 2 26 27
M  V30 27 1 27 2
M  V30 28 1 24 5
M  V30 29 1 24 8
M  V30 30 1 20 16
M  V30 31 1 1 28
M  V30 32 1 1 29
M  V30 33 1 1 30
M  V30 34 1 3 31
M  V30 35 1 7 32
M  V30 36 1 9 33
M  V30 37 1 11 34
M  V30 38 1 14 35
M  V30 39 1 15 36
M  V30 40 1 15 37
M  V30 41 1 17 38
M  V30 42 1 19 39
M  V30 43 1 21 40
M  V30 44 1 21 41
M  V30 45 1 21 42
M  V30 46 1 23 43
M  V30 47 1 25 44
M  V30 48 1 26 45
M  V30 END BOND
M  V30 END CTAB
M  END
>  <Dataset>  (546) 
ChEMBL_Kinases

>  <Ligand_Instance>  (546) 
nan

>  <PDB_ID>  (546) 
nan

>  <Standardized_SMILES>  (546) 
Cc1cc(-c2n[nH]c3cc(NC(=O)NCc4cncn4C)ncc23)ccn1

>  <Name>  (546) 
nan

>  <Pocket>  (546) 
nan

>  <ATP_Site>  (546) 
nan

>  <Peripheral>  (546) 
nan

>  <Num_H_Atoms_ProtBoundConf>  (546) 
nan

>  <Num_Resolved_Atoms>  (546) 
nan

>  <Num_Not_Resolved_Atoms>  (546) 
nan

$$$$
CHEMBL3654692
     RDKit          3D

  0  0  0  0  0  0  0  0  0  0999 V3000
M  V30 BEGIN CTAB
M  V30 COUNTS 45 48 0 0 0
M  V30 BEGIN ATOM
M  V30 1 C -2.133099 -6.336514 1.420702 0
M  V30 2 C -1.778326 -6.011526 0.005072 0
M  V30 3 C -1.517070 -4.717019 -0.344547 0
M  V30 4 C -1.177348 -4.300929 -1.631222 0
M  V30 5 C -0.903581 -2.909787 -1.974790 0
M  V30 6 N -1.362131 -2.223702 -3.057959 0
M  V30 7 N -0.894780 -0.970635 -3.027592 0
M  V30 8 C -0.122502 -0.788817 -1.938737 0
M  V30 9 C 0.572070 0.315478 -1.476753 0
M  V30 10 C 1.295011 0.173276 -0.285644 0
M  V30 11 N 2.050003 1.244636 0.287473 0
M  V30 12 C 1.260357 2.011831 1.185080 0
M  V30 13 O 0.032855 1.802164 1.468346 0
M  V30 14 N 1.766968 3.132979 1.888664 0
M  V30 15 C 1.011187 3.953954 2.816510 0
M  V30 16 C 1.537332 3.852413 4.209745 0
M  V30 17 C 1.558402 2.503036 4.898886 0
M  V30 18 C 2.830775 3.170065 4.441427 0
M  V30 19 C 0.832952 5.367876 2.349776 0
M  V30 20 F 0.161810 5.442474 1.146326 0
M  V30 21 F 2.080628 5.982783 2.203818 0
M  V30 22 F 0.059080 6.034047 3.264172 0
M  V30 23 N 1.279037 -1.019479 0.345665 0
M  V30 24 C 0.604959 -2.094513 -0.100857 0
M  V30 25 C -0.120753 -1.999419 -1.270325 0
M  V30 26 C -1.113339 -5.310406 -2.587943 0
M  V30 27 C -1.381823 -6.633497 -2.223903 0
M  V30 28 N -1.704546 -6.946273 -0.947452 0
M  V30 29 H -1.789545 -7.344541 1.728548 0
M  V30 30 H -1.719917 -5.567596 2.106010 0
M  V30 31 H -3.233393 -6.304172 1.556163 0
M  V30 32 H -1.578748 -3.967740 0.430607 0
M  V30 33 H -1.121585 -0.249493 -3.773300 0
M  V30 34 H 0.580621 1.265192 -1.985844 0
M  V30 35 H 3.059376 1.541179 0.152985 0
M  V30 36 H 2.780458 3.418626 1.744017 0
M  V30 37 H -0.032808 3.521843 2.855637 0
M  V30 38 H 1.286948 4.716229 4.858147 0
M  V30 39 H 1.348366 2.482727 6.002952 0
M  V30 40 H 1.203969 1.631965 4.305303 0
M  V30 41 H 3.513795 3.647427 5.173236 0
M  V30 42 H 3.370715 2.648052 3.625489 0
M  V30 43 H 0.629407 -3.025365 0.448656 0
M  V30 44 H -0.856963 -5.075276 -3.610749 0
M  V30 45 H -1.335992 -7.436560 -2.961649 0
M  V30 END ATOM
M  V30 BEGIN BOND
M  V30 1 1 1 2
M  V30 2 2 2 3
M  V30 3 1 3 4
M  V30 4 1 4 5
M  V30 5 2 5 6
M  V30 6 1 6 7
M  V30 7 1 7 8
M  V30 8 2 8 9
M  V30 9 1 9 10
M  V30 10 1 10 11
M  V30 11 1 11 12
M  V30 12 2 12 13
M  V30 13 1 12 14
M  V30 14 1 14 15
M  V30 15 1 15 16
M  V30 16 1 16 17
M  V30 17 1 17 18
M  V30 18 1 15 19
M  V30 19 1 19 20
M  V30 20 1 19 21
M  V30 21 1 19 22
M  V30 22 2 10 23
M  V30 23 1 23 24
M  V30 24 2 24 25
M  V30 25 2 4 26
M  V30 26 1 26 27
M  V30 27 2 27 28
M  V30 28 1 28 2
M  V30 29 1 25 5
M  V30 30 1 25 8
M  V30 31 1 18 16
M  V30 32 1 1 29
M  V30 33 1 1 30
M  V30 34 1 1 31
M  V30 35 1 3 32
M  V30 36 1 7 33
M  V30 37 1 9 34
M  V30 38 1 11 35
M  V30 39 1 14 36
M  V30 40 1 15 37
M  V30 41 1 16 38
M  V30 42 1 17 39
M  V30 43 1 17 40
M  V30 44 1 18 41
M  V30 45 1 18 42
M  V30 46 1 24 43
M  V30 47 1 26 44
M  V30 48 1 27 45
M  V30 END BOND
M  V30 END CTAB
M  END
>  <Dataset>  (547) 
ChEMBL_Kinases

>  <Ligand_Instance>  (547) 
nan

>  <PDB_ID>  (547) 
nan

>  <Standardized_SMILES>  (547) 
Cc1cc(-c2n[nH]c3cc(NC(=O)NC(C4CC4)C(F)(F)F)ncc23)ccn1

>  <Name>  (547) 
nan

>  <Pocket>  (547) 
nan

>  <ATP_Site>  (547) 
nan

>  <Peripheral>  (547) 
nan

>  <Num_H_Atoms_ProtBoundConf>  (547) 
nan

>  <Num_Resolved_Atoms>  (547) 
nan

>  <Num_Not_Resolved_Atoms>  (547) 
nan

$$$$
CHEMBL3654691
     RDKit          3D

  0  0  0  0  0  0  0  0  0  0999 V3000
M  V30 BEGIN CTAB
M  V30 COUNTS 42 44 0 0 0
M  V30 BEGIN ATOM
M  V30 1 C -3.563555 -6.625538 -1.336934 0
M  V30 2 O -3.161791 -5.664396 -0.444992 0
M  V30 3 C -2.390428 -4.648863 -0.963349 0
M  V30 4 C -1.094765 -5.098598 -1.585489 0
M  V30 5 N -0.383771 -3.933836 -2.089651 0
M  V30 6 C 0.050484 -2.842823 -1.306686 0
M  V30 7 O -0.156235 -2.806097 -0.070199 0
M  V30 8 N 0.739236 -1.723522 -1.833311 0
M  V30 9 C 1.162799 -0.639467 -1.012347 0
M  V30 10 C 1.828900 0.423591 -1.577239 0
M  V30 11 C 2.193309 1.418771 -0.690343 0
M  V30 12 N 2.848343 2.594930 -0.867754 0
M  V30 13 N 2.973337 3.230010 0.285762 0
M  V30 14 C 2.406952 2.506403 1.287449 0
M  V30 15 C 2.347551 2.882321 2.698773 0
M  V30 16 C 3.453572 3.392765 3.362994 0
M  V30 17 C 3.368718 3.742436 4.706971 0
M  V30 18 N 2.205613 3.595389 5.406670 0
M  V30 19 C 1.119486 3.094845 4.756972 0
M  V30 20 C -0.137298 2.943305 5.539452 0
M  V30 21 C 1.168831 2.736065 3.417783 0
M  V30 22 C 1.923368 1.376634 0.662434 0
M  V30 23 C 1.256062 0.287682 1.159040 0
M  V30 24 N 0.895375 -0.688816 0.305824 0
M  V30 25 H -4.191934 -7.424900 -0.854513 0
M  V30 26 H -4.125940 -6.180493 -2.182986 0
M  V30 27 H -2.641778 -7.153547 -1.712653 0
M  V30 28 H -2.177327 -3.949696 -0.129688 0
M  V30 29 H -2.951941 -4.039849 -1.728401 0
M  V30 30 H -0.464587 -5.483025 -0.735989 0
M  V30 31 H -1.229524 -5.848682 -2.369363 0
M  V30 32 H -0.168777 -3.888705 -3.124536 0
M  V30 33 H 0.927640 -1.723398 -2.862971 0
M  V30 34 H 2.049235 0.473065 -2.637788 0
M  V30 35 H 3.213544 2.969935 -1.778418 0
M  V30 36 H 4.401213 3.523948 2.833751 0
M  V30 37 H 4.229202 4.141920 5.232198 0
M  V30 38 H -0.890052 2.394104 4.905155 0
M  V30 39 H 0.111451 2.358624 6.446863 0
M  V30 40 H -0.560470 3.942257 5.738505 0
M  V30 41 H 0.265152 2.345731 2.970917 0
M  V30 42 H 1.015693 0.196975 2.209802 0
M  V30 END ATOM
M  V30 BEGIN BOND
M  V30 1 1 1 2
M  V30 2 1 2 3
M  V30 3 1 3 4
M  V30 4 1 4 5
M  V30 5 1 5 6
M  V30 6 2 6 7
M  V30 7 1 6 8
M  V30 8 1 8 9
M  V30 9 2 9 10
M  V30 10 1 10 11
M  V30 11 1 11 12
M  V30 12 1 12 13
M  V30 13 2 13 14
M  V30 14 1 14 15
M  V30 15 2 15 16
M  V30 16 1 16 17
M  V30 17 2 17 18
M  V30 18 1 18 19
M  V30 19 1 19 20
M  V30 20 2 19 21
M  V30 21 1 14 22
M  V30 22 1 22 23
M  V30 23 2 23 24
M  V30 24 1 24 9
M  V30 25 2 22 11
M  V30 26 1 21 15
M  V30 27 1 1 25
M  V30 28 1 1 26
M  V30 29 1 1 27
M  V30 30 1 3 28
M  V30 31 1 3 29
M  V30 32 1 4 30
M  V30 33 1 4 31
M  V30 34 1 5 32
M  V30 35 1 8 33
M  V30 36 1 10 34
M  V30 37 1 12 35
M  V30 38 1 16 36
M  V30 39 1 17 37
M  V30 40 1 20 38
M  V30 41 1 20 39
M  V30 42 1 20 40
M  V30 43 1 21 41
M  V30 44 1 23 42
M  V30 END BOND
M  V30 END CTAB
M  END
>  <Dataset>  (548) 
ChEMBL_Kinases

>  <Ligand_Instance>  (548) 
nan

>  <PDB_ID>  (548) 
nan

>  <Standardized_SMILES>  (548) 
COCCNC(=O)Nc1cc2[nH]nc(-c3ccnc(C)c3)c2cn1

>  <Name>  (548) 
nan

>  <Pocket>  (548) 
nan

>  <ATP_Site>  (548) 
nan

>  <Peripheral>  (548) 
nan

>  <Num_H_Atoms_ProtBoundConf>  (548) 
nan

>  <Num_Resolved_Atoms>  (548) 
nan

>  <Num_Not_Resolved_Atoms>  (548) 
nan

$$$$
CHEMBL3654690
     RDKit          3D

  0  0  0  0  0  0  0  0  0  0999 V3000
M  V30 BEGIN CTAB
M  V30 COUNTS 41 44 0 0 0
M  V30 BEGIN ATOM
M  V30 1 C 4.240371 -5.010234 2.339632 0
M  V30 2 C 3.792241 -4.988389 0.922636 0
M  V30 3 C 3.148540 -3.836968 0.500695 0
M  V30 4 C 2.701030 -3.749392 -0.819492 0
M  V30 5 C 2.014445 -2.565690 -1.333365 0
M  V30 6 N 2.237661 -1.939787 -2.508459 0
M  V30 7 N 1.444688 -0.900166 -2.667050 0
M  V30 8 C 0.667209 -0.823386 -1.570966 0
M  V30 9 C -0.327871 0.065234 -1.217614 0
M  V30 10 C -0.969143 -0.091943 -0.020766 0
M  V30 11 N -2.012666 0.710797 0.521281 0
M  V30 12 C -1.520496 1.803496 1.319682 0
M  V30 13 O -0.305463 2.041754 1.528845 0
M  V30 14 N -2.403864 2.705226 1.937712 0
M  V30 15 C -2.036681 3.829307 2.754648 0
M  V30 16 C -2.760476 3.939770 4.075638 0
M  V30 17 N -2.849057 5.370153 3.830886 0
M  V30 18 C -2.883913 5.036216 2.407131 0
M  V30 19 N -0.620656 -1.107622 0.790937 0
M  V30 20 C 0.337604 -1.997743 0.496318 0
M  V30 21 C 0.999284 -1.853435 -0.714883 0
M  V30 22 C 2.885171 -4.784222 -1.714902 0
M  V30 23 C 3.541106 -5.919527 -1.230214 0
M  V30 24 N 3.963690 -5.983609 0.043260 0
M  V30 25 H 5.032325 -4.253035 2.494958 0
M  V30 26 H 3.420516 -4.785089 3.053697 0
M  V30 27 H 4.641810 -6.002752 2.595568 0
M  V30 28 H 2.991187 -3.015979 1.174560 0
M  V30 29 H 1.380679 -0.225956 -3.463684 0
M  V30 30 H -0.648523 0.884270 -1.811123 0
M  V30 31 H -3.062392 0.638904 0.436535 0
M  V30 32 H -3.447409 2.568546 1.806765 0
M  V30 33 H -0.970768 3.989296 2.903229 0
M  V30 34 H -2.128494 3.677912 4.964748 0
M  V30 35 H -3.785878 3.520927 4.106726 0
M  V30 36 H -3.715507 5.811428 4.204755 0
M  V30 37 H -3.904039 4.698098 2.120351 0
M  V30 38 H -2.417239 5.788761 1.746754 0
M  V30 39 H 0.600863 -2.803022 1.159932 0
M  V30 40 H 2.557320 -4.756728 -2.734896 0
M  V30 41 H 3.725628 -6.781471 -1.875386 0
M  V30 END ATOM
M  V30 BEGIN BOND
M  V30 1 1 1 2
M  V30 2 2 2 3
M  V30 3 1 3 4
M  V30 4 1 4 5
M  V30 5 2 5 6
M  V30 6 1 6 7
M  V30 7 1 7 8
M  V30 8 2 8 9
M  V30 9 1 9 10
M  V30 10 1 10 11
M  V30 11 1 11 12
M  V30 12 2 12 13
M  V30 13 1 12 14
M  V30 14 1 14 15
M  V30 15 1 15 16
M  V30 16 1 16 17
M  V30 17 1 17 18
M  V30 18 2 10 19
M  V30 19 1 19 20
M  V30 20 2 20 21
M  V30 21 2 4 22
M  V30 22 1 22 23
M  V30 23 2 23 24
M  V30 24 1 24 2
M  V30 25 1 21 5
M  V30 26 1 21 8
M  V30 27 1 18 15
M  V30 28 1 1 25
M  V30 29 1 1 26
M  V30 30 1 1 27
M  V30 31 1 3 28
M  V30 32 1 7 29
M  V30 33 1 9 30
M  V30 34 1 11 31
M  V30 35 1 14 32
M  V30 36 1 15 33
M  V30 37 1 16 34
M  V30 38 1 16 35
M  V30 39 1 17 36
M  V30 40 1 18 37
M  V30 41 1 18 38
M  V30 42 1 20 39
M  V30 43 1 22 40
M  V30 44 1 23 41
M  V30 END BOND
M  V30 END CTAB
M  END
>  <Dataset>  (549) 
ChEMBL_Kinases

>  <Ligand_Instance>  (549) 
nan

>  <PDB_ID>  (549) 
nan

>  <Standardized_SMILES>  (549) 
Cc1cc(-c2n[nH]c3cc(NC(=O)NC4CNC4)ncc23)ccn1

>  <Name>  (549) 
nan

>  <Pocket>  (549) 
nan

>  <ATP_Site>  (549) 
nan

>  <Peripheral>  (549) 
nan

>  <Num_H_Atoms_ProtBoundConf>  (549) 
nan

>  <Num_Resolved_Atoms>  (549) 
nan

>  <Num_Not_Resolved_Atoms>  (549) 
nan

$$$$
CHEMBL3654689
     RDKit          3D

  0  0  0  0  0  0  0  0  0  0999 V3000
M  V30 BEGIN CTAB
M  V30 COUNTS 40 43 0 0 0
M  V30 BEGIN ATOM
M  V30 1 C -2.668536 -6.991154 2.574730 0
M  V30 2 C -1.694763 -6.113371 1.853526 0
M  V30 3 C -1.669055 -4.783095 2.242393 0
M  V30 4 C -0.819782 -3.863598 1.661529 0
M  V30 5 C -0.758397 -2.455776 2.038316 0
M  V30 6 N -0.740604 -2.045734 3.325994 0
M  V30 7 N -0.682914 -0.723444 3.386183 0
M  V30 8 C -0.662145 -0.249599 2.132020 0
M  V30 9 C -0.607591 0.999821 1.510549 0
M  V30 10 C -0.601966 1.126728 0.123454 0
M  V30 11 N -0.542404 2.490799 -0.274904 0
M  V30 12 C 0.666072 3.177538 -0.490681 0
M  V30 13 O 1.694126 2.489544 -0.303596 0
M  V30 14 N 0.778776 4.526337 -0.885105 0
M  V30 15 C 1.993612 5.231776 -1.106491 0
M  V30 16 C 3.192651 4.691718 -0.964851 0
M  V30 17 C 4.694054 4.960961 -1.062915 0
M  V30 18 C 4.163300 3.626409 -0.667296 0
M  V30 19 N -0.648551 0.057904 -0.668194 0
M  V30 20 C -0.702639 -1.181023 -0.121743 0
M  V30 21 C -0.708996 -1.324833 1.249962 0
M  V30 22 C 0.019010 -4.327543 0.659650 0
M  V30 23 C -0.055431 -5.668360 0.317287 0
M  V30 24 N -0.879421 -6.543428 0.886179 0
M  V30 25 H -2.663566 -6.803113 3.660971 0
M  V30 26 H -3.659124 -6.783240 2.117836 0
M  V30 27 H -2.364241 -8.038741 2.379985 0
M  V30 28 H -2.328557 -4.424203 3.028299 0
M  V30 29 H -0.655786 -0.100504 4.231262 0
M  V30 30 H -0.571265 1.833342 2.227402 0
M  V30 31 H -1.442907 3.033466 -0.421333 0
M  V30 32 H -0.157922 4.969791 -1.002047 0
M  V30 33 H 1.877388 6.271504 -1.407861 0
M  V30 34 H 5.132825 5.631965 -0.302066 0
M  V30 35 H 5.082505 5.147907 -2.086225 0
M  V30 36 H 4.232588 2.780163 -1.390661 0
M  V30 37 H 4.366673 3.311069 0.367005 0
M  V30 38 H -0.739986 -2.037200 -0.763862 0
M  V30 39 H 0.728463 -3.713509 0.126381 0
M  V30 40 H 0.607987 -6.035720 -0.475258 0
M  V30 END ATOM
M  V30 BEGIN BOND
M  V30 1 1 1 2
M  V30 2 2 2 3
M  V30 3 1 3 4
M  V30 4 1 4 5
M  V30 5 2 5 6
M  V30 6 1 6 7
M  V30 7 1 7 8
M  V30 8 2 8 9
M  V30 9 1 9 10
M  V30 10 1 10 11
M  V30 11 1 11 12
M  V30 12 2 12 13
M  V30 13 1 12 14
M  V30 14 1 14 15
M  V30 15 2 15 16 CFG=2
M  V30 16 1 16 17
M  V30 17 1 17 18
M  V30 18 2 10 19
M  V30 19 1 19 20
M  V30 20 2 20 21
M  V30 21 2 4 22
M  V30 22 1 22 23
M  V30 23 2 23 24
M  V30 24 1 24 2
M  V30 25 1 21 5
M  V30 26 1 21 8
M  V30 27 1 18 16
M  V30 28 1 1 25
M  V30 29 1 1 26
M  V30 30 1 1 27
M  V30 31 1 3 28
M  V30 32 1 7 29
M  V30 33 1 9 30
M  V30 34 1 11 31
M  V30 35 1 14 32
M  V30 36 1 15 33
M  V30 37 1 17 34
M  V30 38 1 17 35
M  V30 39 1 18 36
M  V30 40 1 18 37
M  V30 41 1 20 38
M  V30 42 1 22 39
M  V30 43 1 23 40
M  V30 END BOND
M  V30 END CTAB
M  END
>  <Dataset>  (550) 
ChEMBL_Kinases

>  <Ligand_Instance>  (550) 
nan

>  <PDB_ID>  (550) 
nan

>  <Standardized_SMILES>  (550) 
Cc1cc(-c2n[nH]c3cc(NC(=O)NC=C4CC4)ncc23)ccn1

>  <Name>  (550) 
nan

>  <Pocket>  (550) 
nan

>  <ATP_Site>  (550) 
nan

>  <Peripheral>  (550) 
nan

>  <Num_H_Atoms_ProtBoundConf>  (550) 
nan

>  <Num_Resolved_Atoms>  (550) 
nan

>  <Num_Not_Resolved_Atoms>  (550) 
nan

$$$$
CHEMBL3654688
     RDKit          3D

  0  0  0  0  0  0  0  0  0  0999 V3000
M  V30 BEGIN CTAB
M  V30 COUNTS 43 46 0 0 0
M  V30 BEGIN ATOM
M  V30 1 C 0.921713 -6.237425 2.382013 0
M  V30 2 C 1.899450 -5.835216 1.313032 0
M  V30 3 C 2.120087 -4.493883 1.056205 0
M  V30 4 C 2.997044 -4.027164 0.096081 0
M  V30 5 C 3.213317 -2.608460 -0.156951 0
M  V30 6 N 4.396243 -1.979550 -0.328562 0
M  V30 7 N 4.203330 -0.671463 -0.540404 0
M  V30 8 C 2.880032 -0.453316 -0.505127 0
M  V30 9 C 2.169765 0.718840 -0.665564 0
M  V30 10 C 0.810612 0.701857 -0.588349 0
M  V30 11 N -0.126738 1.763999 -0.717650 0
M  V30 12 C -0.519454 2.491559 0.436963 0
M  V30 13 O -0.008082 2.151603 1.531947 0
M  V30 14 N -1.433670 3.552730 0.418991 0
M  V30 15 C -1.951257 4.389460 1.476096 0
M  V30 16 C -2.685440 3.546870 2.468143 0
M  V30 17 O -1.985048 2.546366 3.128947 0
M  V30 18 C -3.920588 4.081343 3.137158 0
M  V30 19 C -4.079542 3.131784 1.975106 0
M  V30 20 N 0.161505 -0.476840 -0.352461 0
M  V30 21 C 0.852968 -1.639197 -0.192660 0
M  V30 22 C 2.231227 -1.646404 -0.266807 0
M  V30 23 C 3.677525 -4.981696 -0.632513 0
M  V30 24 C 3.439053 -6.312766 -0.356405 0
M  V30 25 N 2.580389 -6.727637 0.583166 0
M  V30 26 H -0.107137 -5.867402 2.146507 0
M  V30 27 H 0.864653 -7.341138 2.380618 0
M  V30 28 H 1.280700 -5.843672 3.362057 0
M  V30 29 H 1.557920 -3.794414 1.659232 0
M  V30 30 H 4.940277 0.062713 -0.705520 0
M  V30 31 H 2.576141 1.684176 -0.851906 0
M  V30 32 H -0.537698 2.023262 -1.657289 0
M  V30 33 H -1.789908 3.750130 -0.562515 0
M  V30 34 H -2.553547 5.205969 1.067049 0
M  V30 35 H -1.030832 4.865891 1.936959 0
M  V30 36 H -2.544507 1.761927 3.323658 0
M  V30 37 H -4.119531 3.692144 4.145333 0
M  V30 38 H -4.189816 5.159426 2.981733 0
M  V30 39 H -4.477918 3.591609 1.050560 0
M  V30 40 H -4.404569 2.091504 2.224822 0
M  V30 41 H 0.331487 -2.575242 -0.005006 0
M  V30 42 H 4.396912 -4.712252 -1.418709 0
M  V30 43 H 3.937897 -7.119406 -0.889185 0
M  V30 END ATOM
M  V30 BEGIN BOND
M  V30 1 1 1 2
M  V30 2 2 2 3
M  V30 3 1 3 4
M  V30 4 1 4 5
M  V30 5 2 5 6
M  V30 6 1 6 7
M  V30 7 1 7 8
M  V30 8 2 8 9
M  V30 9 1 9 10
M  V30 10 1 10 11
M  V30 11 1 11 12
M  V30 12 2 12 13
M  V30 13 1 12 14
M  V30 14 1 14 15
M  V30 15 1 15 16
M  V30 16 1 16 17
M  V30 17 1 16 18
M  V30 18 1 18 19
M  V30 19 2 10 20
M  V30 20 1 20 21
M  V30 21 2 21 22
M  V30 22 2 4 23
M  V30 23 1 23 24
M  V30 24 2 24 25
M  V30 25 1 25 2
M  V30 26 1 22 5
M  V30 27 1 22 8
M  V30 28 1 19 16
M  V30 29 1 1 26
M  V30 30 1 1 27
M  V30 31 1 1 28
M  V30 32 1 3 29
M  V30 33 1 7 30
M  V30 34 1 9 31
M  V30 35 1 11 32
M  V30 36 1 14 33
M  V30 37 1 15 34
M  V30 38 1 15 35
M  V30 39 1 17 36
M  V30 40 1 18 37
M  V30 41 1 18 38
M  V30 42 1 19 39
M  V30 43 1 19 40
M  V30 44 1 21 41
M  V30 45 1 23 42
M  V30 46 1 24 43
M  V30 END BOND
M  V30 END CTAB
M  END
>  <Dataset>  (551) 
ChEMBL_Kinases

>  <Ligand_Instance>  (551) 
nan

>  <PDB_ID>  (551) 
nan

>  <Standardized_SMILES>  (551) 
Cc1cc(-c2n[nH]c3cc(NC(=O)NCC4(O)CC4)ncc23)ccn1

>  <Name>  (551) 
nan

>  <Pocket>  (551) 
nan

>  <ATP_Site>  (551) 
nan

>  <Peripheral>  (551) 
nan

>  <Num_H_Atoms_ProtBoundConf>  (551) 
nan

>  <Num_Resolved_Atoms>  (551) 
nan

>  <Num_Not_Resolved_Atoms>  (551) 
nan

$$$$
CHEMBL3654687
     RDKit          3D

  0  0  0  0  0  0  0  0  0  0999 V3000
M  V30 BEGIN CTAB
M  V30 COUNTS 44 46 0 0 0
M  V30 BEGIN ATOM
M  V30 1 C -2.434754 -7.828519 0.227754 0
M  V30 2 C -2.242330 -6.452440 0.725368 0
M  V30 3 C -1.128770 -5.719682 0.355206 0
M  V30 4 C -1.062960 -4.464100 0.878207 0
M  V30 5 C 0.075331 -3.611747 0.546288 0
M  V30 6 N 1.345981 -4.092227 0.570133 0
M  V30 7 N 2.189920 -3.126448 0.232095 0
M  V30 8 C 1.516814 -1.990425 -0.023311 0
M  V30 9 C 1.836097 -0.702619 -0.405246 0
M  V30 10 C 0.827415 0.203755 -0.568754 0
M  V30 11 N 1.137886 1.552993 -0.966846 0
M  V30 12 C 1.364711 2.417247 0.151457 0
M  V30 13 O 1.308953 2.078257 1.344136 0
M  V30 14 N 1.688576 3.803925 -0.022759 0
M  V30 15 C 1.913071 4.653849 1.147608 0
M  V30 16 C 2.231371 6.042211 0.679719 0
M  V30 17 C 0.596133 4.736006 1.927575 0
M  V30 18 C 2.960433 4.123319 2.069477 0
M  V30 19 N -0.485321 -0.123248 -0.366618 0
M  V30 20 C -0.846421 -1.372097 0.008156 0
M  V30 21 C 0.179498 -2.280368 0.170715 0
M  V30 22 C -2.078662 -4.004041 1.723028 0
M  V30 23 C -3.169486 -4.778944 2.059963 0
M  V30 24 N -3.226190 -6.025332 1.535375 0
M  V30 25 H -2.945890 -8.481332 0.972127 0
M  V30 26 H -3.109708 -7.810080 -0.652431 0
M  V30 27 H -1.461026 -8.268545 -0.060357 0
M  V30 28 H -0.368824 -6.111110 -0.298118 0
M  V30 29 H 3.224159 -3.198306 0.163588 0
M  V30 30 H 2.865961 -0.488532 -0.552138 0
M  V30 31 H 1.231340 2.028907 -1.896082 0
M  V30 32 H 1.763641 4.206364 -1.003047 0
M  V30 33 H 2.909864 5.952354 -0.205478 0
M  V30 34 H 1.300167 6.576382 0.433727 0
M  V30 35 H 2.793295 6.545747 1.513304 0
M  V30 36 H -0.219591 4.223308 1.374103 0
M  V30 37 H 0.685257 4.196919 2.895154 0
M  V30 38 H 0.331309 5.776568 2.156747 0
M  V30 39 H 3.365833 5.013515 2.630466 0
M  V30 40 H 3.802492 3.661131 1.551171 0
M  V30 41 H 2.539847 3.448069 2.839871 0
M  V30 42 H -1.885850 -1.628407 0.167490 0
M  V30 43 H -2.011305 -3.003709 2.130332 0
M  V30 44 H -3.910383 -4.349387 2.718432 0
M  V30 END ATOM
M  V30 BEGIN BOND
M  V30 1 1 1 2
M  V30 2 2 2 3
M  V30 3 1 3 4
M  V30 4 1 4 5
M  V30 5 2 5 6
M  V30 6 1 6 7
M  V30 7 1 7 8
M  V30 8 2 8 9
M  V30 9 1 9 10
M  V30 10 1 10 11
M  V30 11 1 11 12
M  V30 12 2 12 13
M  V30 13 1 12 14
M  V30 14 1 14 15
M  V30 15 1 15 16
M  V30 16 1 15 17
M  V30 17 1 15 18
M  V30 18 2 10 19
M  V30 19 1 19 20
M  V30 20 2 20 21
M  V30 21 2 4 22
M  V30 22 1 22 23
M  V30 23 2 23 24
M  V30 24 1 24 2
M  V30 25 1 21 5
M  V30 26 1 21 8
M  V30 27 1 1 25
M  V30 28 1 1 26
M  V30 29 1 1 27
M  V30 30 1 3 28
M  V30 31 1 7 29
M  V30 32 1 9 30
M  V30 33 1 11 31
M  V30 34 1 14 32
M  V30 35 1 16 33
M  V30 36 1 16 34
M  V30 37 1 16 35
M  V30 38 1 17 36
M  V30 39 1 17 37
M  V30 40 1 17 38
M  V30 41 1 18 39
M  V30 42 1 18 40
M  V30 43 1 18 41
M  V30 44 1 20 42
M  V30 45 1 22 43
M  V30 46 1 23 44
M  V30 END BOND
M  V30 END CTAB
M  END
>  <Dataset>  (552) 
ChEMBL_Kinases

>  <Ligand_Instance>  (552) 
nan

>  <PDB_ID>  (552) 
nan

>  <Standardized_SMILES>  (552) 
Cc1cc(-c2n[nH]c3cc(NC(=O)NC(C)(C)C)ncc23)ccn1

>  <Name>  (552) 
nan

>  <Pocket>  (552) 
nan

>  <ATP_Site>  (552) 
nan

>  <Peripheral>  (552) 
nan

>  <Num_H_Atoms_ProtBoundConf>  (552) 
nan

>  <Num_Resolved_Atoms>  (552) 
nan

>  <Num_Not_Resolved_Atoms>  (552) 
nan

$$$$
CHEMBL3654686
     RDKit          3D

  0  0  0  0  0  0  0  0  0  0999 V3000
M  V30 BEGIN CTAB
M  V30 COUNTS 42 45 0 0 0
M  V30 BEGIN ATOM
M  V30 1 C -0.612840 -6.675389 0.958252 0
M  V30 2 C 0.634577 -6.224983 0.263979 0
M  V30 3 C 1.032073 -4.905340 0.343583 0
M  V30 4 C 2.165014 -4.412306 -0.265498 0
M  V30 5 C 2.592942 -3.020293 -0.187129 0
M  V30 6 N 3.826284 -2.523856 0.044467 0
M  V30 7 N 3.788525 -1.192417 0.035184 0
M  V30 8 C 2.516174 -0.822233 -0.205173 0
M  V30 9 C 1.992663 0.450213 -0.305891 0
M  V30 10 C 0.646603 0.611495 -0.559795 0
M  V30 11 N -0.099346 1.816074 -0.702315 0
M  V30 12 C -0.663323 2.348706 0.484298 0
M  V30 13 O -0.496509 1.771552 1.569350 0
M  V30 14 N -1.431647 3.525500 0.557022 0
M  V30 15 C -2.114996 4.331812 1.526207 0
M  V30 16 C -1.286382 4.954419 2.600308 0
M  V30 17 C -0.478995 4.278409 3.598783 0
M  V30 18 C -1.784454 4.896331 4.032297 0
M  V30 19 N -0.108436 -0.502160 -0.700258 0
M  V30 20 C 0.408450 -1.740240 -0.600846 0
M  V30 21 C 1.738078 -1.948414 -0.349960 0
M  V30 22 C 2.903956 -5.344499 -0.983459 0
M  V30 23 C 2.527291 -6.660387 -1.075622 0
M  V30 24 N 1.414930 -7.065480 -0.457401 0
M  V30 25 H -0.479518 -6.779383 2.038795 0
M  V30 26 H -1.369277 -5.857091 0.823739 0
M  V30 27 H -1.022002 -7.572358 0.448656 0
M  V30 28 H 0.419598 -4.243995 0.910198 0
M  V30 29 H 4.621697 -0.577605 0.191182 0
M  V30 30 H 2.526270 1.385435 -0.206861 0
M  V30 31 H -0.252264 2.317207 -1.601419 0
M  V30 32 H -1.529921 3.944458 -0.427877 0
M  V30 33 H -2.741139 5.117488 1.051443 0
M  V30 34 H -2.853320 3.611190 2.020136 0
M  V30 35 H -0.914571 6.007707 2.319281 0
M  V30 36 H -0.343859 3.208445 3.761520 0
M  V30 37 H 0.414431 4.846723 4.008520 0
M  V30 38 H -2.581248 4.165129 4.269324 0
M  V30 39 H -1.779976 5.796999 4.644369 0
M  V30 40 H -0.229936 -2.605349 -0.719734 0
M  V30 41 H 3.806524 -5.079435 -1.501355 0
M  V30 42 H 3.062770 -7.424626 -1.618586 0
M  V30 END ATOM
M  V30 BEGIN BOND
M  V30 1 1 1 2
M  V30 2 2 2 3
M  V30 3 1 3 4
M  V30 4 1 4 5
M  V30 5 2 5 6
M  V30 6 1 6 7
M  V30 7 1 7 8
M  V30 8 2 8 9
M  V30 9 1 9 10
M  V30 10 1 10 11
M  V30 11 1 11 12
M  V30 12 2 12 13
M  V30 13 1 12 14
M  V30 14 1 14 15
M  V30 15 1 15 16
M  V30 16 1 16 17
M  V30 17 1 17 18
M  V30 18 2 10 19
M  V30 19 1 19 20
M  V30 20 2 20 21
M  V30 21 2 4 22
M  V30 22 1 22 23
M  V30 23 2 23 24
M  V30 24 1 24 2
M  V30 25 1 21 5
M  V30 26 1 21 8
M  V30 27 1 18 16
M  V30 28 1 1 25
M  V30 29 1 1 26
M  V30 30 1 1 27
M  V30 31 1 3 28
M  V30 32 1 7 29
M  V30 33 1 9 30
M  V30 34 1 11 31
M  V30 35 1 14 32
M  V30 36 1 15 33
M  V30 37 1 15 34
M  V30 38 1 16 35
M  V30 39 1 17 36
M  V30 40 1 17 37
M  V30 41 1 18 38
M  V30 42 1 18 39
M  V30 43 1 20 40
M  V30 44 1 22 41
M  V30 45 1 23 42
M  V30 END BOND
M  V30 END CTAB
M  END
>  <Dataset>  (553) 
ChEMBL_Kinases

>  <Ligand_Instance>  (553) 
nan

>  <PDB_ID>  (553) 
nan

>  <Standardized_SMILES>  (553) 
Cc1cc(-c2n[nH]c3cc(NC(=O)NCC4CC4)ncc23)ccn1

>  <Name>  (553) 
nan

>  <Pocket>  (553) 
nan

>  <ATP_Site>  (553) 
nan

>  <Peripheral>  (553) 
nan

>  <Num_H_Atoms_ProtBoundConf>  (553) 
nan

>  <Num_Resolved_Atoms>  (553) 
nan

>  <Num_Not_Resolved_Atoms>  (553) 
nan

$$$$
CHEMBL3654685
     RDKit          3D

  0  0  0  0  0  0  0  0  0  0999 V3000
M  V30 BEGIN CTAB
M  V30 COUNTS 30 32 0 0 0
M  V30 BEGIN ATOM
M  V30 1 N -0.042757 -5.479076 4.588023 0
M  V30 2 C -0.055981 -4.268885 3.821845 0
M  V30 3 O -0.555964 -3.268339 4.368644 0
M  V30 4 N 0.494352 -4.330140 2.534096 0
M  V30 5 C 0.492922 -3.140890 1.753170 0
M  V30 6 C 1.030203 -3.153594 0.465022 0
M  V30 7 C 1.048534 -2.021743 -0.325801 0
M  V30 8 N 1.462163 -1.680464 -1.549049 0
M  V30 9 N 1.223250 -0.404929 -1.813886 0
M  V30 10 C 0.619858 0.171397 -0.737978 0
M  V30 11 C 0.211480 1.571914 -0.676373 0
M  V30 12 C -1.036242 1.882684 -0.172670 0
M  V30 13 C -1.421934 3.217129 -0.115431 0
M  V30 14 C -0.611748 4.260845 -0.541531 0
M  V30 15 F -0.961649 5.550313 -0.495865 0
M  V30 16 C 0.636254 3.927789 -1.043579 0
M  V30 17 C 1.019419 2.606200 -1.100771 0
M  V30 18 C 0.518730 -0.852841 0.181663 0
M  V30 19 C -0.012933 -0.836354 1.453763 0
M  V30 20 N -0.005883 -1.983529 2.193446 0
M  V30 21 H -0.167559 -6.466337 4.831138 0
M  V30 22 H 0.292634 -5.548033 5.574294 0
M  V30 23 H 0.890832 -5.195374 2.147877 0
M  V30 24 H 1.451004 -4.026445 0.025323 0
M  V30 25 H 1.924713 -2.363504 -2.214695 0
M  V30 26 H -1.748687 1.152667 0.187083 0
M  V30 27 H -2.386647 3.569629 0.265102 0
M  V30 28 H 1.317045 4.713632 -1.394391 0
M  V30 29 H 2.006056 2.327210 -1.496428 0
M  V30 30 H -0.428591 0.051925 1.870863 0
M  V30 END ATOM
M  V30 BEGIN BOND
M  V30 1 1 1 2
M  V30 2 2 2 3
M  V30 3 1 2 4
M  V30 4 1 4 5
M  V30 5 2 5 6
M  V30 6 1 6 7
M  V30 7 1 7 8
M  V30 8 1 8 9
M  V30 9 2 9 10
M  V30 10 1 10 11
M  V30 11 2 11 12
M  V30 12 1 12 13
M  V30 13 2 13 14
M  V30 14 1 14 15
M  V30 15 1 14 16
M  V30 16 2 16 17
M  V30 17 1 10 18
M  V30 18 1 18 19
M  V30 19 2 19 20
M  V30 20 1 20 5
M  V30 21 2 18 7
M  V30 22 1 17 11
M  V30 23 1 1 21
M  V30 24 1 1 22
M  V30 25 1 4 23
M  V30 26 1 6 24
M  V30 27 1 8 25
M  V30 28 1 12 26
M  V30 29 1 13 27
M  V30 30 1 16 28
M  V30 31 1 17 29
M  V30 32 1 19 30
M  V30 END BOND
M  V30 END CTAB
M  END
>  <Dataset>  (554) 
ChEMBL_Kinases

>  <Ligand_Instance>  (554) 
nan

>  <PDB_ID>  (554) 
nan

>  <Standardized_SMILES>  (554) 
NC(=O)Nc1cc2[nH]nc(-c3ccc(F)cc3)c2cn1

>  <Name>  (554) 
nan

>  <Pocket>  (554) 
nan

>  <ATP_Site>  (554) 
nan

>  <Peripheral>  (554) 
nan

>  <Num_H_Atoms_ProtBoundConf>  (554) 
nan

>  <Num_Resolved_Atoms>  (554) 
nan

>  <Num_Not_Resolved_Atoms>  (554) 
nan

$$$$
CHEMBL3654684
     RDKit          3D

  0  0  0  0  0  0  0  0  0  0999 V3000
M  V30 BEGIN CTAB
M  V30 COUNTS 51 54 0 0 0
M  V30 BEGIN ATOM
M  V30 1 C 2.406242 -2.255991 7.729979 0
M  V30 2 O 1.494678 -2.643204 6.715388 0
M  V30 3 C 1.970734 -2.861969 5.430060 0
M  V30 4 C 3.291078 -2.726965 5.064539 0
M  V30 5 C 3.758858 -2.946763 3.779567 0
M  V30 6 C 2.855282 -3.324176 2.799452 0
M  V30 7 C 3.302288 -3.578224 1.386119 0
M  V30 8 N 3.259079 -2.370738 0.581975 0
M  V30 9 C 2.134583 -1.739511 0.033193 0
M  V30 10 O 0.977870 -2.200196 0.202134 0
M  V30 11 N 2.253993 -0.557371 -0.733611 0
M  V30 12 C 1.107198 0.082540 -1.290412 0
M  V30 13 C 0.534694 1.033932 -0.438458 0
M  V30 14 C -0.576380 1.766459 -0.780424 0
M  V30 15 N -1.321276 2.722428 -0.177370 0
M  V30 16 N -2.299875 3.082887 -0.989362 0
M  V30 17 C -2.237721 2.389197 -2.139205 0
M  V30 18 C -3.133474 2.511710 -3.255953 0
M  V30 19 C -2.756949 2.581806 -4.578106 0
M  V30 20 C -3.632792 2.699264 -5.629326 0
M  V30 21 C -4.984331 2.747290 -5.291529 0
M  V30 22 F -5.896331 2.863170 -6.287966 0
M  V30 23 C -5.393343 2.679307 -3.974474 0
M  V30 24 C -4.485348 2.561017 -2.936646 0
M  V30 25 C -1.156282 1.551354 -2.029023 0
M  V30 26 C -0.563234 0.607198 -2.837400 0
M  V30 27 N 0.528150 -0.114970 -2.506212 0
M  V30 28 C 1.534279 -3.457505 3.172945 0
M  V30 29 C 1.076987 -3.237247 4.452009 0
M  V30 30 O -0.250575 -3.381805 4.781765 0
M  V30 31 C -1.241445 -3.764560 3.841722 0
M  V30 32 H 3.041673 -1.438199 7.326115 0
M  V30 33 H 1.856689 -1.792326 8.596756 0
M  V30 34 H 3.064805 -3.064524 8.065234 0
M  V30 35 H 4.015497 -2.432782 5.812918 0
M  V30 36 H 4.803093 -2.831716 3.528226 0
M  V30 37 H 4.284819 -4.042929 1.337671 0
M  V30 38 H 2.546626 -4.261711 0.904559 0
M  V30 39 H 4.192161 -1.906571 0.384109 0
M  V30 40 H 3.166579 -0.093880 -0.933148 0
M  V30 41 H 0.911326 1.279826 0.563201 0
M  V30 42 H -1.131647 3.097685 0.778055 0
M  V30 43 H -1.695001 2.540875 -4.799744 0
M  V30 44 H -3.291366 2.750704 -6.653568 0
M  V30 45 H -6.464831 2.720857 -3.755928 0
M  V30 46 H -4.882393 2.513204 -1.929799 0
M  V30 47 H -0.996019 0.425761 -3.807080 0
M  V30 48 H 0.778408 -3.750154 2.458137 0
M  V30 49 H -1.071634 -4.809432 3.460763 0
M  V30 50 H -1.185615 -3.026894 3.011313 0
M  V30 51 H -2.252104 -3.722864 4.281498 0
M  V30 END ATOM
M  V30 BEGIN BOND
M  V30 1 1 1 2
M  V30 2 1 2 3
M  V30 3 2 3 4
M  V30 4 1 4 5
M  V30 5 2 5 6
M  V30 6 1 6 7
M  V30 7 1 7 8
M  V30 8 1 8 9
M  V30 9 2 9 10
M  V30 10 1 9 11
M  V30 11 1 11 12
M  V30 12 2 12 13
M  V30 13 1 13 14
M  V30 14 1 14 15
M  V30 15 1 15 16
M  V30 16 2 16 17
M  V30 17 1 17 18
M  V30 18 2 18 19
M  V30 19 1 19 20
M  V30 20 2 20 21
M  V30 21 1 21 22
M  V30 22 1 21 23
M  V30 23 2 23 24
M  V30 24 1 17 25
M  V30 25 1 25 26
M  V30 26 2 26 27
M  V30 27 1 6 28
M  V30 28 2 28 29
M  V30 29 1 29 30
M  V30 30 1 30 31
M  V30 31 1 29 3
M  V30 32 1 27 12
M  V30 33 2 25 14
M  V30 34 1 24 18
M  V30 35 1 1 32
M  V30 36 1 1 33
M  V30 37 1 1 34
M  V30 38 1 4 35
M  V30 39 1 5 36
M  V30 40 1 7 37
M  V30 41 1 7 38
M  V30 42 1 8 39
M  V30 43 1 11 40
M  V30 44 1 13 41
M  V30 45 1 15 42
M  V30 46 1 19 43
M  V30 47 1 20 44
M  V30 48 1 23 45
M  V30 49 1 24 46
M  V30 50 1 26 47
M  V30 51 1 28 48
M  V30 52 1 31 49
M  V30 53 1 31 50
M  V30 54 1 31 51
M  V30 END BOND
M  V30 END CTAB
M  END
>  <Dataset>  (555) 
ChEMBL_Kinases

>  <Ligand_Instance>  (555) 
nan

>  <PDB_ID>  (555) 
nan

>  <Standardized_SMILES>  (555) 
COc1ccc(CNC(=O)Nc2cc3[nH]nc(-c4ccc(F)cc4)c3cn2)cc1OC

>  <Name>  (555) 
nan

>  <Pocket>  (555) 
nan

>  <ATP_Site>  (555) 
nan

>  <Peripheral>  (555) 
nan

>  <Num_H_Atoms_ProtBoundConf>  (555) 
nan

>  <Num_Resolved_Atoms>  (555) 
nan

>  <Num_Not_Resolved_Atoms>  (555) 
nan

$$$$
CHEMBL3654683
     RDKit          3D

  0  0  0  0  0  0  0  0  0  0999 V3000
M  V30 BEGIN CTAB
M  V30 COUNTS 51 55 0 0 0
M  V30 BEGIN ATOM
M  V30 1 C 2.939196 -6.791168 5.828081 0
M  V30 2 C 2.151845 -5.738587 5.134272 0
M  V30 3 C 2.777408 -4.573898 4.793880 0
M  V30 4 C 2.086269 -3.568571 4.143356 0
M  V30 5 C 2.565567 -2.256467 3.702366 0
M  V30 6 N 3.294278 -1.322933 4.363167 0
M  V30 7 N 3.528489 -0.269477 3.600166 0
M  V30 8 C 2.940594 -0.522910 2.417903 0
M  V30 9 C 2.919547 0.290297 1.302090 0
M  V30 10 C 2.257106 -0.161908 0.179056 0
M  V30 11 N 2.064936 0.437027 -1.098221 0
M  V30 12 C 0.927646 1.253031 -1.307027 0
M  V30 13 O 0.169756 1.390339 -0.327373 0
M  V30 14 N 0.562742 1.919362 -2.485981 0
M  V30 15 C -0.449872 2.779940 -3.037834 0
M  V30 16 C -1.811003 2.250083 -3.056400 0
M  V30 17 C -2.120024 1.594703 -4.258420 0
M  V30 18 C -3.338017 0.964979 -4.495255 0
M  V30 19 C -4.306603 0.968056 -3.522522 0
M  V30 20 C -4.035977 1.603854 -2.330638 0
M  V30 21 C -4.919532 1.702054 -1.278795 0
M  V30 22 C -4.655044 2.357291 -0.092683 0
M  V30 23 C -3.415734 2.965992 0.067984 0
M  V30 24 C -2.529892 2.874582 -0.969089 0
M  V30 25 C -2.819417 2.213795 -2.139507 0
M  V30 26 N 1.662159 -1.375983 0.224214 0
M  V30 27 C 1.675316 -2.177641 1.304515 0
M  V30 28 C 2.323397 -1.758462 2.433671 0
M  V30 29 C 0.735313 -3.807323 3.859323 0
M  V30 30 C 0.139124 -5.018740 4.229034 0
M  V30 31 N 0.838254 -5.974660 4.859670 0
M  V30 32 H 3.095189 -6.463291 6.874287 0
M  V30 33 H 2.387039 -7.748808 5.774682 0
M  V30 34 H 3.949023 -6.887352 5.371927 0
M  V30 35 H 3.806179 -4.323842 4.981145 0
M  V30 36 H 4.070736 0.594001 3.873220 0
M  V30 37 H 3.353763 1.266400 1.153311 0
M  V30 38 H 2.719502 0.302384 -1.896886 0
M  V30 39 H 1.324724 1.682853 -3.208615 0
M  V30 40 H -0.102353 3.108613 -4.043169 0
M  V30 41 H -0.395898 3.715141 -2.374782 0
M  V30 42 H -1.442258 1.518630 -5.112294 0
M  V30 43 H -3.575576 0.467480 -5.403708 0
M  V30 44 H -5.290703 0.525987 -3.557700 0
M  V30 45 H -5.894359 1.236386 -1.376278 0
M  V30 46 H -5.404796 2.397213 0.704394 0
M  V30 47 H -3.223884 3.475806 1.003176 0
M  V30 48 H -1.585324 3.371015 -0.798925 0
M  V30 49 H 1.184525 -3.156171 1.300741 0
M  V30 50 H 0.006345 -3.169622 3.367325 0
M  V30 51 H -0.891998 -5.286187 4.049807 0
M  V30 END ATOM
M  V30 BEGIN BOND
M  V30 1 1 1 2
M  V30 2 2 2 3
M  V30 3 1 3 4
M  V30 4 1 4 5
M  V30 5 2 5 6
M  V30 6 1 6 7
M  V30 7 1 7 8
M  V30 8 2 8 9
M  V30 9 1 9 10
M  V30 10 1 10 11
M  V30 11 1 11 12
M  V30 12 2 12 13
M  V30 13 1 12 14
M  V30 14 1 14 15
M  V30 15 1 15 16
M  V30 16 2 16 17
M  V30 17 1 17 18
M  V30 18 2 18 19
M  V30 19 1 19 20
M  V30 20 2 20 21
M  V30 21 1 21 22
M  V30 22 2 22 23
M  V30 23 1 23 24
M  V30 24 2 24 25
M  V30 25 2 10 26
M  V30 26 1 26 27
M  V30 27 2 27 28
M  V30 28 2 4 29
M  V30 29 1 29 30
M  V30 30 2 30 31
M  V30 31 1 31 2
M  V30 32 1 28 5
M  V30 33 1 28 8
M  V30 34 1 25 16
M  V30 35 1 25 20
M  V30 36 1 1 32
M  V30 37 1 1 33
M  V30 38 1 1 34
M  V30 39 1 3 35
M  V30 40 1 7 36
M  V30 41 1 9 37
M  V30 42 1 11 38
M  V30 43 1 14 39
M  V30 44 1 15 40
M  V30 45 1 15 41
M  V30 46 1 17 42
M  V30 47 1 18 43
M  V30 48 1 19 44
M  V30 49 1 21 45
M  V30 50 1 22 46
M  V30 51 1 23 47
M  V30 52 1 24 48
M  V30 53 1 27 49
M  V30 54 1 29 50
M  V30 55 1 30 51
M  V30 END BOND
M  V30 END CTAB
M  END
>  <Dataset>  (556) 
ChEMBL_Kinases

>  <Ligand_Instance>  (556) 
nan

>  <PDB_ID>  (556) 
nan

>  <Standardized_SMILES>  (556) 
Cc1cc(-c2n[nH]c3cc(NC(=O)NCc4cccc5ccccc45)ncc23)ccn1

>  <Name>  (556) 
nan

>  <Pocket>  (556) 
nan

>  <ATP_Site>  (556) 
nan

>  <Peripheral>  (556) 
nan

>  <Num_H_Atoms_ProtBoundConf>  (556) 
nan

>  <Num_Resolved_Atoms>  (556) 
nan

>  <Num_Not_Resolved_Atoms>  (556) 
nan

$$$$
CHEMBL3654682
     RDKit          3D

  0  0  0  0  0  0  0  0  0  0999 V3000
M  V30 BEGIN CTAB
M  V30 COUNTS 51 54 0 0 0
M  V30 BEGIN ATOM
M  V30 1 C -1.759168 -1.270636 -6.322210 0
M  V30 2 C -1.206520 -2.372537 -5.490643 0
M  V30 3 C -1.063003 -2.242688 -4.113180 0
M  V30 4 C -0.536273 -3.308941 -3.376713 0
M  V30 5 C -0.365575 -3.221103 -1.931365 0
M  V30 6 N -0.715075 -4.200776 -1.074428 0
M  V30 7 N -0.432422 -3.821118 0.181752 0
M  V30 8 C 0.104451 -2.589346 0.155851 0
M  V30 9 C 0.593209 -1.673708 1.094314 0
M  V30 10 C 1.099712 -0.437953 0.714339 0
M  V30 11 N 1.527504 0.295271 1.852980 0
M  V30 12 C 0.624942 1.160979 2.551901 0
M  V30 13 O -0.544436 1.273445 2.155768 0
M  V30 14 N 1.133864 1.840287 3.664401 0
M  V30 15 C 0.261004 2.726979 4.410286 0 CFG=2
M  V30 16 C 0.876810 4.110389 4.337776 0
M  V30 17 C 0.189903 2.342375 5.844164 0
M  V30 18 C -1.061232 2.308580 6.452289 0
M  V30 19 C -1.125967 1.950754 7.781671 0
M  V30 20 C 0.011058 1.632612 8.501215 0
M  V30 21 C 1.252933 1.677266 7.857493 0
M  V30 22 C 1.358224 2.035782 6.508644 0
M  V30 23 N 1.118986 -0.116401 -0.593529 0
M  V30 24 C 0.659986 -0.963019 -1.542589 0
M  V30 25 C 0.156984 -2.186172 -1.184585 0
M  V30 26 C -0.161728 -4.486734 -4.030102 0
M  V30 27 C -0.334434 -4.543037 -5.408889 0
M  V30 28 C 0.062288 -5.790025 -6.115412 0
M  V30 29 N -0.843046 -3.518476 -6.132356 0
M  V30 30 H -2.375642 -0.588203 -5.684936 0
M  V30 31 H -2.452243 -1.696564 -7.071769 0
M  V30 32 H -0.983040 -0.734172 -6.884036 0
M  V30 33 H -1.357261 -1.332746 -3.641332 0
M  V30 34 H -0.594281 -4.372587 1.047923 0
M  V30 35 H 0.511267 -2.069965 2.098563 0
M  V30 36 H 2.529862 0.143243 2.120229 0
M  V30 37 H 2.139802 1.716547 3.965728 0
M  V30 38 H -0.732758 2.736663 3.935378 0
M  V30 39 H 0.269302 4.744258 5.041774 0
M  V30 40 H 0.792059 4.542291 3.317465 0
M  V30 41 H 1.949250 4.107492 4.602436 0
M  V30 42 H -1.927865 2.561044 5.868437 0
M  V30 43 H -2.139568 1.947050 8.189046 0
M  V30 44 H -0.099161 1.358003 9.541876 0
M  V30 45 H 2.140839 1.420401 8.449049 0
M  V30 46 H 2.329136 2.064583 6.024596 0
M  V30 47 H 0.704993 -0.644301 -2.573458 0
M  V30 48 H 0.248685 -5.341826 -3.537142 0
M  V30 49 H 0.385223 -5.586141 -7.140757 0
M  V30 50 H 0.863029 -6.280386 -5.516203 0
M  V30 51 H -0.836907 -6.433444 -6.177047 0
M  V30 END ATOM
M  V30 BEGIN BOND
M  V30 1 1 1 2
M  V30 2 2 2 3
M  V30 3 1 3 4
M  V30 4 1 4 5
M  V30 5 2 5 6
M  V30 6 1 6 7
M  V30 7 1 7 8
M  V30 8 2 8 9
M  V30 9 1 9 10
M  V30 10 1 10 11
M  V30 11 1 11 12
M  V30 12 2 12 13
M  V30 13 1 12 14
M  V30 14 1 14 15
M  V30 15 1 15 16
M  V30 16 1 15 17
M  V30 17 2 17 18
M  V30 18 1 18 19
M  V30 19 2 19 20
M  V30 20 1 20 21
M  V30 21 2 21 22
M  V30 22 2 10 23
M  V30 23 1 23 24
M  V30 24 2 24 25
M  V30 25 2 4 26
M  V30 26 1 26 27
M  V30 27 1 27 28
M  V30 28 2 27 29
M  V30 29 1 29 2
M  V30 30 1 25 5
M  V30 31 1 25 8
M  V30 32 1 22 17
M  V30 33 1 1 30
M  V30 34 1 1 31
M  V30 35 1 1 32
M  V30 36 1 3 33
M  V30 37 1 7 34
M  V30 38 1 9 35
M  V30 39 1 11 36
M  V30 40 1 14 37
M  V30 41 1 15 38 CFG=3
M  V30 42 1 16 39
M  V30 43 1 16 40
M  V30 44 1 16 41
M  V30 45 1 18 42
M  V30 46 1 19 43
M  V30 47 1 20 44
M  V30 48 1 21 45
M  V30 49 1 22 46
M  V30 50 1 24 47
M  V30 51 1 26 48
M  V30 52 1 28 49
M  V30 53 1 28 50
M  V30 54 1 28 51
M  V30 END BOND
M  V30 END CTAB
M  END
>  <Dataset>  (557) 
ChEMBL_Kinases

>  <Ligand_Instance>  (557) 
nan

>  <PDB_ID>  (557) 
nan

>  <Standardized_SMILES>  (557) 
Cc1cc(-c2n[nH]c3cc(NC(=O)N[C@H](C)c4ccccc4)ncc23)cc(C)n1

>  <Name>  (557) 
nan

>  <Pocket>  (557) 
nan

>  <ATP_Site>  (557) 
nan

>  <Peripheral>  (557) 
nan

>  <Num_H_Atoms_ProtBoundConf>  (557) 
nan

>  <Num_Resolved_Atoms>  (557) 
nan

>  <Num_Not_Resolved_Atoms>  (557) 
nan

$$$$
CHEMBL3654681
     RDKit          3D

  0  0  0  0  0  0  0  0  0  0999 V3000
M  V30 BEGIN CTAB
M  V30 COUNTS 46 49 0 0 0
M  V30 BEGIN ATOM
M  V30 1 C 0.334692 -4.642574 4.357757 0
M  V30 2 C -0.272664 -4.101295 3.087976 0 CFG=1
M  V30 3 N 0.755032 -3.576193 2.208572 0
M  V30 4 C 0.841243 -2.202635 1.891557 0
M  V30 5 O -0.015969 -1.406968 2.399387 0
M  V30 6 N 1.811336 -1.604946 1.042755 0
M  V30 7 C 1.808316 -0.201738 0.788330 0
M  V30 8 C 2.460511 0.790242 1.494850 0
M  V30 9 C 2.294981 2.085288 1.039595 0
M  V30 10 N 2.832088 3.200138 1.568285 0
M  V30 11 N 2.397940 4.211209 0.799804 0
M  V30 12 C 1.603230 3.714369 -0.188090 0
M  V30 13 C 0.941273 4.514935 -1.227632 0
M  V30 14 C 0.302490 5.685641 -0.800618 0
M  V30 15 C -0.357737 6.521120 -1.704476 0
M  V30 16 C -0.362667 6.161449 -3.025490 0
M  V30 17 F -1.012636 6.994779 -3.876401 0
M  V30 18 C 0.259450 5.010919 -3.478601 0
M  V30 19 C 0.911663 4.190864 -2.566737 0
M  V30 20 C 1.510671 2.340398 -0.068358 0
M  V30 21 C 0.872847 1.349025 -0.755519 0
M  V30 22 N 1.052909 0.090195 -0.287041 0
M  V30 23 C -1.188445 -5.042410 2.440135 0
M  V30 24 C -1.604926 -4.570693 1.189864 0
M  V30 25 C -2.484141 -5.308822 0.392162 0
M  V30 26 C -2.926623 -6.516221 0.878568 0
M  V30 27 C -2.535263 -7.003799 2.100495 0
M  V30 28 C -1.672901 -6.262359 2.864360 0
M  V30 29 H 0.768791 -3.836777 4.965443 0
M  V30 30 H 1.062726 -5.434245 4.187698 0
M  V30 31 H -0.524150 -5.031366 4.979354 0
M  V30 32 H -0.877946 -3.194844 3.383552 0
M  V30 33 H 1.473086 -4.213405 1.777837 0
M  V30 34 H 2.467818 -2.326206 0.674317 0
M  V30 35 H 3.035773 0.432379 2.337964 0
M  V30 36 H 3.450415 3.295584 2.388849 0
M  V30 37 H 0.312696 5.965313 0.264229 0
M  V30 38 H -0.851724 7.432683 -1.351900 0
M  V30 39 H 0.243104 4.744519 -4.532116 0
M  V30 40 H 1.412514 3.283610 -2.863211 0
M  V30 41 H 0.265083 1.580326 -1.620070 0
M  V30 42 H -1.306157 -3.623897 0.721712 0
M  V30 43 H -2.818090 -4.962825 -0.576100 0
M  V30 44 H -3.613304 -7.086646 0.249124 0
M  V30 45 H -2.875472 -7.953145 2.496798 0
M  V30 46 H -1.293567 -6.537448 3.838932 0
M  V30 END ATOM
M  V30 BEGIN BOND
M  V30 1 1 1 2
M  V30 2 1 2 3
M  V30 3 1 3 4
M  V30 4 2 4 5
M  V30 5 1 4 6
M  V30 6 1 6 7
M  V30 7 2 7 8
M  V30 8 1 8 9
M  V30 9 1 9 10
M  V30 10 1 10 11
M  V30 11 2 11 12
M  V30 12 1 12 13
M  V30 13 2 13 14
M  V30 14 1 14 15
M  V30 15 2 15 16
M  V30 16 1 16 17
M  V30 17 1 16 18
M  V30 18 2 18 19
M  V30 19 1 12 20
M  V30 20 1 20 21
M  V30 21 2 21 22
M  V30 22 1 2 23
M  V30 23 2 23 24
M  V30 24 1 24 25
M  V30 25 2 25 26
M  V30 26 1 26 27
M  V30 27 2 27 28
M  V30 28 1 22 7
M  V30 29 1 28 23
M  V30 30 2 20 9
M  V30 31 1 19 13
M  V30 32 1 1 29
M  V30 33 1 1 30
M  V30 34 1 1 31
M  V30 35 1 2 32 CFG=1
M  V30 36 1 3 33
M  V30 37 1 6 34
M  V30 38 1 8 35
M  V30 39 1 10 36
M  V30 40 1 14 37
M  V30 41 1 15 38
M  V30 42 1 18 39
M  V30 43 1 19 40
M  V30 44 1 21 41
M  V30 45 1 24 42
M  V30 46 1 25 43
M  V30 47 1 26 44
M  V30 48 1 27 45
M  V30 49 1 28 46
M  V30 END BOND
M  V30 END CTAB
M  END
>  <Dataset>  (558) 
ChEMBL_Kinases

>  <Ligand_Instance>  (558) 
nan

>  <PDB_ID>  (558) 
nan

>  <Standardized_SMILES>  (558) 
C[C@@H](NC(=O)Nc1cc2[nH]nc(-c3ccc(F)cc3)c2cn1)c1ccccc1

>  <Name>  (558) 
nan

>  <Pocket>  (558) 
nan

>  <ATP_Site>  (558) 
nan

>  <Peripheral>  (558) 
nan

>  <Num_H_Atoms_ProtBoundConf>  (558) 
nan

>  <Num_Resolved_Atoms>  (558) 
nan

>  <Num_Not_Resolved_Atoms>  (558) 
nan

$$$$
CHEMBL3654657
     RDKit          3D

  0  0  0  0  0  0  0  0  0  0999 V3000
M  V30 BEGIN CTAB
M  V30 COUNTS 72 76 0 0 0
M  V30 BEGIN ATOM
M  V30 1 C 2.639746 -5.154500 -1.336499 0
M  V30 2 C 1.735659 -4.815452 -2.479455 0
M  V30 3 N 0.600032 -3.986827 -2.064044 0
M  V30 4 C -0.615993 -4.665513 -1.640441 0
M  V30 5 C -0.645864 -4.955768 -0.173434 0
M  V30 6 C 0.932302 -2.620189 -2.162493 0
M  V30 7 O 2.116713 -2.637175 -2.578482 0
M  V30 8 C 0.357469 -1.248977 -1.941738 0 CFG=2
M  V30 9 C -0.733608 -1.136162 -2.985444 0
M  V30 10 C -1.492255 0.139379 -2.974901 0
M  V30 11 C -0.585276 1.259198 -2.621140 0 CFG=1
M  V30 12 N -0.967537 1.811622 -1.350675 0
M  V30 13 C -1.370620 3.127253 -1.004180 0
M  V30 14 O -1.446224 4.045171 -1.858370 0
M  V30 15 C -1.718938 3.485722 0.365165 0
M  V30 16 C -2.095455 4.797771 0.628541 0
M  V30 17 C -2.433574 5.191465 1.920141 0
M  V30 18 C -2.409011 4.300109 2.984609 0
M  V30 19 N -2.663621 4.340543 4.313960 0
M  V30 20 N -2.467642 3.152384 4.859285 0
M  V30 21 C -2.074397 2.277398 3.907309 0
M  V30 22 C -1.764868 0.867238 4.145741 0
M  V30 23 C -0.982006 0.358794 5.161454 0
M  V30 24 C -0.753421 -0.987145 5.307204 0
M  V30 25 N -1.309441 -1.863262 4.430262 0
M  V30 26 C -2.085364 -1.454280 3.411521 0
M  V30 27 C -2.712645 -2.390174 2.428226 0
M  V30 28 C -2.294202 -0.092552 3.295163 0
M  V30 29 C -2.036028 2.993888 2.728835 0
M  V30 30 C -1.709391 2.639979 1.447809 0
M  V30 31 C 0.859928 0.921847 -2.773492 0
M  V30 32 N 1.341499 -0.237559 -2.120357 0
M  V30 33 C 2.040148 0.135837 -0.942943 0
M  V30 34 C 2.589587 -0.929995 -0.136922 0
M  V30 35 C 3.780015 -1.618254 -0.034274 0
M  V30 36 C 3.944212 -2.613172 0.894466 0
M  V30 37 C 2.913073 -2.936588 1.740359 0
M  V30 38 S 1.571473 -1.714123 1.170212 0
M  V30 39 H 2.100431 -5.166757 -0.381602 0
M  V30 40 H 3.464717 -4.416753 -1.321761 0
M  V30 41 H 3.090031 -6.162186 -1.545296 0
M  V30 42 H 2.286961 -4.393210 -3.332248 0
M  V30 43 H 1.308944 -5.782430 -2.868721 0
M  V30 44 H -1.538319 -4.164146 -1.995714 0
M  V30 45 H -0.645214 -5.667011 -2.164801 0
M  V30 46 H -0.298189 -6.002234 0.077644 0
M  V30 47 H -1.682430 -4.928634 0.236235 0
M  V30 48 H 0.008190 -4.286413 0.425666 0
M  V30 49 H 0.001983 -1.231447 -0.905955 0
M  V30 50 H -0.219436 -1.263054 -3.965256 0
M  V30 51 H -1.441640 -1.958973 -2.903749 0
M  V30 52 H -1.936624 0.322740 -3.990155 0
M  V30 53 H -2.358859 0.108674 -2.282972 0
M  V30 54 H -0.767655 2.098895 -3.359419 0
M  V30 55 H -0.933831 1.085811 -0.604513 0
M  V30 56 H -2.142680 5.564574 -0.151017 0
M  V30 57 H -2.729146 6.202915 2.149905 0
M  V30 58 H -2.970885 5.205685 4.810971 0
M  V30 59 H -0.559436 1.112197 5.839202 0
M  V30 60 H -0.132678 -1.334341 6.119368 0
M  V30 61 H -3.819394 -2.331304 2.587536 0
M  V30 62 H -2.297262 -3.393799 2.499672 0
M  V30 63 H -2.552968 -2.001691 1.386374 0
M  V30 64 H -2.931191 0.217857 2.464108 0
M  V30 65 H -1.423596 1.629862 1.278138 0
M  V30 66 H 1.039766 0.823839 -3.885005 0
M  V30 67 H 1.442063 1.831577 -2.492663 0
M  V30 68 H 2.825894 0.907096 -1.236820 0
M  V30 69 H 1.365335 0.739387 -0.276717 0
M  V30 70 H 4.502971 -1.267772 -0.752646 0
M  V30 71 H 4.886117 -3.139075 0.956154 0
M  V30 72 H 2.885825 -3.665941 2.495711 0
M  V30 END ATOM
M  V30 BEGIN BOND
M  V30 1 1 1 2
M  V30 2 1 2 3
M  V30 3 1 3 4
M  V30 4 1 4 5
M  V30 5 1 3 6
M  V30 6 2 6 7
M  V30 7 1 6 8
M  V30 8 1 8 9
M  V30 9 1 9 10
M  V30 10 1 10 11
M  V30 11 1 11 12
M  V30 12 1 12 13
M  V30 13 2 13 14
M  V30 14 1 13 15
M  V30 15 2 15 16
M  V30 16 1 16 17
M  V30 17 2 17 18
M  V30 18 1 18 19
M  V30 19 1 19 20
M  V30 20 2 20 21
M  V30 21 1 21 22
M  V30 22 2 22 23
M  V30 23 1 23 24
M  V30 24 2 24 25
M  V30 25 1 25 26
M  V30 26 1 26 27
M  V30 27 2 26 28
M  V30 28 1 21 29
M  V30 29 2 29 30
M  V30 30 1 11 31
M  V30 31 1 31 32
M  V30 32 1 32 33
M  V30 33 1 33 34
M  V30 34 2 34 35
M  V30 35 1 35 36
M  V30 36 2 36 37
M  V30 37 1 37 38
M  V30 38 1 32 8
M  V30 39 1 38 34
M  V30 40 1 30 15
M  V30 41 1 29 18
M  V30 42 1 28 22
M  V30 43 1 1 39
M  V30 44 1 1 40
M  V30 45 1 1 41
M  V30 46 1 2 42
M  V30 47 1 2 43
M  V30 48 1 4 44
M  V30 49 1 4 45
M  V30 50 1 5 46
M  V30 51 1 5 47
M  V30 52 1 5 48
M  V30 53 1 8 49 CFG=1
M  V30 54 1 9 50
M  V30 55 1 9 51
M  V30 56 1 10 52
M  V30 57 1 10 53
M  V30 58 1 11 54 CFG=3
M  V30 59 1 12 55
M  V30 60 1 16 56
M  V30 61 1 17 57
M  V30 62 1 19 58
M  V30 63 1 23 59
M  V30 64 1 24 60
M  V30 65 1 27 61
M  V30 66 1 27 62
M  V30 67 1 27 63
M  V30 68 1 28 64
M  V30 69 1 30 65
M  V30 70 1 31 66
M  V30 71 1 31 67
M  V30 72 1 33 68
M  V30 73 1 33 69
M  V30 74 1 35 70
M  V30 75 1 36 71
M  V30 76 1 37 72
M  V30 END BOND
M  V30 END CTAB
M  END
>  <Dataset>  (559) 
ChEMBL_Kinases

>  <Ligand_Instance>  (559) 
nan

>  <PDB_ID>  (559) 
nan

>  <Standardized_SMILES>  (559) 
CCN(CC)C(=O)[C@@H]1CC[C@@H](NC(=O)c2ccc3[nH]nc(-c4ccnc(C)c4)c3c2)CN1Cc1cccs1

>  <Name>  (559) 
nan

>  <Pocket>  (559) 
nan

>  <ATP_Site>  (559) 
nan

>  <Peripheral>  (559) 
nan

>  <Num_H_Atoms_ProtBoundConf>  (559) 
nan

>  <Num_Resolved_Atoms>  (559) 
nan

>  <Num_Not_Resolved_Atoms>  (559) 
nan

$$$$
CHEMBL3654658
     RDKit          3D

  0  0  0  0  0  0  0  0  0  0999 V3000
M  V30 BEGIN CTAB
M  V30 COUNTS 77 82 0 0 0
M  V30 BEGIN ATOM
M  V30 1 C -3.468259 0.635328 4.797279 0
M  V30 2 O -2.566957 0.655889 3.714673 0
M  V30 3 C -2.778195 0.021704 2.499116 0
M  V30 4 C -3.930629 -0.702129 2.254119 0
M  V30 5 C -4.191298 -1.355304 1.056679 0
M  V30 6 C -3.254004 -1.283631 0.049107 0
M  V30 7 C -2.085817 -0.569722 0.250894 0
M  V30 8 F -1.055631 -0.384598 -0.610444 0
M  V30 9 C -1.840136 0.081383 1.462657 0
M  V30 10 C -0.621368 0.868303 1.770174 0
M  V30 11 N 0.289541 0.194782 2.631426 0
M  V30 12 C 1.424134 0.978527 2.864271 0
M  V30 13 C 2.735757 0.373639 2.475034 0 CFG=2
M  V30 14 N 2.844364 0.431172 1.033883 0
M  V30 15 C 3.925198 0.907992 0.259295 0
M  V30 16 O 4.963141 1.359719 0.845457 0
M  V30 17 C 3.970316 0.933806 -1.195869 0
M  V30 18 C 5.090133 1.449641 -1.812655 0
M  V30 19 C 5.193359 1.500129 -3.208829 0
M  V30 20 C 4.182236 1.037359 -4.023267 0
M  V30 21 N 3.934835 0.927547 -5.329791 0
M  V30 22 N 2.752288 0.385201 -5.538859 0
M  V30 23 C 2.146286 0.103370 -4.372362 0
M  V30 24 C 0.826081 -0.502588 -4.248874 0
M  V30 25 C 0.677938 -1.556933 -3.339077 0
M  V30 26 C -0.590322 -2.100075 -3.252280 0
M  V30 27 C -1.647370 -1.630631 -4.016544 0
M  V30 28 N -2.935354 -2.027520 -4.066321 0
M  V30 29 N -3.603993 -1.286253 -4.951312 0
M  V30 30 C -4.995449 -1.324549 -5.360478 0
M  V30 31 C -2.684518 -0.412215 -5.451779 0
M  V30 32 C -1.442923 -0.602355 -4.884394 0
M  V30 33 C -0.206961 -0.016502 -5.020697 0
M  V30 34 C 3.060147 0.520169 -3.408292 0
M  V30 35 C 2.974049 0.477551 -2.033603 0
M  V30 36 C 2.747875 -1.048137 3.017795 0
M  V30 37 C 1.696377 -1.813400 2.256089 0
M  V30 38 C 0.349832 -1.206810 2.575268 0 CFG=1
M  V30 39 C -0.121217 -1.860344 3.840739 0
M  V30 40 O -0.035261 -3.104801 3.716811 0
M  V30 41 N -0.509859 -2.701577 4.909008 0
M  V30 42 C -0.474756 -4.152128 4.913217 0
M  V30 43 C -0.986776 -1.997854 6.109692 0
M  V30 44 H -3.819136 -0.424622 4.887573 0
M  V30 45 H -4.298776 1.334918 4.623868 0
M  V30 46 H -2.883633 0.854868 5.711508 0
M  V30 47 H -4.710523 -0.804157 2.994916 0
M  V30 48 H -5.064796 -1.923276 0.831323 0
M  V30 49 H -3.295530 -1.734299 -0.952653 0
M  V30 50 H -0.182457 1.132320 0.770843 0
M  V30 51 H -0.863094 1.864356 2.241570 0
M  V30 52 H 1.442355 1.225584 3.967757 0
M  V30 53 H 1.286123 1.995494 2.393211 0
M  V30 54 H 3.627391 0.847471 2.935139 0
M  V30 55 H 2.066510 0.105632 0.421650 0
M  V30 56 H 5.961124 1.850134 -1.284521 0
M  V30 57 H 6.061005 1.900008 -3.712307 0
M  V30 58 H 4.586048 1.228858 -6.085223 0
M  V30 59 H 1.456449 -1.950157 -2.732606 0
M  V30 60 H -0.724391 -2.926913 -2.544565 0
M  V30 61 H -5.149006 -1.831414 -6.310076 0
M  V30 62 H -5.615668 -1.788578 -4.549269 0
M  V30 63 H -5.400318 -0.280500 -5.479079 0
M  V30 64 H -2.935267 0.336901 -6.212107 0
M  V30 65 H -0.110816 0.781293 -5.715876 0
M  V30 66 H 2.080997 0.066202 -1.593488 0
M  V30 67 H 2.548314 -0.980439 4.086125 0
M  V30 68 H 3.752381 -1.509361 2.803562 0
M  V30 69 H 1.705042 -2.902812 2.559467 0
M  V30 70 H 1.888972 -1.732134 1.159314 0
M  V30 71 H -0.332512 -1.645086 1.782113 0
M  V30 72 H 0.498727 -4.594546 4.703800 0
M  V30 73 H -0.915824 -4.495365 5.868604 0
M  V30 74 H -1.201720 -4.498996 4.122018 0
M  V30 75 H -0.590938 -2.492443 7.026028 0
M  V30 76 H -2.087920 -2.167208 6.137795 0
M  V30 77 H -0.674210 -0.957878 6.072305 0
M  V30 END ATOM
M  V30 BEGIN BOND
M  V30 1 1 1 2
M  V30 2 1 2 3
M  V30 3 2 3 4
M  V30 4 1 4 5
M  V30 5 2 5 6
M  V30 6 1 6 7
M  V30 7 1 7 8
M  V30 8 2 7 9
M  V30 9 1 9 10
M  V30 10 1 10 11
M  V30 11 1 11 12
M  V30 12 1 12 13
M  V30 13 1 13 14
M  V30 14 1 14 15
M  V30 15 2 15 16
M  V30 16 1 15 17
M  V30 17 2 17 18
M  V30 18 1 18 19
M  V30 19 2 19 20
M  V30 20 1 20 21
M  V30 21 1 21 22
M  V30 22 2 22 23
M  V30 23 1 23 24
M  V30 24 1 24 25
M  V30 25 2 25 26
M  V30 26 1 26 27
M  V30 27 2 27 28
M  V30 28 1 28 29
M  V30 29 1 29 30
M  V30 30 1 29 31
M  V30 31 2 31 32
M  V30 32 1 32 33
M  V30 33 1 23 34
M  V30 34 2 34 35
M  V30 35 1 13 36
M  V30 36 1 36 37
M  V30 37 1 37 38
M  V30 38 1 38 39
M  V30 39 2 39 40
M  V30 40 1 39 41
M  V30 41 1 41 42
M  V30 42 1 41 43
M  V30 43 1 9 3
M  V30 44 1 38 11
M  V30 45 1 35 17
M  V30 46 1 34 20
M  V30 47 2 33 24
M  V30 48 1 32 27
M  V30 49 1 1 44
M  V30 50 1 1 45
M  V30 51 1 1 46
M  V30 52 1 4 47
M  V30 53 1 5 48
M  V30 54 1 6 49
M  V30 55 1 10 50
M  V30 56 1 10 51
M  V30 57 1 12 52
M  V30 58 1 12 53
M  V30 59 1 13 54 CFG=1
M  V30 60 1 14 55
M  V30 61 1 18 56
M  V30 62 1 19 57
M  V30 63 1 21 58
M  V30 64 1 25 59
M  V30 65 1 26 60
M  V30 66 1 30 61
M  V30 67 1 30 62
M  V30 68 1 30 63
M  V30 69 1 31 64
M  V30 70 1 33 65
M  V30 71 1 35 66
M  V30 72 1 36 67
M  V30 73 1 36 68
M  V30 74 1 37 69
M  V30 75 1 37 70
M  V30 76 1 38 71 CFG=3
M  V30 77 1 42 72
M  V30 78 1 42 73
M  V30 79 1 42 74
M  V30 80 1 43 75
M  V30 81 1 43 76
M  V30 82 1 43 77
M  V30 END BOND
M  V30 END CTAB
M  END
>  <Dataset>  (560) 
ChEMBL_Kinases

>  <Ligand_Instance>  (560) 
nan

>  <PDB_ID>  (560) 
nan

>  <Standardized_SMILES>  (560) 
COc1cccc(F)c1CN1C[C@H](NC(=O)c2ccc3[nH]nc(-c4ccc5nn(C)cc5c4)c3c2)CC[C@H]1C(=O)N(C)C

>  <Name>  (560) 
nan

>  <Pocket>  (560) 
nan

>  <ATP_Site>  (560) 
nan

>  <Peripheral>  (560) 
nan

>  <Num_H_Atoms_ProtBoundConf>  (560) 
nan

>  <Num_Resolved_Atoms>  (560) 
nan

>  <Num_Not_Resolved_Atoms>  (560) 
nan

$$$$
CHEMBL3654659
     RDKit          3D

  0  0  0  0  0  0  0  0  0  0999 V3000
M  V30 BEGIN CTAB
M  V30 COUNTS 78 84 0 0 0
M  V30 BEGIN ATOM
M  V30 1 C 4.976967 -4.833579 -3.160810 0
M  V30 2 O 3.911041 -4.357779 -2.388943 0
M  V30 3 C 3.620090 -4.679069 -1.090854 0
M  V30 4 C 4.489280 -5.571604 -0.503115 0
M  V30 5 C 4.279559 -5.961840 0.806838 0
M  V30 6 C 3.200889 -5.453146 1.511635 0
M  V30 7 C 2.377619 -4.558950 0.837594 0
M  V30 8 F 1.316958 -4.064761 1.547845 0
M  V30 9 C 2.537112 -4.129577 -0.475125 0
M  V30 10 C 1.597908 -3.158357 -1.077850 0
M  V30 11 N 2.029611 -1.845262 -1.099249 0
M  V30 12 C 1.196354 -0.831057 -1.659261 0
M  V30 13 C 1.044001 0.213288 -0.549126 0 CFG=2
M  V30 14 N 0.063431 1.206891 -0.896553 0
M  V30 15 C -1.207117 1.207546 -0.255392 0
M  V30 16 O -1.511703 0.357619 0.617259 0
M  V30 17 C -2.160604 2.240318 -0.649290 0
M  V30 18 C -1.911535 3.257023 -1.538231 0
M  V30 19 C -2.865127 4.209022 -1.881820 0
M  V30 20 C -4.121627 4.115001 -1.292003 0
M  V30 21 N -5.250156 4.849790 -1.398761 0
M  V30 22 N -6.204385 4.366030 -0.634671 0
M  V30 23 C -5.750098 3.267636 0.028583 0
M  V30 24 C -6.470625 2.424486 0.971433 0
M  V30 25 C -7.761347 2.034875 0.628065 0
M  V30 26 C -8.590875 1.244507 1.395673 0
M  V30 27 C -8.091092 0.802596 2.612132 0
M  V30 28 N -8.604270 0.045843 3.579042 0
M  V30 29 N -7.736877 -0.107773 4.573260 0
M  V30 30 C -7.938279 -0.866612 5.804780 0
M  V30 31 C -6.628483 0.580017 4.220144 0
M  V30 32 C -6.822661 1.160777 2.995150 0
M  V30 33 C -6.036300 1.952712 2.190390 0
M  V30 34 C -4.444877 3.110130 -0.382366 0
M  V30 35 C -3.428278 2.223039 -0.114238 0
M  V30 36 C 2.404660 0.736246 -0.240136 0
M  V30 37 C 3.469110 0.104756 -1.073001 0
M  V30 38 C 3.372504 -1.445891 -1.072412 0 CFG=1
M  V30 39 C 4.173688 -1.934177 0.090898 0
M  V30 40 O 4.757917 -2.392122 1.123175 0
M  V30 41 N 5.581177 -1.611223 0.000919 0
M  V30 42 C 6.767436 -1.832023 0.832674 0
M  V30 43 C 7.583392 -1.935833 -0.448300 0
M  V30 44 F 7.468913 -3.201640 -0.988091 0
M  V30 45 F 8.849033 -1.450191 -0.375301 0
M  V30 46 C 6.515251 -0.942762 -0.928574 0
M  V30 47 H 5.103064 -5.924728 -2.972577 0
M  V30 48 H 4.654348 -4.700622 -4.236376 0
M  V30 49 H 5.933761 -4.348638 -2.973631 0
M  V30 50 H 5.343452 -6.017394 -0.957664 0
M  V30 51 H 4.900188 -6.655201 1.357410 0
M  V30 52 H 2.982114 -5.719483 2.537121 0
M  V30 53 H 1.251009 -3.544427 -2.080870 0
M  V30 54 H 0.645724 -3.258699 -0.454861 0
M  V30 55 H 1.719366 -0.306125 -2.513031 0
M  V30 56 H 0.242449 -1.148172 -2.069018 0
M  V30 57 H 0.580787 -0.374603 0.298462 0
M  V30 58 H 0.404165 1.865321 -1.626004 0
M  V30 59 H -0.933681 3.324615 -1.989153 0
M  V30 60 H -2.635786 4.996661 -2.585789 0
M  V30 61 H -5.381195 5.701186 -2.003881 0
M  V30 62 H -8.172165 2.366410 -0.315971 0
M  V30 63 H -9.568142 0.982387 1.076720 0
M  V30 64 H -6.988562 -1.348360 6.075735 0
M  V30 65 H -8.255885 -0.182792 6.621570 0
M  V30 66 H -8.714874 -1.633452 5.686259 0
M  V30 67 H -5.730986 0.658247 4.818042 0
M  V30 68 H -5.020830 2.257563 2.465398 0
M  V30 69 H -3.663010 1.434811 0.590642 0
M  V30 70 H 2.387709 1.830328 -0.525385 0
M  V30 71 H 2.641439 0.730746 0.843778 0
M  V30 72 H 4.443279 0.325456 -0.593417 0
M  V30 73 H 3.542347 0.501631 -2.093579 0
M  V30 74 H 3.950720 -1.712970 -1.988634 0
M  V30 75 H 6.660485 -2.761834 1.387955 0
M  V30 76 H 7.069147 -0.969661 1.459904 0
M  V30 77 H 6.269976 -1.129931 -1.982921 0
M  V30 78 H 6.826852 0.066348 -0.628329 0
M  V30 END ATOM
M  V30 BEGIN BOND
M  V30 1 1 1 2
M  V30 2 1 2 3
M  V30 3 2 3 4
M  V30 4 1 4 5
M  V30 5 2 5 6
M  V30 6 1 6 7
M  V30 7 1 7 8
M  V30 8 2 7 9
M  V30 9 1 9 10
M  V30 10 1 10 11
M  V30 11 1 11 12
M  V30 12 1 12 13
M  V30 13 1 13 14
M  V30 14 1 14 15
M  V30 15 2 15 16
M  V30 16 1 15 17
M  V30 17 2 17 18
M  V30 18 1 18 19
M  V30 19 2 19 20
M  V30 20 1 20 21
M  V30 21 1 21 22
M  V30 22 2 22 23
M  V30 23 1 23 24
M  V30 24 1 24 25
M  V30 25 2 25 26
M  V30 26 1 26 27
M  V30 27 2 27 28
M  V30 28 1 28 29
M  V30 29 1 29 30
M  V30 30 1 29 31
M  V30 31 2 31 32
M  V30 32 1 32 33
M  V30 33 1 23 34
M  V30 34 2 34 35
M  V30 35 1 13 36
M  V30 36 1 36 37
M  V30 37 1 37 38
M  V30 38 1 38 39
M  V30 39 2 39 40
M  V30 40 1 39 41
M  V30 41 1 41 42
M  V30 42 1 42 43
M  V30 43 1 43 44
M  V30 44 1 43 45
M  V30 45 1 43 46
M  V30 46 1 9 3
M  V30 47 1 38 11
M  V30 48 1 46 41
M  V30 49 1 35 17
M  V30 50 1 34 20
M  V30 51 2 33 24
M  V30 52 1 32 27
M  V30 53 1 1 47
M  V30 54 1 1 48
M  V30 55 1 1 49
M  V30 56 1 4 50
M  V30 57 1 5 51
M  V30 58 1 6 52
M  V30 59 1 10 53
M  V30 60 1 10 54
M  V30 61 1 12 55
M  V30 62 1 12 56
M  V30 63 1 13 57 CFG=1
M  V30 64 1 14 58
M  V30 65 1 18 59
M  V30 66 1 19 60
M  V30 67 1 21 61
M  V30 68 1 25 62
M  V30 69 1 26 63
M  V30 70 1 30 64
M  V30 71 1 30 65
M  V30 72 1 30 66
M  V30 73 1 31 67
M  V30 74 1 33 68
M  V30 75 1 35 69
M  V30 76 1 36 70
M  V30 77 1 36 71
M  V30 78 1 37 72
M  V30 79 1 37 73
M  V30 80 1 38 74 CFG=3
M  V30 81 1 42 75
M  V30 82 1 42 76
M  V30 83 1 46 77
M  V30 84 1 46 78
M  V30 END BOND
M  V30 END CTAB
M  END
>  <Dataset>  (561) 
ChEMBL_Kinases

>  <Ligand_Instance>  (561) 
nan

>  <PDB_ID>  (561) 
nan

>  <Standardized_SMILES>  (561) 
COc1cccc(F)c1CN1C[C@H](NC(=O)c2ccc3[nH]nc(-c4ccc5nn(C)cc5c4)c3c2)CC[C@H]1C(=O)N1CC(F)(F)C1

>  <Name>  (561) 
nan

>  <Pocket>  (561) 
nan

>  <ATP_Site>  (561) 
nan

>  <Peripheral>  (561) 
nan

>  <Num_H_Atoms_ProtBoundConf>  (561) 
nan

>  <Num_Resolved_Atoms>  (561) 
nan

>  <Num_Not_Resolved_Atoms>  (561) 
nan

$$$$
CHEMBL3654660
     RDKit          3D

  0  0  0  0  0  0  0  0  0  0999 V3000
M  V30 BEGIN CTAB
M  V30 COUNTS 76 81 0 0 0
M  V30 BEGIN ATOM
M  V30 1 C 1.771152 -4.613371 2.147600 0
M  V30 2 O 2.535716 -3.865202 1.247284 0
M  V30 3 C 3.939617 -3.860333 1.229444 0
M  V30 4 C 4.554628 -4.663133 2.185016 0
M  V30 5 C 5.929876 -4.714286 2.235300 0
M  V30 6 C 6.638601 -3.958705 1.324624 0
M  V30 7 C 6.008170 -3.169157 0.385102 0
M  V30 8 F 6.692278 -2.421275 -0.526101 0
M  V30 9 C 4.640068 -3.088341 0.300231 0
M  V30 10 C 3.817714 -2.306744 -0.634415 0
M  V30 11 N 3.193793 -1.147840 -0.088765 0
M  V30 12 C 2.424176 -0.491734 -1.134957 0
M  V30 13 C 1.544216 0.499511 -0.487154 0 CFG=2
M  V30 14 N 0.517296 1.036883 -1.354881 0
M  V30 15 C -0.869157 0.875658 -1.176317 0
M  V30 16 O -1.162497 0.190559 -0.151149 0
M  V30 17 C -1.878937 1.416147 -2.044939 0
M  V30 18 C -1.656804 2.188750 -3.170249 0
M  V30 19 C -2.709977 2.667319 -3.955277 0
M  V30 20 C -4.020810 2.362771 -3.602078 0
M  V30 21 N -5.251826 2.649552 -4.117624 0
M  V30 22 N -6.189609 2.094385 -3.367082 0
M  V30 23 C -5.657815 1.418812 -2.329265 0
M  V30 24 C -6.318731 0.670176 -1.284967 0
M  V30 25 C -6.049130 0.728798 0.076129 0
M  V30 26 C -6.694518 -0.005734 1.030739 0
M  V30 27 C -7.707748 -0.893774 0.648747 0
M  V30 28 N -8.424011 -1.671895 1.426964 0
M  V30 29 C -9.277869 -2.423089 1.110734 0
M  V30 30 C -10.267197 -3.413149 1.572669 0
M  V30 31 S -9.312333 -2.185692 -0.792376 0
M  V30 32 C -7.949029 -0.924367 -0.721462 0
M  V30 33 C -7.305743 -0.184543 -1.729474 0
M  V30 34 C -4.289062 1.596144 -2.489527 0
M  V30 35 C -3.207286 1.164911 -1.772377 0
M  V30 36 C 2.361876 1.594564 0.121762 0
M  V30 37 C 3.780857 1.202049 0.222308 0
M  V30 38 C 4.058407 -0.229133 0.593753 0 CFG=1
M  V30 39 C 3.816969 -0.352079 2.050224 0
M  V30 40 O 2.850692 -1.021553 2.545383 0
M  V30 41 N 4.712825 0.313067 2.970057 0
M  V30 42 C 5.881346 1.110405 2.663853 0
M  V30 43 C 4.484383 0.219663 4.409153 0
M  V30 44 H 0.701482 -4.433821 1.874968 0
M  V30 45 H 1.997911 -5.699203 1.999041 0
M  V30 46 H 1.864896 -4.296945 3.195859 0
M  V30 47 H 3.974017 -5.247351 2.884497 0
M  V30 48 H 6.436394 -5.326950 2.967411 0
M  V30 49 H 7.727043 -3.956003 1.311402 0
M  V30 50 H 4.545798 -1.921817 -1.413754 0
M  V30 51 H 3.155690 -2.969289 -1.188355 0
M  V30 52 H 1.866156 -1.306896 -1.644536 0
M  V30 53 H 3.143807 -0.026677 -1.843747 0
M  V30 54 H 1.003916 -0.038402 0.351729 0
M  V30 55 H 0.869549 1.589105 -2.179366 0
M  V30 56 H -0.625605 2.410642 -3.423512 0
M  V30 57 H -2.529754 3.268346 -4.828616 0
M  V30 58 H -5.382366 3.221418 -4.972654 0
M  V30 59 H -5.254239 1.426616 0.373129 0
M  V30 60 H -6.373737 0.146523 2.056656 0
M  V30 61 H -9.945365 -3.784431 2.563797 0
M  V30 62 H -10.336727 -4.287585 0.875971 0
M  V30 63 H -11.282551 -3.013071 1.662797 0
M  V30 64 H -7.670946 -0.384435 -2.711303 0
M  V30 65 H -3.428383 0.555837 -0.893650 0
M  V30 66 H 1.993318 1.810868 1.149348 0
M  V30 67 H 2.208140 2.494543 -0.544581 0
M  V30 68 H 4.250471 1.394843 -0.786046 0
M  V30 69 H 4.280259 1.906767 0.917467 0
M  V30 70 H 5.105949 -0.459487 0.353256 0
M  V30 71 H 6.285507 0.857174 1.651099 0
M  V30 72 H 5.746277 2.181464 2.774428 0
M  V30 73 H 6.718267 0.833585 3.357024 0
M  V30 74 H 4.513814 1.260146 4.801608 0
M  V30 75 H 5.260460 -0.416738 4.877506 0
M  V30 76 H 3.458593 -0.163602 4.551940 0
M  V30 END ATOM
M  V30 BEGIN BOND
M  V30 1 1 1 2
M  V30 2 1 2 3
M  V30 3 2 3 4
M  V30 4 1 4 5
M  V30 5 2 5 6
M  V30 6 1 6 7
M  V30 7 1 7 8
M  V30 8 2 7 9
M  V30 9 1 9 10
M  V30 10 1 10 11
M  V30 11 1 11 12
M  V30 12 1 12 13
M  V30 13 1 13 14
M  V30 14 1 14 15
M  V30 15 2 15 16
M  V30 16 1 15 17
M  V30 17 2 17 18
M  V30 18 1 18 19
M  V30 19 2 19 20
M  V30 20 1 20 21
M  V30 21 1 21 22
M  V30 22 2 22 23
M  V30 23 1 23 24
M  V30 24 2 24 25
M  V30 25 1 25 26
M  V30 26 2 26 27
M  V30 27 1 27 28
M  V30 28 2 28 29
M  V30 29 1 29 30
M  V30 30 1 29 31
M  V30 31 1 31 32
M  V30 32 2 32 33
M  V30 33 1 23 34
M  V30 34 2 34 35
M  V30 35 1 13 36
M  V30 36 1 36 37
M  V30 37 1 37 38
M  V30 38 1 38 39
M  V30 39 2 39 40
M  V30 40 1 39 41
M  V30 41 1 41 42
M  V30 42 1 41 43
M  V30 43 1 9 3
M  V30 44 1 38 11
M  V30 45 1 35 17
M  V30 46 1 34 20
M  V30 47 1 33 24
M  V30 48 1 32 27
M  V30 49 1 1 44
M  V30 50 1 1 45
M  V30 51 1 1 46
M  V30 52 1 4 47
M  V30 53 1 5 48
M  V30 54 1 6 49
M  V30 55 1 10 50
M  V30 56 1 10 51
M  V30 57 1 12 52
M  V30 58 1 12 53
M  V30 59 1 13 54 CFG=1
M  V30 60 1 14 55
M  V30 61 1 18 56
M  V30 62 1 19 57
M  V30 63 1 21 58
M  V30 64 1 25 59
M  V30 65 1 26 60
M  V30 66 1 30 61
M  V30 67 1 30 62
M  V30 68 1 30 63
M  V30 69 1 33 64
M  V30 70 1 35 65
M  V30 71 1 36 66
M  V30 72 1 36 67
M  V30 73 1 37 68
M  V30 74 1 37 69
M  V30 75 1 38 70 CFG=1
M  V30 76 1 42 71
M  V30 77 1 42 72
M  V30 78 1 42 73
M  V30 79 1 43 74
M  V30 80 1 43 75
M  V30 81 1 43 76
M  V30 END BOND
M  V30 END CTAB
M  END
>  <Dataset>  (562) 
ChEMBL_Kinases

>  <Ligand_Instance>  (562) 
nan

>  <PDB_ID>  (562) 
nan

>  <Standardized_SMILES>  (562) 
COc1cccc(F)c1CN1C[C@H](NC(=O)c2ccc3[nH]nc(-c4ccc5nc(C)sc5c4)c3c2)CC[C@H]1C(=O)N(C)C

>  <Name>  (562) 
nan

>  <Pocket>  (562) 
nan

>  <ATP_Site>  (562) 
nan

>  <Peripheral>  (562) 
nan

>  <Num_H_Atoms_ProtBoundConf>  (562) 
nan

>  <Num_Resolved_Atoms>  (562) 
nan

>  <Num_Not_Resolved_Atoms>  (562) 
nan

$$$$
CHEMBL3654661
     RDKit          3D

  0  0  0  0  0  0  0  0  0  0999 V3000
M  V30 BEGIN CTAB
M  V30 COUNTS 77 83 0 0 0
M  V30 BEGIN ATOM
M  V30 1 C -0.451407 -3.904068 0.181428 0
M  V30 2 O 0.598018 -3.090273 0.650038 0
M  V30 3 C 0.586091 -2.400217 1.830159 0
M  V30 4 C -0.427435 -2.366415 2.767605 0
M  V30 5 C -0.353600 -1.640028 3.935253 0
M  V30 6 C 0.756435 -0.897498 4.230623 0
M  V30 7 C 1.782890 -0.927713 3.288098 0
M  V30 8 F 2.883397 -0.175721 3.607559 0
M  V30 9 C 1.713401 -1.661683 2.103568 0
M  V30 10 C 2.877183 -1.629403 1.146243 0
M  V30 11 N 2.604558 -0.803260 0.018480 0
M  V30 12 C 2.364137 0.548545 0.450732 0
M  V30 13 C 1.684523 1.403498 -0.607019 0 CFG=2
M  V30 14 N 0.261237 1.550689 -0.369824 0
M  V30 15 C -0.271975 2.846960 -0.137782 0
M  V30 16 O 0.499978 3.824792 -0.142343 0
M  V30 17 C -1.691314 3.094450 0.108149 0
M  V30 18 C -2.071961 4.395063 0.372329 0
M  V30 19 C -3.400218 4.736466 0.616125 0
M  V30 20 C -4.331756 3.718631 0.583726 0
M  V30 21 N -5.679347 3.739359 0.777173 0
M  V30 22 N -6.156361 2.506609 0.644537 0
M  V30 23 C -5.138056 1.656744 0.363102 0
M  V30 24 C -5.264339 0.221012 0.144644 0
M  V30 25 C -6.322177 -0.086965 -0.684256 0
M  V30 26 C -6.609367 -1.405848 -1.015467 0
M  V30 27 C -5.825001 -2.427266 -0.508221 0
M  V30 28 N -5.818702 -3.781633 -0.619706 0
M  V30 29 N -4.808587 -4.289642 0.103006 0
M  V30 30 C -4.444954 -5.691042 0.258755 0
M  V30 31 C -4.172067 -3.251301 0.675078 0
M  V30 32 C -4.781872 -2.071921 0.313625 0
M  V30 33 C -4.469582 -0.779183 0.661664 0
M  V30 34 C -3.983070 2.409546 0.322531 0
M  V30 35 C -2.647130 2.101065 0.083232 0
M  V30 36 C 1.943052 0.751558 -1.946943 0
M  V30 37 C 3.385983 0.298703 -1.967380 0
M  V30 38 C 3.487533 -0.955060 -1.084485 0 CFG=1
M  V30 39 C 4.898521 -1.224421 -0.747081 0
M  V30 40 O 5.562933 -1.347492 0.311223 0
M  V30 41 N 5.735505 -1.389639 -1.887998 0
M  V30 42 C 7.135500 -1.656182 -1.635398 0
M  V30 43 N 7.826396 -1.780311 -0.642493 0
M  V30 44 C 9.122852 -2.029336 -0.697276 0
M  V30 45 C 9.748381 -2.160210 -1.996137 0
M  V30 46 S 8.240519 -1.880195 -3.073388 0
M  V30 47 H -1.045122 -4.260531 1.022280 0
M  V30 48 H -1.093760 -3.293451 -0.504824 0
M  V30 49 H -0.073190 -4.741992 -0.457845 0
M  V30 50 H -1.302956 -2.942636 2.551347 0
M  V30 51 H -1.162566 -1.634936 4.646096 0
M  V30 52 H 0.846632 -0.321212 5.129577 0
M  V30 53 H 3.769764 -1.294384 1.754282 0
M  V30 54 H 3.066937 -2.686908 0.900760 0
M  V30 55 H 1.650948 0.502562 1.293860 0
M  V30 56 H 3.297340 1.054343 0.811893 0
M  V30 57 H 2.151755 2.404852 -0.616350 0
M  V30 58 H -0.367948 0.724883 -0.367939 0
M  V30 59 H -1.362792 5.221064 0.405176 0
M  V30 60 H -3.761370 5.733424 0.828798 0
M  V30 61 H -6.302328 4.530232 0.993222 0
M  V30 62 H -7.014052 0.632776 -1.147002 0
M  V30 63 H -7.424354 -1.702361 -1.659097 0
M  V30 64 H -3.908850 -5.830154 1.216728 0
M  V30 65 H -3.716192 -5.935605 -0.548048 0
M  V30 66 H -5.308865 -6.361327 0.199212 0
M  V30 67 H -3.311741 -3.370631 1.317489 0
M  V30 68 H -3.667115 -0.453325 1.298440 0
M  V30 69 H -2.363492 1.089011 -0.120674 0
M  V30 70 H 1.719415 1.469952 -2.757941 0
M  V30 71 H 1.326600 -0.181090 -2.051061 0
M  V30 72 H 3.974832 1.134617 -1.514454 0
M  V30 73 H 3.705986 0.086397 -3.008656 0
M  V30 74 H 3.184587 -1.787379 -1.780235 0
M  V30 75 H 5.365076 -1.323522 -2.864464 0
M  V30 76 H 9.581303 -2.108535 0.297949 0
M  V30 77 H 10.828514 -2.366887 -1.948329 0
M  V30 END ATOM
M  V30 BEGIN BOND
M  V30 1 1 1 2
M  V30 2 1 2 3
M  V30 3 2 3 4
M  V30 4 1 4 5
M  V30 5 2 5 6
M  V30 6 1 6 7
M  V30 7 1 7 8
M  V30 8 2 7 9
M  V30 9 1 9 10
M  V30 10 1 10 11
M  V30 11 1 11 12
M  V30 12 1 12 13
M  V30 13 1 13 14
M  V30 14 1 14 15
M  V30 15 2 15 16
M  V30 16 1 15 17
M  V30 17 2 17 18
M  V30 18 1 18 19
M  V30 19 2 19 20
M  V30 20 1 20 21
M  V30 21 1 21 22
M  V30 22 2 22 23
M  V30 23 1 23 24
M  V30 24 1 24 25
M  V30 25 2 25 26
M  V30 26 1 26 27
M  V30 27 2 27 28
M  V30 28 1 28 29
M  V30 29 1 29 30
M  V30 30 1 29 31
M  V30 31 2 31 32
M  V30 32 1 32 33
M  V30 33 1 23 34
M  V30 34 2 34 35
M  V30 35 1 13 36
M  V30 36 1 36 37
M  V30 37 1 37 38
M  V30 38 1 38 39
M  V30 39 2 39 40
M  V30 40 1 39 41
M  V30 41 1 41 42
M  V30 42 2 42 43
M  V30 43 1 43 44
M  V30 44 2 44 45
M  V30 45 1 45 46
M  V30 46 1 9 3
M  V30 47 1 38 11
M  V30 48 1 46 42
M  V30 49 1 35 17
M  V30 50 1 34 20
M  V30 51 2 33 24
M  V30 52 1 32 27
M  V30 53 1 1 47
M  V30 54 1 1 48
M  V30 55 1 1 49
M  V30 56 1 4 50
M  V30 57 1 5 51
M  V30 58 1 6 52
M  V30 59 1 10 53
M  V30 60 1 10 54
M  V30 61 1 12 55
M  V30 62 1 12 56
M  V30 63 1 13 57 CFG=3
M  V30 64 1 14 58
M  V30 65 1 18 59
M  V30 66 1 19 60
M  V30 67 1 21 61
M  V30 68 1 25 62
M  V30 69 1 26 63
M  V30 70 1 30 64
M  V30 71 1 30 65
M  V30 72 1 30 66
M  V30 73 1 31 67
M  V30 74 1 33 68
M  V30 75 1 35 69
M  V30 76 1 36 70
M  V30 77 1 36 71
M  V30 78 1 37 72
M  V30 79 1 37 73
M  V30 80 1 38 74 CFG=3
M  V30 81 1 41 75
M  V30 82 1 44 76
M  V30 83 1 45 77
M  V30 END BOND
M  V30 END CTAB
M  END
>  <Dataset>  (563) 
ChEMBL_Kinases

>  <Ligand_Instance>  (563) 
nan

>  <PDB_ID>  (563) 
nan

>  <Standardized_SMILES>  (563) 
COc1cccc(F)c1CN1C[C@H](NC(=O)c2ccc3[nH]nc(-c4ccc5nn(C)cc5c4)c3c2)CC[C@H]1C(=O)Nc1nccs1

>  <Name>  (563) 
nan

>  <Pocket>  (563) 
nan

>  <ATP_Site>  (563) 
nan

>  <Peripheral>  (563) 
nan

>  <Num_H_Atoms_ProtBoundConf>  (563) 
nan

>  <Num_Resolved_Atoms>  (563) 
nan

>  <Num_Not_Resolved_Atoms>  (563) 
nan

$$$$
CHEMBL3654662
     RDKit          3D

  0  0  0  0  0  0  0  0  0  0999 V3000
M  V30 BEGIN CTAB
M  V30 COUNTS 72 76 0 0 0
M  V30 BEGIN ATOM
M  V30 1 C 4.214386 4.018389 5.676134 0
M  V30 2 C 4.026360 3.004046 4.604219 0
M  V30 3 C 4.450178 3.242869 3.315256 0
M  V30 4 C 4.260819 2.271706 2.327526 0
M  V30 5 C 4.667944 2.419087 0.941132 0
M  V30 6 N 5.891169 2.910711 0.620102 0
M  V30 7 N 5.985945 2.931777 -0.699955 0
M  V30 8 C 4.837932 2.458981 -1.260473 0
M  V30 9 C 4.366053 2.249740 -2.546535 0
M  V30 10 C 3.085230 1.727232 -2.747461 0
M  V30 11 C 2.252218 1.403792 -1.699825 0
M  V30 12 C 0.938570 0.866111 -1.987832 0
M  V30 13 O 0.646121 0.723778 -3.215934 0
M  V30 14 N 0.017681 0.512995 -0.967322 0
M  V30 15 C -1.316056 -0.030813 -1.123977 0 CFG=2
M  V30 16 C -2.361367 0.932715 -0.543621 0
M  V30 17 C -3.698787 0.398824 -0.938683 0
M  V30 18 C -3.775779 -1.049520 -1.255045 0 CFG=1
M  V30 19 C -3.891180 -1.280818 -2.725025 0
M  V30 20 O -4.802236 -0.482514 -3.141726 0
M  V30 21 N -3.188504 -2.172277 -3.580810 0
M  V30 22 C -2.128899 -3.150690 -3.283053 0
M  V30 23 C -3.569473 -2.118129 -4.979682 0
M  V30 24 N -2.799979 -1.850501 -0.603937 0
M  V30 25 C -3.316711 -2.806300 0.321164 0
M  V30 26 C -2.173067 -3.583384 0.902333 0
M  V30 27 C -2.611811 -4.610357 1.880098 0
M  V30 28 C -2.912239 -5.876278 1.425747 0
M  V30 29 C -3.333325 -6.931460 2.235460 0
M  V30 30 C -3.461221 -6.695752 3.599240 0
M  V30 31 C -3.164957 -5.424763 4.091587 0
M  V30 32 C -2.753981 -4.425850 3.239490 0
M  V30 33 C -1.529726 -1.304397 -0.331204 0
M  V30 34 C 2.721648 1.611928 -0.414610 0
M  V30 35 C 3.979861 2.124825 -0.229153 0
M  V30 36 C 3.646670 1.119715 2.737050 0
M  V30 37 C 3.223462 0.897531 4.053241 0
M  V30 38 N 3.432123 1.869646 4.964992 0
M  V30 39 H 3.397882 3.968680 6.418524 0
M  V30 40 H 4.156378 5.060984 5.256644 0
M  V30 41 H 5.170334 3.896312 6.208105 0
M  V30 42 H 4.929928 4.160981 3.028318 0
M  V30 43 H 6.793813 3.251648 -1.279586 0
M  V30 44 H 5.045126 2.514678 -3.339057 0
M  V30 45 H 2.801313 1.597609 -3.771916 0
M  V30 46 H 0.253807 0.628542 0.041181 0
M  V30 47 H -1.620641 -0.186350 -2.160771 0
M  V30 48 H -2.114748 1.917214 -0.970939 0
M  V30 49 H -2.225930 1.002306 0.553266 0
M  V30 50 H -4.437811 0.711395 -0.155262 0
M  V30 51 H -4.004943 0.980359 -1.853464 0
M  V30 52 H -4.768787 -1.407153 -0.841959 0
M  V30 53 H -2.085230 -3.425273 -2.225320 0
M  V30 54 H -2.253555 -4.040779 -3.941892 0
M  V30 55 H -1.179841 -2.666819 -3.596408 0
M  V30 56 H -2.644206 -2.217522 -5.583504 0
M  V30 57 H -4.122109 -1.189454 -5.246045 0
M  V30 58 H -4.237748 -2.958273 -5.266326 0
M  V30 59 H -4.015218 -3.484629 -0.199416 0
M  V30 60 H -3.837842 -2.298636 1.167724 0
M  V30 61 H -1.446434 -2.943210 1.405992 0
M  V30 62 H -1.612822 -4.134575 0.098837 0
M  V30 63 H -2.817482 -6.074383 0.363857 0
M  V30 64 H -3.560128 -7.909292 1.845525 0
M  V30 65 H -3.784286 -7.485069 4.261802 0
M  V30 66 H -3.266496 -5.247115 5.153958 0
M  V30 67 H -2.516919 -3.420077 3.613289 0
M  V30 68 H -1.529133 -1.018288 0.762771 0
M  V30 69 H -0.709427 -2.039018 -0.444376 0
M  V30 70 H 2.104209 1.373880 0.432294 0
M  V30 71 H 3.430260 0.279591 2.100461 0
M  V30 72 H 2.735886 -0.018991 4.375423 0
M  V30 END ATOM
M  V30 BEGIN BOND
M  V30 1 1 1 2
M  V30 2 2 2 3
M  V30 3 1 3 4
M  V30 4 1 4 5
M  V30 5 2 5 6
M  V30 6 1 6 7
M  V30 7 1 7 8
M  V30 8 2 8 9
M  V30 9 1 9 10
M  V30 10 2 10 11
M  V30 11 1 11 12
M  V30 12 2 12 13
M  V30 13 1 12 14
M  V30 14 1 14 15
M  V30 15 1 15 16
M  V30 16 1 16 17
M  V30 17 1 17 18
M  V30 18 1 18 19
M  V30 19 2 19 20
M  V30 20 1 19 21
M  V30 21 1 21 22
M  V30 22 1 21 23
M  V30 23 1 18 24
M  V30 24 1 24 25
M  V30 25 1 25 26
M  V30 26 1 26 27
M  V30 27 2 27 28
M  V30 28 1 28 29
M  V30 29 2 29 30
M  V30 30 1 30 31
M  V30 31 2 31 32
M  V30 32 1 24 33
M  V30 33 1 11 34
M  V30 34 2 34 35
M  V30 35 2 4 36
M  V30 36 1 36 37
M  V30 37 2 37 38
M  V30 38 1 38 2
M  V30 39 1 35 5
M  V30 40 1 35 8
M  V30 41 1 33 15
M  V30 42 1 32 27
M  V30 43 1 1 39
M  V30 44 1 1 40
M  V30 45 1 1 41
M  V30 46 1 3 42
M  V30 47 1 7 43
M  V30 48 1 9 44
M  V30 49 1 10 45
M  V30 50 1 14 46
M  V30 51 1 15 47 CFG=3
M  V30 52 1 16 48
M  V30 53 1 16 49
M  V30 54 1 17 50
M  V30 55 1 17 51
M  V30 56 1 18 52 CFG=1
M  V30 57 1 22 53
M  V30 58 1 22 54
M  V30 59 1 22 55
M  V30 60 1 23 56
M  V30 61 1 23 57
M  V30 62 1 23 58
M  V30 63 1 25 59
M  V30 64 1 25 60
M  V30 65 1 26 61
M  V30 66 1 26 62
M  V30 67 1 28 63
M  V30 68 1 29 64
M  V30 69 1 30 65
M  V30 70 1 31 66
M  V30 71 1 32 67
M  V30 72 1 33 68
M  V30 73 1 33 69
M  V30 74 1 34 70
M  V30 75 1 36 71
M  V30 76 1 37 72
M  V30 END BOND
M  V30 END CTAB
M  END
>  <Dataset>  (564) 
ChEMBL_Kinases

>  <Ligand_Instance>  (564) 
nan

>  <PDB_ID>  (564) 
nan

>  <Standardized_SMILES>  (564) 
Cc1cc(-c2n[nH]c3ccc(C(=O)N[C@@H]4CC[C@@H](C(=O)N(C)C)N(CCc5ccccc5)C4)cc23)ccn1

>  <Name>  (564) 
nan

>  <Pocket>  (564) 
nan

>  <ATP_Site>  (564) 
nan

>  <Peripheral>  (564) 
nan

>  <Num_H_Atoms_ProtBoundConf>  (564) 
nan

>  <Num_Resolved_Atoms>  (564) 
nan

>  <Num_Not_Resolved_Atoms>  (564) 
nan

$$$$
CHEMBL3654663
     RDKit          3D

  0  0  0  0  0  0  0  0  0  0999 V3000
M  V30 BEGIN CTAB
M  V30 COUNTS 78 82 0 0 0
M  V30 BEGIN ATOM
M  V30 1 C 0.135813 -5.681352 -3.396370 0
M  V30 2 C 1.338029 -4.895306 -3.071566 0
M  V30 3 N 1.654958 -3.784639 -3.959183 0
M  V30 4 C 2.476390 -4.149111 -5.118972 0
M  V30 5 C 3.946410 -4.016299 -4.789261 0
M  V30 6 C 1.339699 -2.375337 -3.970779 0
M  V30 7 O 1.697022 -1.508287 -4.830498 0
M  V30 8 C 0.513544 -1.714775 -2.919048 0 CFG=2
M  V30 9 C -0.930124 -1.973840 -3.443536 0
M  V30 10 C -1.970119 -1.593476 -2.442639 0
M  V30 11 C -1.673606 -0.187074 -1.898184 0 CFG=1
M  V30 12 N -1.252331 -0.264759 -0.517563 0
M  V30 13 C -1.892564 0.336064 0.599403 0
M  V30 14 O -2.932736 0.991645 0.271819 0
M  V30 15 C -1.419444 0.219647 1.973096 0
M  V30 16 C -0.289549 -0.473794 2.375956 0
M  V30 17 C 0.111115 -0.555360 3.693405 0
M  V30 18 C -0.684635 0.102956 4.624461 0
M  V30 19 N -0.505595 0.166469 5.947868 0
M  V30 20 N -1.500686 0.891529 6.427303 0
M  V30 21 C -2.333489 1.308802 5.448066 0
M  V30 22 C -3.538051 2.123352 5.585619 0
M  V30 23 C -4.742125 1.872687 4.955916 0
M  V30 24 C -5.807218 2.727019 5.177761 0
M  V30 25 N -5.692889 3.805066 6.000491 0
M  V30 26 C -4.536527 4.084626 6.633198 0
M  V30 27 C -4.405077 5.276330 7.545457 0
M  V30 28 C -3.458127 3.240908 6.424237 0
M  V30 29 C -1.820382 0.807233 4.271495 0
M  V30 30 C -2.178350 0.858551 2.939906 0
M  V30 31 C -0.637804 0.358854 -2.814836 0
M  V30 32 N 0.614126 -0.367835 -2.754339 0
M  V30 33 C 1.652511 0.500502 -2.755018 0
M  V30 34 C 3.072758 0.206356 -2.576708 0
M  V30 35 C 3.385543 -0.423194 -1.251851 0
M  V30 36 C 3.437348 -1.794391 -0.974765 0
M  V30 37 C 3.732956 -2.222528 0.299587 0
M  V30 38 C 3.988590 -1.379608 1.351525 0
M  V30 39 C 3.951996 -0.005803 1.139336 0
M  V30 40 C 3.653783 0.389997 -0.145908 0
M  V30 41 H -0.816022 -5.372904 -2.935609 0
M  V30 42 H -0.060548 -5.807277 -4.480360 0
M  V30 43 H 0.292914 -6.738498 -3.026120 0
M  V30 44 H 1.257887 -4.508003 -2.001762 0
M  V30 45 H 2.213887 -5.569321 -3.050246 0
M  V30 46 H 2.221354 -5.195989 -5.443121 0
M  V30 47 H 2.297440 -3.511216 -5.999340 0
M  V30 48 H 4.424878 -3.130891 -5.253519 0
M  V30 49 H 4.449668 -4.926478 -5.197813 0
M  V30 50 H 4.136018 -3.931387 -3.699715 0
M  V30 51 H 0.573022 -2.315763 -2.017661 0
M  V30 52 H -1.090352 -1.480652 -4.416792 0
M  V30 53 H -0.996961 -3.071119 -3.555073 0
M  V30 54 H -2.986062 -1.540992 -2.871781 0
M  V30 55 H -2.027982 -2.287179 -1.581650 0
M  V30 56 H -2.569087 0.455116 -1.943053 0
M  V30 57 H -0.390082 -0.822357 -0.362902 0
M  V30 58 H 0.290825 -0.966027 1.590006 0
M  V30 59 H 1.000303 -1.111007 3.937570 0
M  V30 60 H 0.231009 -0.237913 6.556264 0
M  V30 61 H -4.797385 1.000121 4.302478 0
M  V30 62 H -6.762196 2.532689 4.681889 0
M  V30 63 H -3.317946 5.499996 7.593694 0
M  V30 64 H -4.713355 5.062245 8.575024 0
M  V30 65 H -4.956713 6.122130 7.090942 0
M  V30 66 H -2.527090 3.495911 6.954894 0
M  V30 67 H -3.073122 1.417905 2.688454 0
M  V30 68 H -1.039358 0.435517 -3.827443 0
M  V30 69 H -0.460308 1.426263 -2.486016 0
M  V30 70 H 1.426231 1.330719 -2.008030 0
M  V30 71 H 1.567497 1.098160 -3.728314 0
M  V30 72 H 3.615623 -0.358769 -3.331868 0
M  V30 73 H 3.648859 1.187690 -2.535089 0
M  V30 74 H 3.236593 -2.440241 -1.808127 0
M  V30 75 H 3.762404 -3.309686 0.467880 0
M  V30 76 H 4.220230 -1.707473 2.347904 0
M  V30 77 H 4.134855 0.753910 1.888182 0
M  V30 78 H 3.616762 1.470478 -0.346741 0
M  V30 END ATOM
M  V30 BEGIN BOND
M  V30 1 1 1 2
M  V30 2 1 2 3
M  V30 3 1 3 4
M  V30 4 1 4 5
M  V30 5 1 3 6
M  V30 6 2 6 7
M  V30 7 1 6 8
M  V30 8 1 8 9
M  V30 9 1 9 10
M  V30 10 1 10 11
M  V30 11 1 11 12
M  V30 12 1 12 13
M  V30 13 2 13 14
M  V30 14 1 13 15
M  V30 15 2 15 16
M  V30 16 1 16 17
M  V30 17 2 17 18
M  V30 18 1 18 19
M  V30 19 1 19 20
M  V30 20 2 20 21
M  V30 21 1 21 22
M  V30 22 2 22 23
M  V30 23 1 23 24
M  V30 24 2 24 25
M  V30 25 1 25 26
M  V30 26 1 26 27
M  V30 27 2 26 28
M  V30 28 1 21 29
M  V30 29 2 29 30
M  V30 30 1 11 31
M  V30 31 1 31 32
M  V30 32 1 32 33
M  V30 33 1 33 34
M  V30 34 1 34 35
M  V30 35 2 35 36
M  V30 36 1 36 37
M  V30 37 2 37 38
M  V30 38 1 38 39
M  V30 39 2 39 40
M  V30 40 1 32 8
M  V30 41 1 40 35
M  V30 42 1 30 15
M  V30 43 1 29 18
M  V30 44 1 28 22
M  V30 45 1 1 41
M  V30 46 1 1 42
M  V30 47 1 1 43
M  V30 48 1 2 44
M  V30 49 1 2 45
M  V30 50 1 4 46
M  V30 51 1 4 47
M  V30 52 1 5 48
M  V30 53 1 5 49
M  V30 54 1 5 50
M  V30 55 1 8 51 CFG=1
M  V30 56 1 9 52
M  V30 57 1 9 53
M  V30 58 1 10 54
M  V30 59 1 10 55
M  V30 60 1 11 56 CFG=1
M  V30 61 1 12 57
M  V30 62 1 16 58
M  V30 63 1 17 59
M  V30 64 1 19 60
M  V30 65 1 23 61
M  V30 66 1 24 62
M  V30 67 1 27 63
M  V30 68 1 27 64
M  V30 69 1 27 65
M  V30 70 1 28 66
M  V30 71 1 30 67
M  V30 72 1 31 68
M  V30 73 1 31 69
M  V30 74 1 33 70
M  V30 75 1 33 71
M  V30 76 1 34 72
M  V30 77 1 34 73
M  V30 78 1 36 74
M  V30 79 1 37 75
M  V30 80 1 38 76
M  V30 81 1 39 77
M  V30 82 1 40 78
M  V30 END BOND
M  V30 END CTAB
M  END
>  <Dataset>  (565) 
ChEMBL_Kinases

>  <Ligand_Instance>  (565) 
nan

>  <PDB_ID>  (565) 
nan

>  <Standardized_SMILES>  (565) 
CCN(CC)C(=O)[C@@H]1CC[C@@H](NC(=O)c2ccc3[nH]nc(-c4ccnc(C)c4)c3c2)CN1CCc1ccccc1

>  <Name>  (565) 
nan

>  <Pocket>  (565) 
nan

>  <ATP_Site>  (565) 
nan

>  <Peripheral>  (565) 
nan

>  <Num_H_Atoms_ProtBoundConf>  (565) 
nan

>  <Num_Resolved_Atoms>  (565) 
nan

>  <Num_Not_Resolved_Atoms>  (565) 
nan

$$$$
CHEMBL3654664
     RDKit          3D

  0  0  0  0  0  0  0  0  0  0999 V3000
M  V30 BEGIN CTAB
M  V30 COUNTS 73 78 0 0 0
M  V30 BEGIN ATOM
M  V30 1 C 5.482419 -1.141155 5.484396 0
M  V30 2 C 5.183169 -1.010775 4.024533 0
M  V30 3 C 5.314497 -2.109280 3.187281 0
M  V30 4 C 5.017988 -1.905520 1.849049 0
M  V30 5 C 5.173499 -3.094983 1.018376 0
M  V30 6 N 6.164146 -3.981946 0.998819 0
M  V30 7 N 5.920614 -4.933938 0.085365 0
M  V30 8 C 4.751337 -4.697318 -0.527162 0
M  V30 9 C 4.065701 -5.373778 -1.526487 0
M  V30 10 C 2.836454 -4.870619 -1.971373 0
M  V30 11 C 2.332893 -3.711980 -1.406130 0
M  V30 12 C 1.048896 -3.228529 -1.901399 0
M  V30 13 O 0.470146 -3.900716 -2.779959 0
M  V30 14 N 0.442202 -2.036941 -1.425310 0
M  V30 15 C -0.784393 -1.389228 -1.757836 0 CFG=2
M  V30 16 C -0.557564 -0.092814 -2.540612 0
M  V30 17 C -1.943789 0.289166 -3.064786 0
M  V30 18 C -2.968367 0.391847 -1.965590 0 CFG=1
M  V30 19 C -4.277420 -0.183704 -2.374652 0
M  V30 20 O -4.922232 -0.020344 -3.441656 0
M  V30 21 N -5.167681 -1.061742 -1.710194 0
M  V30 22 C -6.415424 -1.503051 -2.313801 0
M  V30 23 C -6.537633 -2.632027 -1.310098 0
M  V30 24 F -6.113943 -3.839566 -1.821506 0
M  V30 25 F -7.732838 -2.663493 -0.637397 0
M  V30 26 C -5.485643 -1.855646 -0.532300 0
M  V30 27 N -2.510590 -0.036572 -0.691217 0
M  V30 28 C -2.168274 1.019896 0.191833 0
M  V30 29 C -3.317068 1.856881 0.683145 0
M  V30 30 C -2.777916 2.912602 1.592139 0
M  V30 31 C -2.626891 2.762027 2.952074 0
M  V30 32 C -2.112724 3.808928 3.723582 0
M  V30 33 C -1.753260 4.995989 3.136089 0
M  V30 34 C -1.897015 5.165041 1.777641 0
M  V30 35 C -2.407530 4.122967 1.017715 0
M  V30 36 C -1.742888 -1.222246 -0.626742 0
M  V30 37 C 3.057772 -3.080086 -0.415042 0
M  V30 38 C 4.272775 -3.533865 0.058912 0
M  V30 39 C 4.619161 -0.653172 1.436217 0
M  V30 40 C 4.507550 0.400553 2.317877 0
M  V30 41 N 4.788720 0.232512 3.623148 0
M  V30 42 H 6.533845 -0.928445 5.686885 0
M  V30 43 H 4.847147 -0.414301 6.065093 0
M  V30 44 H 5.281181 -2.193545 5.838697 0
M  V30 45 H 5.637736 -3.040494 3.643947 0
M  V30 46 H 6.598283 -5.716317 -0.064593 0
M  V30 47 H 4.480194 -6.266025 -1.943842 0
M  V30 48 H 2.365814 -5.452626 -2.749559 0
M  V30 49 H 0.910095 -1.459782 -0.691338 0
M  V30 50 H -1.286794 -2.050964 -2.526534 0
M  V30 51 H -0.107938 0.702118 -1.953657 0
M  V30 52 H 0.023712 -0.396943 -3.435842 0
M  V30 53 H -1.879980 1.229543 -3.648266 0
M  V30 54 H -2.306085 -0.476221 -3.790274 0
M  V30 55 H -3.181095 1.500649 -1.857265 0
M  V30 56 H -7.251420 -0.790372 -2.176299 0
M  V30 57 H -6.361669 -1.886997 -3.341368 0
M  V30 58 H -5.888288 -1.235548 0.285724 0
M  V30 59 H -4.708759 -2.558536 -0.193777 0
M  V30 60 H -1.377102 1.698698 -0.189698 0
M  V30 61 H -1.717096 0.550938 1.112817 0
M  V30 62 H -4.007142 1.188051 1.250511 0
M  V30 63 H -3.890753 2.295692 -0.136735 0
M  V30 64 H -2.912044 1.830716 3.396567 0
M  V30 65 H -1.992773 3.692373 4.794926 0
M  V30 66 H -1.360039 5.780979 3.762516 0
M  V30 67 H -1.597232 6.118613 1.370945 0
M  V30 68 H -2.485428 4.345380 -0.037379 0
M  V30 69 H -2.382741 -2.152018 -0.579750 0
M  V30 70 H -1.226940 -1.222895 0.374095 0
M  V30 71 H 2.672020 -2.178244 0.028588 0
M  V30 72 H 4.402100 -0.553317 0.387820 0
M  V30 73 H 4.181069 1.340836 1.863233 0
M  V30 END ATOM
M  V30 BEGIN BOND
M  V30 1 1 1 2
M  V30 2 2 2 3
M  V30 3 1 3 4
M  V30 4 1 4 5
M  V30 5 2 5 6
M  V30 6 1 6 7
M  V30 7 1 7 8
M  V30 8 2 8 9
M  V30 9 1 9 10
M  V30 10 2 10 11
M  V30 11 1 11 12
M  V30 12 2 12 13
M  V30 13 1 12 14
M  V30 14 1 14 15
M  V30 15 1 15 16
M  V30 16 1 16 17
M  V30 17 1 17 18
M  V30 18 1 18 19
M  V30 19 2 19 20
M  V30 20 1 19 21
M  V30 21 1 21 22
M  V30 22 1 22 23
M  V30 23 1 23 24
M  V30 24 1 23 25
M  V30 25 1 23 26
M  V30 26 1 18 27
M  V30 27 1 27 28
M  V30 28 1 28 29
M  V30 29 1 29 30
M  V30 30 2 30 31
M  V30 31 1 31 32
M  V30 32 2 32 33
M  V30 33 1 33 34
M  V30 34 2 34 35
M  V30 35 1 27 36
M  V30 36 1 11 37
M  V30 37 2 37 38
M  V30 38 2 4 39
M  V30 39 1 39 40
M  V30 40 2 40 41
M  V30 41 1 41 2
M  V30 42 1 38 5
M  V30 43 1 38 8
M  V30 44 1 36 15
M  V30 45 1 26 21
M  V30 46 1 35 30
M  V30 47 1 1 42
M  V30 48 1 1 43
M  V30 49 1 1 44
M  V30 50 1 3 45
M  V30 51 1 7 46
M  V30 52 1 9 47
M  V30 53 1 10 48
M  V30 54 1 14 49
M  V30 55 1 15 50 CFG=3
M  V30 56 1 16 51
M  V30 57 1 16 52
M  V30 58 1 17 53
M  V30 59 1 17 54
M  V30 60 1 18 55 CFG=1
M  V30 61 1 22 56
M  V30 62 1 22 57
M  V30 63 1 26 58
M  V30 64 1 26 59
M  V30 65 1 28 60
M  V30 66 1 28 61
M  V30 67 1 29 62
M  V30 68 1 29 63
M  V30 69 1 31 64
M  V30 70 1 32 65
M  V30 71 1 33 66
M  V30 72 1 34 67
M  V30 73 1 35 68
M  V30 74 1 36 69
M  V30 75 1 36 70
M  V30 76 1 37 71
M  V30 77 1 39 72
M  V30 78 1 40 73
M  V30 END BOND
M  V30 END CTAB
M  END
>  <Dataset>  (566) 
ChEMBL_Kinases

>  <Ligand_Instance>  (566) 
nan

>  <PDB_ID>  (566) 
nan

>  <Standardized_SMILES>  (566) 
Cc1cc(-c2n[nH]c3ccc(C(=O)N[C@@H]4CC[C@@H](C(=O)N5CC(F)(F)C5)N(CCc5ccccc5)C4)cc23)ccn1

>  <Name>  (566) 
nan

>  <Pocket>  (566) 
nan

>  <ATP_Site>  (566) 
nan

>  <Peripheral>  (566) 
nan

>  <Num_H_Atoms_ProtBoundConf>  (566) 
nan

>  <Num_Resolved_Atoms>  (566) 
nan

>  <Num_Not_Resolved_Atoms>  (566) 
nan

$$$$
CHEMBL3654680
     RDKit          3D

  0  0  0  0  0  0  0  0  0  0999 V3000
M  V30 BEGIN CTAB
M  V30 COUNTS 46 49 0 0 0
M  V30 BEGIN ATOM
M  V30 1 C -0.759720 -5.411406 2.124424 0
M  V30 2 C -1.220405 -4.406004 1.112929 0 CFG=1
M  V30 3 N -0.141178 -3.796211 0.373019 0
M  V30 4 C 0.102530 -2.380097 0.439615 0
M  V30 5 O -0.674610 -1.732484 1.171045 0
M  V30 6 N 1.155380 -1.732221 -0.272516 0
M  V30 7 C 1.271464 -0.323065 -0.106527 0
M  V30 8 C 0.673439 0.673516 -0.853441 0
M  V30 9 C 0.928622 1.987036 -0.511962 0
M  V30 10 N 0.460062 3.107469 -1.092748 0
M  V30 11 N 0.970794 4.150773 -0.430066 0
M  V30 12 C 1.761610 3.694111 0.568930 0
M  V30 13 C 2.548328 4.409638 1.578052 0
M  V30 14 C 3.853350 4.202964 2.021527 0
M  V30 15 N 4.094499 5.150721 2.974010 0
M  V30 16 N 2.999541 5.913973 3.122720 0
M  V30 17 C 2.900449 7.023045 4.054450 0
M  V30 18 C 2.034901 5.489934 2.285625 0
M  V30 19 C 1.760231 2.294593 0.548869 0
M  V30 20 C 2.340238 1.273153 1.272563 0
M  V30 21 N 2.091224 -0.026828 0.939098 0
M  V30 22 C -2.152213 -4.986253 0.110190 0
M  V30 23 C -1.719613 -5.719109 -0.975877 0
M  V30 24 C -2.620006 -6.240834 -1.884456 0
M  V30 25 C -3.989725 -6.051683 -1.745113 0
M  V30 26 C -4.424695 -5.318559 -0.658896 0
M  V30 27 C -3.521352 -4.801340 0.243039 0
M  V30 28 H -0.136544 -6.197330 1.679808 0
M  V30 29 H -1.670742 -5.901146 2.530707 0
M  V30 30 H -0.299021 -4.864630 2.969493 0
M  V30 31 H -1.743083 -3.601530 1.672155 0
M  V30 32 H 0.489255 -4.376401 -0.230384 0
M  V30 33 H 1.713268 -2.399276 -0.834540 0
M  V30 34 H 0.045321 0.313146 -1.656361 0
M  V30 35 H -0.186867 3.178894 -1.913929 0
M  V30 36 H 4.447598 3.412943 1.609018 0
M  V30 37 H 3.474349 6.824928 4.997597 0
M  V30 38 H 1.823326 7.097989 4.382813 0
M  V30 39 H 3.220209 7.982554 3.589869 0
M  V30 40 H 1.051206 5.957532 2.226652 0
M  V30 41 H 2.988513 1.558343 2.100124 0
M  V30 42 H -0.651621 -5.890031 -1.120815 0
M  V30 43 H -2.317187 -6.826335 -2.756955 0
M  V30 44 H -4.749343 -6.430111 -2.416077 0
M  V30 45 H -5.489476 -5.115793 -0.464303 0
M  V30 46 H -3.844008 -4.215049 1.114524 0
M  V30 END ATOM
M  V30 BEGIN BOND
M  V30 1 1 1 2
M  V30 2 1 2 3
M  V30 3 1 3 4
M  V30 4 2 4 5
M  V30 5 1 4 6
M  V30 6 1 6 7
M  V30 7 2 7 8
M  V30 8 1 8 9
M  V30 9 1 9 10
M  V30 10 1 10 11
M  V30 11 2 11 12
M  V30 12 1 12 13
M  V30 13 1 13 14
M  V30 14 2 14 15
M  V30 15 1 15 16
M  V30 16 1 16 17
M  V30 17 1 16 18
M  V30 18 1 12 19
M  V30 19 1 19 20
M  V30 20 2 20 21
M  V30 21 1 2 22
M  V30 22 2 22 23
M  V30 23 1 23 24
M  V30 24 2 24 25
M  V30 25 1 25 26
M  V30 26 2 26 27
M  V30 27 1 21 7
M  V30 28 1 27 22
M  V30 29 2 19 9
M  V30 30 2 18 13
M  V30 31 1 1 28
M  V30 32 1 1 29
M  V30 33 1 1 30
M  V30 34 1 2 31 CFG=1
M  V30 35 1 3 32
M  V30 36 1 6 33
M  V30 37 1 8 34
M  V30 38 1 10 35
M  V30 39 1 14 36
M  V30 40 1 17 37
M  V30 41 1 17 38
M  V30 42 1 17 39
M  V30 43 1 18 40
M  V30 44 1 20 41
M  V30 45 1 23 42
M  V30 46 1 24 43
M  V30 47 1 25 44
M  V30 48 1 26 45
M  V30 49 1 27 46
M  V30 END BOND
M  V30 END CTAB
M  END
>  <Dataset>  (567) 
ChEMBL_Kinases

>  <Ligand_Instance>  (567) 
nan

>  <PDB_ID>  (567) 
nan

>  <Standardized_SMILES>  (567) 
C[C@@H](NC(=O)Nc1cc2[nH]nc(-c3cnn(C)c3)c2cn1)c1ccccc1

>  <Name>  (567) 
nan

>  <Pocket>  (567) 
nan

>  <ATP_Site>  (567) 
nan

>  <Peripheral>  (567) 
nan

>  <Num_H_Atoms_ProtBoundConf>  (567) 
nan

>  <Num_Resolved_Atoms>  (567) 
nan

>  <Num_Not_Resolved_Atoms>  (567) 
nan

$$$$
CHEMBL3654666
     RDKit          3D

  0  0  0  0  0  0  0  0  0  0999 V3000
M  V30 BEGIN CTAB
M  V30 COUNTS 82 87 0 0 0
M  V30 BEGIN ATOM
M  V30 1 C 3.444320 -4.385362 0.954612 0
M  V30 2 C 4.067929 -3.558956 -0.119085 0
M  V30 3 N 3.286414 -2.379829 -0.490139 0
M  V30 4 C 2.319678 -2.619909 -1.554371 0
M  V30 5 C 0.982258 -3.101930 -0.967352 0
M  V30 6 C 3.509031 -1.146619 0.209842 0
M  V30 7 O 4.309498 -1.842087 0.865760 0
M  V30 8 C 2.755635 0.067217 -0.202491 0 CFG=2
M  V30 9 C 3.476972 0.515332 -1.498462 0
M  V30 10 C 2.542943 1.394215 -2.270268 0
M  V30 11 C 2.000482 2.413013 -1.307622 0 CFG=1
M  V30 12 N 0.581737 2.324211 -1.102909 0
M  V30 13 C -0.297644 3.418101 -1.319546 0
M  V30 14 O 0.248054 4.508881 -1.712331 0
M  V30 15 C -1.740615 3.461057 -1.151100 0
M  V30 16 C -2.380277 4.647914 -1.314067 0
M  V30 17 C -3.755048 4.792029 -1.173869 0
M  V30 18 C -4.543214 3.720735 -0.857691 0
M  V30 19 N -5.860553 3.517130 -0.651799 0
M  V30 20 N -6.065983 2.221495 -0.361880 0
M  V30 21 C -4.884831 1.615231 -0.385785 0
M  V30 22 C -4.792872 0.190747 -0.112226 0
M  V30 23 C -5.364621 -0.568995 0.896297 0
M  V30 24 C -5.204873 -1.910867 1.015836 0
M  V30 25 C -4.444124 -2.630685 0.119658 0
M  V30 26 N -4.221509 -3.927909 0.130531 0
M  V30 27 C -3.592213 -4.537874 -0.612531 0
M  V30 28 C -3.040153 -5.892805 -1.061255 0
M  V30 29 S -3.007390 -3.167248 -1.793669 0
M  V30 30 C -3.876965 -1.874572 -0.881305 0
M  V30 31 C -4.021815 -0.491238 -1.031944 0
M  V30 32 C -3.880500 2.506637 -0.692202 0
M  V30 33 C -2.518536 2.369813 -0.832736 0
M  V30 34 C 2.776677 2.461796 -0.020028 0
M  V30 35 N 2.852811 1.178481 0.676905 0
M  V30 36 C 1.999256 1.188234 1.825949 0
M  V30 37 C 2.118073 -0.040303 2.615662 0
M  V30 38 C 3.298486 -0.133825 3.364065 0
M  V30 39 F 4.264468 0.834434 3.328591 0
M  V30 40 C 3.573028 -1.221205 4.197508 0
M  V30 41 C 2.626229 -2.232754 4.269020 0
M  V30 42 C 1.473934 -2.125688 3.528601 0
M  V30 43 C 1.181247 -1.068217 2.703155 0
M  V30 44 O 0.042637 -0.907106 1.939216 0
M  V30 45 C -1.030129 -1.830117 1.888182 0
M  V30 46 H 2.904139 -5.295996 0.573507 0
M  V30 47 H 4.287397 -4.721619 1.629668 0
M  V30 48 H 2.746726 -3.864843 1.618696 0
M  V30 49 H 4.135848 -4.226058 -1.029602 0
M  V30 50 H 5.138474 -3.315064 0.088305 0
M  V30 51 H 2.665175 -3.425061 -2.232606 0
M  V30 52 H 2.143606 -1.748035 -2.207439 0
M  V30 53 H 0.525036 -2.235606 -0.490689 0
M  V30 54 H 1.135416 -3.886433 -0.208606 0
M  V30 55 H 0.353441 -3.542617 -1.773264 0
M  V30 56 H 1.711711 -0.151334 -0.433304 0
M  V30 57 H 4.342634 1.148415 -1.136604 0
M  V30 58 H 3.924652 -0.306827 -2.045099 0
M  V30 59 H 1.750835 0.809347 -2.765648 0
M  V30 60 H 3.138446 1.863016 -3.101668 0
M  V30 61 H 2.164463 3.430410 -1.773031 0
M  V30 62 H 0.017296 1.490315 -0.783222 0
M  V30 63 H -1.880567 5.573012 -1.564855 0
M  V30 64 H -4.254016 5.751000 -1.307254 0
M  V30 65 H -6.613283 4.252555 -0.708059 0
M  V30 66 H -5.958914 0.054094 1.580764 0
M  V30 67 H -5.745830 -2.302583 1.886446 0
M  V30 68 H -3.543641 -6.629311 -0.416231 0
M  V30 69 H -3.336641 -6.067946 -2.117149 0
M  V30 70 H -1.941882 -5.897468 -1.006767 0
M  V30 71 H -3.477319 -0.107687 -1.903493 0
M  V30 72 H -2.052327 1.406379 -0.693386 0
M  V30 73 H 3.787557 2.835585 -0.241019 0
M  V30 74 H 2.220220 3.179315 0.635918 0
M  V30 75 H 0.935283 1.405139 1.571830 0
M  V30 76 H 2.303853 2.034632 2.512355 0
M  V30 77 H 4.489405 -1.264114 4.759736 0
M  V30 78 H 2.804881 -3.105518 4.913528 0
M  V30 79 H 0.725261 -2.920928 3.582296 0
M  V30 80 H -1.736193 -1.539977 1.068390 0
M  V30 81 H -0.690088 -2.853075 1.623925 0
M  V30 82 H -1.635367 -1.834881 2.816620 0
M  V30 END ATOM
M  V30 BEGIN BOND
M  V30 1 1 1 2
M  V30 2 1 2 3
M  V30 3 1 3 4
M  V30 4 1 4 5
M  V30 5 1 3 6
M  V30 6 2 6 7
M  V30 7 1 6 8
M  V30 8 1 8 9
M  V30 9 1 9 10
M  V30 10 1 10 11
M  V30 11 1 11 12
M  V30 12 1 12 13
M  V30 13 2 13 14
M  V30 14 1 13 15
M  V30 15 2 15 16
M  V30 16 1 16 17
M  V30 17 2 17 18
M  V30 18 1 18 19
M  V30 19 1 19 20
M  V30 20 2 20 21
M  V30 21 1 21 22
M  V30 22 2 22 23
M  V30 23 1 23 24
M  V30 24 2 24 25
M  V30 25 1 25 26
M  V30 26 2 26 27
M  V30 27 1 27 28
M  V30 28 1 27 29
M  V30 29 1 29 30
M  V30 30 2 30 31
M  V30 31 1 21 32
M  V30 32 2 32 33
M  V30 33 1 11 34
M  V30 34 1 34 35
M  V30 35 1 35 36
M  V30 36 1 36 37
M  V30 37 2 37 38
M  V30 38 1 38 39
M  V30 39 1 38 40
M  V30 40 2 40 41
M  V30 41 1 41 42
M  V30 42 2 42 43
M  V30 43 1 43 44
M  V30 44 1 44 45
M  V30 45 1 35 8
M  V30 46 1 43 37
M  V30 47 1 33 15
M  V30 48 1 32 18
M  V30 49 1 31 22
M  V30 50 1 30 25
M  V30 51 1 1 46
M  V30 52 1 1 47
M  V30 53 1 1 48
M  V30 54 1 2 49
M  V30 55 1 2 50
M  V30 56 1 4 51
M  V30 57 1 4 52
M  V30 58 1 5 53
M  V30 59 1 5 54
M  V30 60 1 5 55
M  V30 61 1 8 56 CFG=3
M  V30 62 1 9 57
M  V30 63 1 9 58
M  V30 64 1 10 59
M  V30 65 1 10 60
M  V30 66 1 11 61 CFG=3
M  V30 67 1 12 62
M  V30 68 1 16 63
M  V30 69 1 17 64
M  V30 70 1 19 65
M  V30 71 1 23 66
M  V30 72 1 24 67
M  V30 73 1 28 68
M  V30 74 1 28 69
M  V30 75 1 28 70
M  V30 76 1 31 71
M  V30 77 1 33 72
M  V30 78 1 34 73
M  V30 79 1 34 74
M  V30 80 1 36 75
M  V30 81 1 36 76
M  V30 82 1 40 77
M  V30 83 1 41 78
M  V30 84 1 42 79
M  V30 85 1 45 80
M  V30 86 1 45 81
M  V30 87 1 45 82
M  V30 END BOND
M  V30 END CTAB
M  END
>  <Dataset>  (568) 
ChEMBL_Kinases

>  <Ligand_Instance>  (568) 
nan

>  <PDB_ID>  (568) 
nan

>  <Standardized_SMILES>  (568) 
CCN(CC)C(=O)[C@@H]1CC[C@@H](NC(=O)c2ccc3[nH]nc(-c4ccc5nc(C)sc5c4)c3c2)CN1Cc1c(F)cccc1OC

>  <Name>  (568) 
nan

>  <Pocket>  (568) 
nan

>  <ATP_Site>  (568) 
nan

>  <Peripheral>  (568) 
nan

>  <Num_H_Atoms_ProtBoundConf>  (568) 
nan

>  <Num_Resolved_Atoms>  (568) 
nan

>  <Num_Not_Resolved_Atoms>  (568) 
nan

$$$$
CHEMBL3654667
     RDKit          3D

  0  0  0  0  0  0  0  0  0  0999 V3000
M  V30 BEGIN CTAB
M  V30 COUNTS 48 51 0 0 0
M  V30 BEGIN ATOM
M  V30 1 C 3.353012 -7.885502 3.839403 0
M  V30 2 C 2.858127 -7.144096 2.662665 0
M  V30 3 C 3.187530 -5.824645 2.555603 0
M  V30 4 C 2.720507 -5.110125 1.444534 0
M  V30 5 C 2.926348 -3.721297 1.065812 0
M  V30 6 N 4.098073 -3.026149 1.031311 0
M  V30 7 N 3.873393 -1.784817 0.636453 0
M  V30 8 C 2.553161 -1.668130 0.412427 0
M  V30 9 C 1.812081 -0.581688 -0.009812 0
M  V30 10 C 0.455614 -0.799982 -0.137940 0
M  V30 11 N -0.469695 0.157908 -0.555909 0
M  V30 12 C -1.390562 1.190089 -0.473954 0
M  V30 13 O -1.059230 1.042526 0.775104 0
M  V30 14 N -2.291740 2.200643 -0.391279 0
M  V30 15 C -2.824266 2.993571 0.657020 0 CFG=1
M  V30 16 C -2.598252 4.421587 0.287900 0
M  V30 17 C -2.948283 4.691653 -1.045318 0
M  V30 18 C -2.798771 5.968785 -1.566905 0
M  V30 19 C -2.306051 6.959006 -0.763311 0
M  V30 20 C -1.958535 6.712826 0.544051 0
M  V30 21 C -2.097348 5.462934 1.079242 0
M  V30 22 C -4.268503 2.724688 0.975693 0
M  V30 23 F -5.136002 2.937159 -0.067861 0
M  V30 24 F -4.379587 1.465534 1.520563 0
M  V30 25 F -4.632398 3.598365 1.983576 0
M  V30 26 N -0.156927 -1.971652 0.117119 0
M  V30 27 C 0.541246 -3.067210 0.536386 0
M  V30 28 C 1.893264 -2.862464 0.667490 0
M  V30 29 C 1.957113 -5.850009 0.559203 0
M  V30 30 C 1.630054 -7.186978 0.678065 0
M  V30 31 N 2.107416 -7.842844 1.780419 0
M  V30 32 H 4.331170 -7.511404 4.181590 0
M  V30 33 H 2.639415 -7.725305 4.688090 0
M  V30 34 H 3.411804 -8.987249 3.603018 0
M  V30 35 H 3.780924 -5.221169 3.223356 0
M  V30 36 H 4.559174 -0.987806 0.502676 0
M  V30 37 H 2.208771 0.385705 -0.236450 0
M  V30 38 H -0.762231 0.308866 -1.561483 0
M  V30 39 H -2.384953 2.105047 -1.461250 0
M  V30 40 H -2.269716 2.771367 1.592804 0
M  V30 41 H -3.343308 3.941614 -1.727031 0
M  V30 42 H -3.061729 6.197616 -2.582951 0
M  V30 43 H -2.183779 7.975453 -1.179876 0
M  V30 44 H -1.567819 7.475345 1.211701 0
M  V30 45 H -1.873002 5.115933 2.060241 0
M  V30 46 H 0.040160 -3.998812 0.742970 0
M  V30 47 H 1.529507 -5.450893 -0.357427 0
M  V30 48 H 1.038847 -7.761206 -0.003003 0
M  V30 END ATOM
M  V30 BEGIN BOND
M  V30 1 1 1 2
M  V30 2 2 2 3
M  V30 3 1 3 4
M  V30 4 1 4 5
M  V30 5 2 5 6
M  V30 6 1 6 7
M  V30 7 1 7 8
M  V30 8 2 8 9
M  V30 9 1 9 10
M  V30 10 1 10 11
M  V30 11 1 11 12
M  V30 12 2 12 13
M  V30 13 1 12 14
M  V30 14 1 14 15
M  V30 15 1 15 16
M  V30 16 2 16 17
M  V30 17 1 17 18
M  V30 18 2 18 19
M  V30 19 1 19 20
M  V30 20 2 20 21
M  V30 21 1 15 22
M  V30 22 1 22 23
M  V30 23 1 22 24
M  V30 24 1 22 25
M  V30 25 2 10 26
M  V30 26 1 26 27
M  V30 27 2 27 28
M  V30 28 2 4 29
M  V30 29 1 29 30
M  V30 30 2 30 31
M  V30 31 1 31 2
M  V30 32 1 28 5
M  V30 33 1 28 8
M  V30 34 1 21 16
M  V30 35 1 1 32
M  V30 36 1 1 33
M  V30 37 1 1 34
M  V30 38 1 3 35
M  V30 39 1 7 36
M  V30 40 1 9 37
M  V30 41 1 11 38
M  V30 42 1 14 39
M  V30 43 1 15 40 CFG=1
M  V30 44 1 17 41
M  V30 45 1 18 42
M  V30 46 1 19 43
M  V30 47 1 20 44
M  V30 48 1 21 45
M  V30 49 1 27 46
M  V30 50 1 29 47
M  V30 51 1 30 48
M  V30 END BOND
M  V30 END CTAB
M  END
>  <Dataset>  (569) 
ChEMBL_Kinases

>  <Ligand_Instance>  (569) 
nan

>  <PDB_ID>  (569) 
nan

>  <Standardized_SMILES>  (569) 
Cc1cc(-c2n[nH]c3cc(NC(=O)N[C@@H](c4ccccc4)C(F)(F)F)ncc23)ccn1

>  <Name>  (569) 
nan

>  <Pocket>  (569) 
nan

>  <ATP_Site>  (569) 
nan

>  <Peripheral>  (569) 
nan

>  <Num_H_Atoms_ProtBoundConf>  (569) 
nan

>  <Num_Resolved_Atoms>  (569) 
nan

>  <Num_Not_Resolved_Atoms>  (569) 
nan

$$$$
CHEMBL3654668
     RDKit          3D

  0  0  0  0  0  0  0  0  0  0999 V3000
M  V30 BEGIN CTAB
M  V30 COUNTS 49 52 0 0 0
M  V30 BEGIN ATOM
M  V30 1 C -1.187433 -7.266408 0.025632 0
M  V30 2 C 0.149487 -6.928997 -0.519083 0
M  V30 3 C 0.760070 -5.737706 -0.229170 0
M  V30 4 C 2.002220 -5.370422 -0.707330 0
M  V30 5 C 2.649538 -4.100092 -0.396175 0
M  V30 6 N 3.950197 -3.898860 -0.034615 0
M  V30 7 N 4.182549 -2.611674 0.170262 0
M  V30 8 C 3.016650 -1.979183 -0.062700 0
M  V30 9 C 2.761800 -0.623957 0.022814 0
M  V30 10 C 1.483871 -0.182024 -0.260722 0
M  V30 11 N 0.981735 1.157563 -0.241408 0
M  V30 12 C 0.445139 1.567125 1.031947 0
M  V30 13 O 0.386933 0.882582 2.063616 0
M  V30 14 N -0.070620 2.884566 1.123512 0
M  V30 15 C -0.652433 3.450410 2.354874 0 CFG=1
M  V30 16 C 0.219549 4.544365 2.849820 0
M  V30 17 O -0.307618 5.075928 4.014350 0
M  V30 18 C -2.067877 3.773568 2.173454 0
M  V30 19 C -2.707025 2.691843 1.551292 0
M  V30 20 C -4.074370 2.734918 1.254691 0
M  V30 21 C -4.832234 3.842460 1.565832 0
M  V30 22 C -4.189269 4.897888 2.177268 0
M  V30 23 C -2.844167 4.871904 2.476173 0
M  V30 24 N 0.536144 -1.075098 -0.607865 0
M  V30 25 C 0.748902 -2.401155 -0.701080 0
M  V30 26 C 2.021404 -2.866108 -0.421538 0
M  V30 27 C 2.598874 -6.310668 -1.516975 0
M  V30 28 C 1.998586 -7.522797 -1.823256 0
M  V30 29 N 0.775669 -7.811872 -1.314832 0
M  V30 30 H -1.656406 -6.379987 0.500438 0
M  V30 31 H -1.838682 -7.557977 -0.823666 0
M  V30 32 H -1.181652 -8.083056 0.762498 0
M  V30 33 H 0.224409 -5.053386 0.414723 0
M  V30 34 H 5.088826 -2.171599 0.455808 0
M  V30 35 H 3.446080 0.170109 0.290198 0
M  V30 36 H 0.971322 1.839727 -1.043125 0
M  V30 37 H -0.100792 3.598516 0.348210 0
M  V30 38 H -0.560723 2.600783 3.092392 0
M  V30 39 H 1.193042 4.085266 3.137263 0
M  V30 40 H 0.447362 5.320719 2.091205 0
M  V30 41 H -0.451785 4.327091 4.642628 0
M  V30 42 H -2.279044 1.731345 1.228567 0
M  V30 43 H -4.623176 1.935966 0.777463 0
M  V30 44 H -5.889797 3.905989 1.349743 0
M  V30 45 H -4.709719 5.797748 2.452052 0
M  V30 46 H -2.266054 5.641484 2.944578 0
M  V30 47 H -0.012482 -3.114312 -0.979489 0
M  V30 48 H 3.572043 -6.141507 -1.953191 0
M  V30 49 H 2.483858 -8.248470 -2.461481 0
M  V30 END ATOM
M  V30 BEGIN BOND
M  V30 1 1 1 2
M  V30 2 2 2 3
M  V30 3 1 3 4
M  V30 4 1 4 5
M  V30 5 2 5 6
M  V30 6 1 6 7
M  V30 7 1 7 8
M  V30 8 2 8 9
M  V30 9 1 9 10
M  V30 10 1 10 11
M  V30 11 1 11 12
M  V30 12 2 12 13
M  V30 13 1 12 14
M  V30 14 1 14 15
M  V30 15 1 15 16
M  V30 16 1 16 17
M  V30 17 1 15 18
M  V30 18 2 18 19
M  V30 19 1 19 20
M  V30 20 2 20 21
M  V30 21 1 21 22
M  V30 22 2 22 23
M  V30 23 2 10 24
M  V30 24 1 24 25
M  V30 25 2 25 26
M  V30 26 2 4 27
M  V30 27 1 27 28
M  V30 28 2 28 29
M  V30 29 1 29 2
M  V30 30 1 26 5
M  V30 31 1 26 8
M  V30 32 1 23 18
M  V30 33 1 1 30
M  V30 34 1 1 31
M  V30 35 1 1 32
M  V30 36 1 3 33
M  V30 37 1 7 34
M  V30 38 1 9 35
M  V30 39 1 11 36
M  V30 40 1 14 37
M  V30 41 1 15 38 CFG=1
M  V30 42 1 16 39
M  V30 43 1 16 40
M  V30 44 1 17 41
M  V30 45 1 19 42
M  V30 46 1 20 43
M  V30 47 1 21 44
M  V30 48 1 22 45
M  V30 49 1 23 46
M  V30 50 1 25 47
M  V30 51 1 27 48
M  V30 52 1 28 49
M  V30 END BOND
M  V30 END CTAB
M  END
>  <Dataset>  (570) 
ChEMBL_Kinases

>  <Ligand_Instance>  (570) 
nan

>  <PDB_ID>  (570) 
nan

>  <Standardized_SMILES>  (570) 
Cc1cc(-c2n[nH]c3cc(NC(=O)N[C@@H](CO)c4ccccc4)ncc23)ccn1

>  <Name>  (570) 
nan

>  <Pocket>  (570) 
nan

>  <ATP_Site>  (570) 
nan

>  <Peripheral>  (570) 
nan

>  <Num_H_Atoms_ProtBoundConf>  (570) 
nan

>  <Num_Resolved_Atoms>  (570) 
nan

>  <Num_Not_Resolved_Atoms>  (570) 
nan

$$$$
CHEMBL3654669
     RDKit          3D

  0  0  0  0  0  0  0  0  0  0999 V3000
M  V30 BEGIN CTAB
M  V30 COUNTS 48 51 0 0 0
M  V30 BEGIN ATOM
M  V30 1 C -2.822523 -6.176852 -1.617672 0
M  V30 2 C -1.351447 -6.232305 -1.783776 0
M  V30 3 C -0.543988 -5.359561 -1.089317 0
M  V30 4 C 0.835079 -5.361955 -1.201893 0
M  V30 5 C 1.716656 -4.445961 -0.475758 0
M  V30 6 N 2.854977 -4.759782 0.169559 0
M  V30 7 N 3.410281 -3.685680 0.724029 0
M  V30 8 C 2.581662 -2.674383 0.407172 0
M  V30 9 C 2.739791 -1.350304 0.763915 0
M  V30 10 C 1.768154 -0.468581 0.332969 0
M  V30 11 N 1.662343 0.947207 0.543789 0
M  V30 12 C 0.946088 1.356941 1.715236 0
M  V30 13 O 0.414655 0.598312 2.554765 0
M  V30 14 N 0.857045 2.761203 1.898619 0
M  V30 15 C 0.153041 3.301626 3.053892 0 CFG=2
M  V30 16 C -1.061411 4.057456 2.638593 0
M  V30 17 C -2.277017 3.890385 3.292937 0
M  V30 18 C -3.452138 4.533234 2.993614 0
M  V30 19 C -3.399537 5.436601 1.927092 0
M  V30 20 C -2.223410 5.644971 1.239867 0
M  V30 21 C -1.070408 4.970630 1.584059 0
M  V30 22 C 1.047727 4.075404 3.976917 0
M  V30 23 F 2.026301 3.195875 4.409841 0
M  V30 24 F 1.605531 5.184124 3.362589 0
M  V30 25 F 0.273509 4.440266 5.062864 0
M  V30 26 N 0.708618 -0.890909 -0.407212 0
M  V30 27 C 0.542690 -2.182939 -0.762535 0
M  V30 28 C 1.499267 -3.085795 -0.345066 0
M  V30 29 C 1.385598 -6.307229 -2.068248 0
M  V30 30 C 0.560468 -7.181080 -2.762255 0
M  V30 31 N -0.773283 -7.137443 -2.617433 0
M  V30 32 H -3.313618 -5.543846 -2.384979 0
M  V30 33 H -3.241120 -7.202105 -1.747315 0
M  V30 34 H -3.139573 -5.851392 -0.610303 0
M  V30 35 H -1.004867 -4.641501 -0.427785 0
M  V30 36 H 4.286836 -3.661600 1.272850 0
M  V30 37 H 3.506023 -0.871746 1.333010 0
M  V30 38 H 2.119127 1.573286 -0.178542 0
M  V30 39 H 1.274349 3.441650 1.241741 0
M  V30 40 H -0.217119 2.424901 3.628953 0
M  V30 41 H -2.256653 3.173167 4.116142 0
M  V30 42 H -4.338639 4.313773 3.583900 0
M  V30 43 H -4.341189 5.946295 1.693533 0
M  V30 44 H -2.210621 6.354200 0.413353 0
M  V30 45 H -0.128807 5.129191 1.043440 0
M  V30 46 H -0.287854 -2.543917 -1.348593 0
M  V30 47 H 2.434968 -6.387283 -2.221963 0
M  V30 48 H 0.988459 -7.913763 -3.433870 0
M  V30 END ATOM
M  V30 BEGIN BOND
M  V30 1 1 1 2
M  V30 2 2 2 3
M  V30 3 1 3 4
M  V30 4 1 4 5
M  V30 5 2 5 6
M  V30 6 1 6 7
M  V30 7 1 7 8
M  V30 8 2 8 9
M  V30 9 1 9 10
M  V30 10 1 10 11
M  V30 11 1 11 12
M  V30 12 2 12 13
M  V30 13 1 12 14
M  V30 14 1 14 15
M  V30 15 1 15 16
M  V30 16 2 16 17
M  V30 17 1 17 18
M  V30 18 2 18 19
M  V30 19 1 19 20
M  V30 20 2 20 21
M  V30 21 1 15 22
M  V30 22 1 22 23
M  V30 23 1 22 24
M  V30 24 1 22 25
M  V30 25 2 10 26
M  V30 26 1 26 27
M  V30 27 2 27 28
M  V30 28 2 4 29
M  V30 29 1 29 30
M  V30 30 2 30 31
M  V30 31 1 31 2
M  V30 32 1 28 5
M  V30 33 1 28 8
M  V30 34 1 21 16
M  V30 35 1 1 32
M  V30 36 1 1 33
M  V30 37 1 1 34
M  V30 38 1 3 35
M  V30 39 1 7 36
M  V30 40 1 9 37
M  V30 41 1 11 38
M  V30 42 1 14 39
M  V30 43 1 15 40 CFG=1
M  V30 44 1 17 41
M  V30 45 1 18 42
M  V30 46 1 19 43
M  V30 47 1 20 44
M  V30 48 1 21 45
M  V30 49 1 27 46
M  V30 50 1 29 47
M  V30 51 1 30 48
M  V30 END BOND
M  V30 END CTAB
M  END
>  <Dataset>  (571) 
ChEMBL_Kinases

>  <Ligand_Instance>  (571) 
nan

>  <PDB_ID>  (571) 
nan

>  <Standardized_SMILES>  (571) 
Cc1cc(-c2n[nH]c3cc(NC(=O)N[C@H](c4ccccc4)C(F)(F)F)ncc23)ccn1

>  <Name>  (571) 
nan

>  <Pocket>  (571) 
nan

>  <ATP_Site>  (571) 
nan

>  <Peripheral>  (571) 
nan

>  <Num_H_Atoms_ProtBoundConf>  (571) 
nan

>  <Num_Resolved_Atoms>  (571) 
nan

>  <Num_Not_Resolved_Atoms>  (571) 
nan

$$$$
CHEMBL3654671
     RDKit          3D

  0  0  0  0  0  0  0  0  0  0999 V3000
M  V30 BEGIN CTAB
M  V30 COUNTS 48 51 0 0 0
M  V30 BEGIN ATOM
M  V30 1 C -3.019677 -5.048311 -0.903857 0
M  V30 2 C -3.178004 -3.761998 -0.127280 0 CFG=1
M  V30 3 N -2.445931 -2.665909 -0.704276 0
M  V30 4 C -1.421931 -1.999981 0.016166 0
M  V30 5 O -1.056316 -2.289446 1.202049 0
M  V30 6 N -0.722797 -0.908389 -0.613830 0
M  V30 7 C 0.323201 -0.156395 -0.004424 0
M  V30 8 C 0.004244 0.982701 0.729578 0
M  V30 9 C 1.000145 1.729006 1.330101 0
M  V30 10 N 1.027766 2.843347 2.084656 0
M  V30 11 N 2.265664 3.136587 2.405938 0
M  V30 12 C 3.150664 2.258255 1.901472 0
M  V30 13 C 4.599833 2.269576 2.059182 0
M  V30 14 C 5.036602 3.284232 2.826461 0
M  V30 15 C 6.476060 3.517228 3.141997 0
M  V30 16 O 7.075914 2.254925 3.065482 0
M  V30 17 C 6.954185 1.753878 1.783305 0
M  V30 18 C 5.526318 1.304334 1.457665 0
M  V30 19 C 2.330693 1.377962 1.226114 0
M  V30 20 C 2.602324 0.250202 0.495264 0
M  V30 21 N 1.629778 -0.472430 -0.087046 0
M  V30 22 C -4.626142 -3.429658 -0.145190 0
M  V30 23 C -5.171644 -2.886673 -1.290597 0
M  V30 24 C -6.514817 -2.544275 -1.400316 0
M  V30 25 C -7.305586 -2.770203 -0.299802 0
M  V30 26 C -6.825633 -3.309444 0.875587 0
M  V30 27 C -5.478859 -3.632279 0.929784 0
M  V30 28 H -3.755771 -5.770962 -0.484396 0
M  V30 29 H -2.023865 -5.512829 -0.736582 0
M  V30 30 H -3.266975 -4.931601 -1.970038 0
M  V30 31 H -2.831428 -3.983726 0.904279 0
M  V30 32 H -2.664491 -2.350959 -1.663127 0
M  V30 33 H -0.956599 -0.594248 -1.599451 0
M  V30 34 H -1.005215 1.316246 0.853557 0
M  V30 35 H 0.198235 3.402902 2.379441 0
M  V30 36 H 4.383388 4.039171 3.293753 0
M  V30 37 H 6.885164 4.234183 2.410379 0
M  V30 38 H 6.576718 3.858777 4.182603 0
M  V30 39 H 7.247421 2.514371 1.014264 0
M  V30 40 H 7.606311 0.853023 1.710826 0
M  V30 41 H 5.436343 0.279740 1.849163 0
M  V30 42 H 5.482663 1.323674 0.334514 0
M  V30 43 H 3.613936 -0.087386 0.372624 0
M  V30 44 H -4.602939 -2.677745 -2.208625 0
M  V30 45 H -6.940302 -2.117462 -2.302685 0
M  V30 46 H -8.360909 -2.505932 -0.373064 0
M  V30 47 H -7.442731 -3.487413 1.738916 0
M  V30 48 H -5.070986 -4.055879 1.834192 0
M  V30 END ATOM
M  V30 BEGIN BOND
M  V30 1 1 1 2
M  V30 2 1 2 3
M  V30 3 1 3 4
M  V30 4 2 4 5
M  V30 5 1 4 6
M  V30 6 1 6 7
M  V30 7 2 7 8
M  V30 8 1 8 9
M  V30 9 1 9 10
M  V30 10 1 10 11
M  V30 11 2 11 12
M  V30 12 1 12 13
M  V30 13 2 13 14
M  V30 14 1 14 15
M  V30 15 1 15 16
M  V30 16 1 16 17
M  V30 17 1 17 18
M  V30 18 1 12 19
M  V30 19 1 19 20
M  V30 20 2 20 21
M  V30 21 1 2 22
M  V30 22 2 22 23
M  V30 23 1 23 24
M  V30 24 2 24 25
M  V30 25 1 25 26
M  V30 26 2 26 27
M  V30 27 1 21 7
M  V30 28 1 27 22
M  V30 29 2 19 9
M  V30 30 1 18 13
M  V30 31 1 1 28
M  V30 32 1 1 29
M  V30 33 1 1 30
M  V30 34 1 2 31 CFG=1
M  V30 35 1 3 32
M  V30 36 1 6 33
M  V30 37 1 8 34
M  V30 38 1 10 35
M  V30 39 1 14 36
M  V30 40 1 15 37
M  V30 41 1 15 38
M  V30 42 1 17 39
M  V30 43 1 17 40
M  V30 44 1 18 41
M  V30 45 1 18 42
M  V30 46 1 20 43
M  V30 47 1 23 44
M  V30 48 1 24 45
M  V30 49 1 25 46
M  V30 50 1 26 47
M  V30 51 1 27 48
M  V30 END BOND
M  V30 END CTAB
M  END
>  <Dataset>  (572) 
ChEMBL_Kinases

>  <Ligand_Instance>  (572) 
nan

>  <PDB_ID>  (572) 
nan

>  <Standardized_SMILES>  (572) 
C[C@@H](NC(=O)Nc1cc2[nH]nc(C3=CCOCC3)c2cn1)c1ccccc1

>  <Name>  (572) 
nan

>  <Pocket>  (572) 
nan

>  <ATP_Site>  (572) 
nan

>  <Peripheral>  (572) 
nan

>  <Num_H_Atoms_ProtBoundConf>  (572) 
nan

>  <Num_Resolved_Atoms>  (572) 
nan

>  <Num_Not_Resolved_Atoms>  (572) 
nan

$$$$
CHEMBL3654676
     RDKit          3D

  0  0  0  0  0  0  0  0  0  0999 V3000
M  V30 BEGIN CTAB
M  V30 COUNTS 43 46 0 0 0
M  V30 BEGIN ATOM
M  V30 1 C -1.087965 -5.091688 1.919124 0
M  V30 2 C -0.801289 -3.692630 2.342104 0 CFG=1
M  V30 3 N -1.155835 -2.681308 1.368233 0
M  V30 4 C -0.272696 -1.742884 0.808651 0
M  V30 5 O 0.943708 -1.706489 1.122509 0
M  V30 6 N -0.649976 -0.775762 -0.133489 0
M  V30 7 C 0.249889 0.174832 -0.698854 0
M  V30 8 C 0.930973 -0.148898 -1.863749 0
M  V30 9 C 1.806649 0.760916 -2.424377 0
M  V30 10 N 2.626339 0.865626 -3.486259 0
M  V30 11 N 3.235506 2.058761 -3.484765 0
M  V30 12 C 2.824939 2.783051 -2.401659 0
M  V30 13 C 3.423001 4.129602 -2.232933 0
M  V30 14 C 4.820620 4.308901 -1.751017 0
M  V30 15 C 3.764634 4.489716 -0.753429 0
M  V30 16 C 1.932490 1.957844 -1.751036 0
M  V30 17 C 1.271227 2.305590 -0.597270 0
M  V30 18 N 0.420484 1.381506 -0.080902 0
M  V30 19 C -1.606265 -3.374612 3.571017 0
M  V30 20 C -2.941415 -3.055364 3.486105 0
M  V30 21 C -3.716394 -2.758338 4.575132 0
M  V30 22 C -3.106979 -2.787158 5.804963 0
M  V30 23 C -1.760932 -3.100103 5.981344 0
M  V30 24 C -1.034482 -3.389756 4.846112 0
M  V30 25 H -1.033191 -5.708941 2.864143 0
M  V30 26 H -2.097898 -5.263194 1.542103 0
M  V30 27 H -0.286609 -5.481101 1.269721 0
M  V30 28 H 0.279830 -3.616372 2.583228 0
M  V30 29 H -2.130514 -2.598713 1.020206 0
M  V30 30 H -1.660062 -0.727109 -0.462215 0
M  V30 31 H 0.821486 -1.091491 -2.379363 0
M  V30 32 H 2.733929 0.094718 -4.181846 0
M  V30 33 H 2.967035 4.988666 -2.766229 0
M  V30 34 H 5.371956 5.210831 -2.120213 0
M  V30 35 H 5.512712 3.437874 -1.673281 0
M  V30 36 H 3.679411 3.651165 -0.004791 0
M  V30 37 H 3.423802 5.446494 -0.365846 0
M  V30 38 H 1.374595 3.247592 -0.087676 0
M  V30 39 H -3.443058 -3.026970 2.521617 0
M  V30 40 H -4.758241 -2.513460 4.465698 0
M  V30 41 H -3.659318 -2.561531 6.722978 0
M  V30 42 H -1.257195 -3.130055 6.935581 0
M  V30 43 H 0.020068 -3.649139 4.839423 0
M  V30 END ATOM
M  V30 BEGIN BOND
M  V30 1 1 1 2
M  V30 2 1 2 3
M  V30 3 1 3 4
M  V30 4 2 4 5
M  V30 5 1 4 6
M  V30 6 1 6 7
M  V30 7 2 7 8
M  V30 8 1 8 9
M  V30 9 1 9 10
M  V30 10 1 10 11
M  V30 11 2 11 12
M  V30 12 1 12 13
M  V30 13 1 13 14
M  V30 14 1 14 15
M  V30 15 1 12 16
M  V30 16 1 16 17
M  V30 17 2 17 18
M  V30 18 1 2 19
M  V30 19 2 19 20
M  V30 20 1 20 21
M  V30 21 2 21 22
M  V30 22 1 22 23
M  V30 23 2 23 24
M  V30 24 1 18 7
M  V30 25 1 24 19
M  V30 26 2 16 9
M  V30 27 1 15 13
M  V30 28 1 1 25
M  V30 29 1 1 26
M  V30 30 1 1 27
M  V30 31 1 2 28 CFG=1
M  V30 32 1 3 29
M  V30 33 1 6 30
M  V30 34 1 8 31
M  V30 35 1 10 32
M  V30 36 1 13 33
M  V30 37 1 14 34
M  V30 38 1 14 35
M  V30 39 1 15 36
M  V30 40 1 15 37
M  V30 41 1 17 38
M  V30 42 1 20 39
M  V30 43 1 21 40
M  V30 44 1 22 41
M  V30 45 1 23 42
M  V30 46 1 24 43
M  V30 END BOND
M  V30 END CTAB
M  END
>  <Dataset>  (573) 
ChEMBL_Kinases

>  <Ligand_Instance>  (573) 
nan

>  <PDB_ID>  (573) 
nan

>  <Standardized_SMILES>  (573) 
C[C@@H](NC(=O)Nc1cc2[nH]nc(C3CC3)c2cn1)c1ccccc1

>  <Name>  (573) 
nan

>  <Pocket>  (573) 
nan

>  <ATP_Site>  (573) 
nan

>  <Peripheral>  (573) 
nan

>  <Num_H_Atoms_ProtBoundConf>  (573) 
nan

>  <Num_Resolved_Atoms>  (573) 
nan

>  <Num_Not_Resolved_Atoms>  (573) 
nan

$$$$
CHEMBL3654678
     RDKit          3D

  0  0  0  0  0  0  0  0  0  0999 V3000
M  V30 BEGIN CTAB
M  V30 COUNTS 45 48 0 0 0
M  V30 BEGIN ATOM
M  V30 1 C -1.255968 -6.428123 1.694399 0
M  V30 2 C -0.774593 -6.086499 0.310894 0
M  V30 3 C -0.545007 -4.769666 -0.054469 0
M  V30 4 C -0.098858 -4.475467 -1.342467 0
M  V30 5 C 0.139261 -3.068742 -1.710914 0
M  V30 6 N -0.277564 -2.530141 -2.875682 0
M  V30 7 N 0.076894 -1.239327 -2.939805 0
M  V30 8 C 0.731233 -0.915561 -1.816450 0
M  V30 9 C 1.339073 0.217988 -1.275142 0
M  V30 10 C 1.942193 0.179025 -0.036275 0
M  V30 11 N 2.568357 1.350273 0.519233 0
M  V30 12 C 1.729317 2.206348 1.321377 0
M  V30 13 O 0.511302 2.002817 1.563686 0
M  V30 14 N 2.408776 3.339256 1.836159 0
M  V30 15 C 1.882017 4.412262 2.681229 0
M  V30 16 C 0.439940 4.184274 2.976280 0
M  V30 17 C 0.101605 3.444387 4.108678 0
M  V30 18 C -1.219191 3.216957 4.407763 0
M  V30 19 C -2.261111 3.689190 3.634359 0
M  V30 20 C -1.919503 4.426622 2.505898 0
M  V30 21 Cl -3.219202 5.037758 1.506969 0
M  V30 22 C -0.602451 4.652615 2.208886 0
M  V30 23 N 1.941885 -0.975139 0.659109 0
M  V30 24 C 1.376307 -2.106120 0.201418 0
M  V30 25 C 0.771423 -2.070825 -1.038791 0
M  V30 26 C 0.111847 -5.513789 -2.251211 0
M  V30 27 C -0.126999 -6.822969 -1.855603 0
M  V30 28 N -0.558005 -7.058612 -0.598926 0
M  V30 29 H -0.417206 -6.774767 2.341149 0
M  V30 30 H -1.732534 -5.514846 2.138565 0
M  V30 31 H -2.036400 -7.182425 1.586070 0
M  V30 32 H -0.727056 -4.036613 0.688822 0
M  V30 33 H -0.076285 -0.521483 -3.681376 0
M  V30 34 H 1.321814 1.110919 -1.848396 0
M  V30 35 H 3.578853 1.475385 0.290318 0
M  V30 36 H 3.416499 3.551160 1.663423 0
M  V30 37 H 2.435924 4.370371 3.644723 0
M  V30 38 H 2.060563 5.398179 2.219986 0
M  V30 39 H 0.901053 3.051685 4.749130 0
M  V30 40 H -1.414840 2.634882 5.301464 0
M  V30 41 H -3.269064 3.457761 3.952239 0
M  V30 42 H -0.341592 5.223096 1.335766 0
M  V30 43 H 1.421460 -2.974646 0.816165 0
M  V30 44 H 0.462119 -5.287228 -3.263545 0
M  V30 45 H 0.032546 -7.653230 -2.554956 0
M  V30 END ATOM
M  V30 BEGIN BOND
M  V30 1 1 1 2
M  V30 2 2 2 3
M  V30 3 1 3 4
M  V30 4 1 4 5
M  V30 5 2 5 6
M  V30 6 1 6 7
M  V30 7 1 7 8
M  V30 8 2 8 9
M  V30 9 1 9 10
M  V30 10 1 10 11
M  V30 11 1 11 12
M  V30 12 2 12 13
M  V30 13 1 12 14
M  V30 14 1 14 15
M  V30 15 1 15 16
M  V30 16 2 16 17
M  V30 17 1 17 18
M  V30 18 2 18 19
M  V30 19 1 19 20
M  V30 20 1 20 21
M  V30 21 2 20 22
M  V30 22 2 10 23
M  V30 23 1 23 24
M  V30 24 2 24 25
M  V30 25 2 4 26
M  V30 26 1 26 27
M  V30 27 2 27 28
M  V30 28 1 28 2
M  V30 29 1 25 5
M  V30 30 1 25 8
M  V30 31 1 22 16
M  V30 32 1 1 29
M  V30 33 1 1 30
M  V30 34 1 1 31
M  V30 35 1 3 32
M  V30 36 1 7 33
M  V30 37 1 9 34
M  V30 38 1 11 35
M  V30 39 1 14 36
M  V30 40 1 15 37
M  V30 41 1 15 38
M  V30 42 1 17 39
M  V30 43 1 18 40
M  V30 44 1 19 41
M  V30 45 1 22 42
M  V30 46 1 24 43
M  V30 47 1 26 44
M  V30 48 1 27 45
M  V30 END BOND
M  V30 END CTAB
M  END
>  <Dataset>  (574) 
ChEMBL_Kinases

>  <Ligand_Instance>  (574) 
nan

>  <PDB_ID>  (574) 
nan

>  <Standardized_SMILES>  (574) 
Cc1cc(-c2n[nH]c3cc(NC(=O)NCc4cccc(Cl)c4)ncc23)ccn1

>  <Name>  (574) 
nan

>  <Pocket>  (574) 
nan

>  <ATP_Site>  (574) 
nan

>  <Peripheral>  (574) 
nan

>  <Num_H_Atoms_ProtBoundConf>  (574) 
nan

>  <Num_Resolved_Atoms>  (574) 
nan

>  <Num_Not_Resolved_Atoms>  (574) 
nan

$$$$
CHEMBL3654679
     RDKit          3D

  0  0  0  0  0  0  0  0  0  0999 V3000
M  V30 BEGIN CTAB
M  V30 COUNTS 55 58 0 0 0
M  V30 BEGIN ATOM
M  V30 1 C 4.648691 2.340701 8.240609 0
M  V30 2 C 3.315439 2.163926 7.526091 0
M  V30 3 C 2.240550 2.859502 8.342520 0
M  V30 4 O 3.418552 2.684596 6.236461 0
M  V30 5 C 3.256825 1.993616 5.051045 0
M  V30 6 C 2.963713 0.665144 4.831140 0
M  V30 7 C 2.845887 0.179066 3.546572 0
M  V30 8 C 3.011161 0.977540 2.437869 0
M  V30 9 C 2.876882 0.426312 1.093837 0
M  V30 10 N 3.687029 0.622259 0.021389 0
M  V30 11 N 3.237943 -0.047438 -1.034543 0
M  V30 12 C 2.120324 -0.688643 -0.646108 0
M  V30 13 C 1.300904 -1.509747 -1.395776 0
M  V30 14 C 0.190158 -2.069547 -0.784320 0
M  V30 15 N -0.798949 -2.940088 -1.332940 0
M  V30 16 C -1.887190 -2.231468 -1.894707 0
M  V30 17 O -2.028053 -0.963709 -1.938332 0
M  V30 18 N -2.987067 -2.908503 -2.496948 0
M  V30 19 C -4.135424 -2.247255 -3.092503 0 CFG=2
M  V30 20 C -5.413347 -2.602885 -2.338658 0
M  V30 21 C -4.263697 -2.595264 -4.528780 0
M  V30 22 C -4.122761 -3.906310 -4.939044 0
M  V30 23 C -4.232866 -4.282023 -6.260941 0
M  V30 24 C -4.495252 -3.335507 -7.250291 0
M  V30 25 C -4.641989 -2.003439 -6.862041 0
M  V30 26 C -4.522832 -1.673812 -5.521689 0
M  V30 27 N -0.058288 -1.794213 0.531038 0
M  V30 28 C 0.747625 -0.990328 1.257619 0
M  V30 29 C 1.863316 -0.414654 0.682898 0
M  V30 30 C 3.307678 2.319563 2.704293 0
M  V30 31 N 3.419719 2.780343 3.963777 0
M  V30 32 H 4.566466 3.188885 8.934294 0
M  V30 33 H 4.853413 1.423877 8.864615 0
M  V30 34 H 5.434760 2.485317 7.480774 0
M  V30 35 H 3.079070 1.077743 7.489117 0
M  V30 36 H 1.654406 3.559384 7.694914 0
M  V30 37 H 1.543059 2.109459 8.804744 0
M  V30 38 H 2.715769 3.489535 9.113437 0
M  V30 39 H 2.846072 0.091872 5.729710 0
M  V30 40 H 2.615820 -0.870563 3.484598 0
M  V30 41 H 3.676867 -0.066244 -1.983117 0
M  V30 42 H 1.400412 -1.787352 -2.414766 0
M  V30 43 H -0.864475 -3.968126 -1.393369 0
M  V30 44 H -3.021368 -3.967348 -2.541035 0
M  V30 45 H -4.026832 -1.156945 -3.011354 0
M  V30 46 H -6.201952 -2.841397 -3.098678 0
M  V30 47 H -5.742772 -1.831038 -1.641536 0
M  V30 48 H -5.284863 -3.552762 -1.766382 0
M  V30 49 H -3.915031 -4.725924 -4.238898 0
M  V30 50 H -4.135947 -5.277329 -6.652846 0
M  V30 51 H -4.605159 -3.489765 -8.309110 0
M  V30 52 H -4.848048 -1.157364 -7.519573 0
M  V30 53 H -4.632012 -0.641243 -5.185390 0
M  V30 54 H 0.536639 -0.782399 2.296837 0
M  V30 55 H 3.436108 2.941052 1.820723 0
M  V30 END ATOM
M  V30 BEGIN BOND
M  V30 1 1 1 2
M  V30 2 1 2 3
M  V30 3 1 2 4
M  V30 4 1 4 5
M  V30 5 2 5 6
M  V30 6 1 6 7
M  V30 7 2 7 8
M  V30 8 1 8 9
M  V30 9 2 9 10
M  V30 10 1 10 11
M  V30 11 1 11 12
M  V30 12 2 12 13
M  V30 13 1 13 14
M  V30 14 1 14 15
M  V30 15 1 15 16
M  V30 16 2 16 17
M  V30 17 1 16 18
M  V30 18 1 18 19
M  V30 19 1 19 20
M  V30 20 1 19 21
M  V30 21 2 21 22
M  V30 22 1 22 23
M  V30 23 2 23 24
M  V30 24 1 24 25
M  V30 25 2 25 26
M  V30 26 2 14 27
M  V30 27 1 27 28
M  V30 28 2 28 29
M  V30 29 1 8 30
M  V30 30 2 30 31
M  V30 31 1 31 5
M  V30 32 1 29 9
M  V30 33 1 29 12
M  V30 34 1 26 21
M  V30 35 1 1 32
M  V30 36 1 1 33
M  V30 37 1 1 34
M  V30 38 1 2 35
M  V30 39 1 3 36
M  V30 40 1 3 37
M  V30 41 1 3 38
M  V30 42 1 6 39
M  V30 43 1 7 40
M  V30 44 1 11 41
M  V30 45 1 13 42
M  V30 46 1 15 43
M  V30 47 1 18 44
M  V30 48 1 19 45 CFG=3
M  V30 49 1 20 46
M  V30 50 1 20 47
M  V30 51 1 20 48
M  V30 52 1 22 49
M  V30 53 1 23 50
M  V30 54 1 24 51
M  V30 55 1 25 52
M  V30 56 1 26 53
M  V30 57 1 28 54
M  V30 58 1 30 55
M  V30 END BOND
M  V30 END CTAB
M  END
>  <Dataset>  (575) 
ChEMBL_Kinases

>  <Ligand_Instance>  (575) 
nan

>  <PDB_ID>  (575) 
nan

>  <Standardized_SMILES>  (575) 
CC(C)Oc1ccc(-c2n[nH]c3cc(NC(=O)N[C@H](C)c4ccccc4)ncc23)cn1

>  <Name>  (575) 
nan

>  <Pocket>  (575) 
nan

>  <ATP_Site>  (575) 
nan

>  <Peripheral>  (575) 
nan

>  <Num_H_Atoms_ProtBoundConf>  (575) 
nan

>  <Num_Resolved_Atoms>  (575) 
nan

>  <Num_Not_Resolved_Atoms>  (575) 
nan

$$$$
CHEMBL3654665
     RDKit          3D

  0  0  0  0  0  0  0  0  0  0999 V3000
M  V30 BEGIN CTAB
M  V30 COUNTS 72 77 0 0 0
M  V30 BEGIN ATOM
M  V30 1 C 4.288450 -0.872493 6.608934 0
M  V30 2 C 3.276318 -0.250629 5.717492 0
M  V30 3 C 3.627541 0.638864 4.715568 0
M  V30 4 C 2.718515 1.246199 3.855950 0
M  V30 5 C 3.310510 2.143237 2.881442 0
M  V30 6 N 4.259353 3.039921 3.228375 0
M  V30 7 N 4.656337 3.740942 2.179200 0
M  V30 8 C 3.996759 3.350528 1.085244 0
M  V30 9 C 4.000987 3.710828 -0.245158 0
M  V30 10 C 3.132811 3.032564 -1.107139 0
M  V30 11 C 2.278816 2.019013 -0.658736 0
M  V30 12 C 1.440159 1.381269 -1.662250 0
M  V30 13 O 1.642690 1.680808 -2.867414 0
M  V30 14 N 0.421838 0.460076 -1.421829 0
M  V30 15 C -0.437433 -0.218116 -2.336665 0 CFG=2
M  V30 16 C -1.892206 0.226636 -2.281042 0
M  V30 17 C -2.812946 -0.729484 -3.000076 0
M  V30 18 C -2.757329 -2.053068 -2.244026 0 CFG=1
M  V30 19 C -2.819270 -3.212057 -3.128814 0
M  V30 20 O -3.863752 -3.136855 -3.876599 0
M  V30 21 N -2.012390 -4.360762 -3.339631 0
M  V30 22 C -2.450810 -5.322211 -4.368579 0
M  V30 23 N -3.182610 -6.323461 -4.280274 0
M  V30 24 C -3.448652 -7.058622 -5.354092 0
M  V30 25 C -2.861873 -6.658725 -6.626023 0
M  V30 26 S -1.914339 -5.124936 -6.034513 0
M  V30 27 N -1.702698 -1.956487 -1.324436 0
M  V30 28 C -1.639469 -2.758007 -0.185194 0
M  V30 29 C -2.630951 -2.595158 0.886274 0
M  V30 30 C -2.767456 -1.316207 1.548168 0
M  V30 31 C -3.717070 -0.404247 1.069496 0
M  V30 32 C -3.977151 0.845672 1.569099 0
M  V30 33 C -3.229577 1.246164 2.650876 0
M  V30 34 C -2.262612 0.381497 3.178574 0
M  V30 35 C -2.058677 -0.863980 2.619482 0
M  V30 36 C -0.417891 -1.671338 -1.918855 0
M  V30 37 C 2.289336 1.673093 0.677217 0
M  V30 38 C 3.142111 2.336880 1.530280 0
M  V30 39 C 1.403495 0.927635 4.033771 0
M  V30 40 C 1.069361 0.027986 5.050481 0
M  V30 41 N 1.972056 -0.536005 5.857554 0
M  V30 42 H 5.229183 -1.084161 6.048726 0
M  V30 43 H 4.529489 -0.158513 7.427595 0
M  V30 44 H 3.929837 -1.800350 7.065066 0
M  V30 45 H 4.696240 0.828903 4.653776 0
M  V30 46 H 5.381649 4.486328 2.219478 0
M  V30 47 H 4.663043 4.487789 -0.558579 0
M  V30 48 H 3.206470 3.380836 -2.124645 0
M  V30 49 H 0.253768 0.222759 -0.396364 0
M  V30 50 H -0.145657 -0.056496 -3.404871 0
M  V30 51 H -2.153410 0.252171 -1.211406 0
M  V30 52 H -1.997377 1.233423 -2.741833 0
M  V30 53 H -3.824485 -0.272569 -2.941954 0
M  V30 54 H -2.519273 -0.868380 -4.062887 0
M  V30 55 H -3.723805 -2.073988 -1.653314 0
M  V30 56 H -1.201010 -4.371430 -2.726754 0
M  V30 57 H -4.110457 -7.892210 -5.061303 0
M  V30 58 H -3.237038 -7.458114 -7.429711 0
M  V30 59 H -0.621885 -2.579531 0.288875 0
M  V30 60 H -1.592637 -3.841895 -0.452516 0
M  V30 61 H -2.388845 -3.355077 1.690464 0
M  V30 62 H -3.617693 -2.932305 0.504783 0
M  V30 63 H -4.318629 -0.701763 0.213854 0
M  V30 64 H -4.733182 1.472251 1.126875 0
M  V30 65 H -3.428055 2.236898 3.054260 0
M  V30 66 H -1.747986 0.806370 4.015797 0
M  V30 67 H -1.310983 -1.496785 3.050207 0
M  V30 68 H -0.174771 -2.232202 -2.818840 0
M  V30 69 H 0.373069 -1.911726 -1.176794 0
M  V30 70 H 1.641117 0.900851 1.028765 0
M  V30 71 H 0.706960 1.400970 3.364826 0
M  V30 72 H 0.048345 -0.227152 5.196926 0
M  V30 END ATOM
M  V30 BEGIN BOND
M  V30 1 1 1 2
M  V30 2 2 2 3
M  V30 3 1 3 4
M  V30 4 1 4 5
M  V30 5 2 5 6
M  V30 6 1 6 7
M  V30 7 1 7 8
M  V30 8 2 8 9
M  V30 9 1 9 10
M  V30 10 2 10 11
M  V30 11 1 11 12
M  V30 12 2 12 13
M  V30 13 1 12 14
M  V30 14 1 14 15
M  V30 15 1 15 16
M  V30 16 1 16 17
M  V30 17 1 17 18
M  V30 18 1 18 19
M  V30 19 2 19 20
M  V30 20 1 19 21
M  V30 21 1 21 22
M  V30 22 2 22 23
M  V30 23 1 23 24
M  V30 24 2 24 25
M  V30 25 1 25 26
M  V30 26 1 18 27
M  V30 27 1 27 28
M  V30 28 1 28 29
M  V30 29 1 29 30
M  V30 30 2 30 31
M  V30 31 1 31 32
M  V30 32 2 32 33
M  V30 33 1 33 34
M  V30 34 2 34 35
M  V30 35 1 27 36
M  V30 36 1 11 37
M  V30 37 2 37 38
M  V30 38 2 4 39
M  V30 39 1 39 40
M  V30 40 2 40 41
M  V30 41 1 41 2
M  V30 42 1 38 5
M  V30 43 1 38 8
M  V30 44 1 36 15
M  V30 45 1 26 22
M  V30 46 1 35 30
M  V30 47 1 1 42
M  V30 48 1 1 43
M  V30 49 1 1 44
M  V30 50 1 3 45
M  V30 51 1 7 46
M  V30 52 1 9 47
M  V30 53 1 10 48
M  V30 54 1 14 49
M  V30 55 1 15 50 CFG=3
M  V30 56 1 16 51
M  V30 57 1 16 52
M  V30 58 1 17 53
M  V30 59 1 17 54
M  V30 60 1 18 55 CFG=1
M  V30 61 1 21 56
M  V30 62 1 24 57
M  V30 63 1 25 58
M  V30 64 1 28 59
M  V30 65 1 28 60
M  V30 66 1 29 61
M  V30 67 1 29 62
M  V30 68 1 31 63
M  V30 69 1 32 64
M  V30 70 1 33 65
M  V30 71 1 34 66
M  V30 72 1 35 67
M  V30 73 1 36 68
M  V30 74 1 36 69
M  V30 75 1 37 70
M  V30 76 1 39 71
M  V30 77 1 40 72
M  V30 END BOND
M  V30 END CTAB
M  END
>  <Dataset>  (576) 
ChEMBL_Kinases

>  <Ligand_Instance>  (576) 
nan

>  <PDB_ID>  (576) 
nan

>  <Standardized_SMILES>  (576) 
Cc1cc(-c2n[nH]c3ccc(C(=O)N[C@@H]4CC[C@@H](C(=O)Nc5nccs5)N(CCc5ccccc5)C4)cc23)ccn1

>  <Name>  (576) 
nan

>  <Pocket>  (576) 
nan

>  <ATP_Site>  (576) 
nan

>  <Peripheral>  (576) 
nan

>  <Num_H_Atoms_ProtBoundConf>  (576) 
nan

>  <Num_Resolved_Atoms>  (576) 
nan

>  <Num_Not_Resolved_Atoms>  (576) 
nan

$$$$
CHEMBL3654590
     RDKit          3D

  0  0  0  0  0  0  0  0  0  0999 V3000
M  V30 BEGIN CTAB
M  V30 COUNTS 66 70 0 0 0
M  V30 BEGIN ATOM
M  V30 1 C 3.063334 -1.667336 6.305510 0
M  V30 2 N 3.838968 -1.172745 5.172333 0
M  V30 3 C 5.287081 -1.351648 5.323220 0
M  V30 4 C 3.441663 -0.555030 3.959728 0
M  V30 5 O 4.225518 -0.165006 3.056540 0
M  V30 6 C 2.049534 -0.263680 3.548736 0 CFG=2
M  V30 7 C 1.283281 -1.549331 3.550600 0
M  V30 8 C 1.287662 -2.319758 2.287984 0
M  V30 9 C 1.355400 -1.543895 1.025288 0 CFG=1
M  V30 10 N -0.023352 -1.233593 0.640037 0
M  V30 11 C -0.671353 -1.694150 -0.521711 0
M  V30 12 O 0.018621 -2.427557 -1.263832 0
M  V30 13 C -2.052246 -1.325994 -0.814805 0
M  V30 14 C -2.844062 -0.520300 -0.021556 0
M  V30 15 C -4.144949 -0.217836 -0.369690 0
M  V30 16 C -4.718229 -0.702834 -1.522934 0
M  V30 17 N -5.921308 -0.590064 -2.114762 0
M  V30 18 N -5.915511 -1.297196 -3.254436 0
M  V30 19 C -4.689869 -1.878787 -3.406129 0
M  V30 20 C -4.342903 -2.719933 -4.542927 0
M  V30 21 C -4.659789 -2.373179 -5.856359 0
M  V30 22 C -4.292057 -3.229921 -6.865813 0
M  V30 23 N -3.642389 -4.392362 -6.691433 0
M  V30 24 C -3.322050 -4.755952 -5.436692 0
M  V30 25 C -3.678031 -3.916211 -4.401451 0
M  V30 26 C -3.920929 -1.512819 -2.319586 0
M  V30 27 C -2.617669 -1.821753 -1.980385 0
M  V30 28 C 2.205459 -0.299044 1.127457 0
M  V30 29 N 1.948591 0.429892 2.315167 0
M  V30 30 C 2.394134 1.776767 2.364452 0
M  V30 31 C 1.777330 2.595066 1.293852 0
M  V30 32 C 0.549443 3.178158 1.625313 0
M  V30 33 C -0.160943 3.978293 0.745722 0
M  V30 34 C 0.399449 4.186142 -0.502891 0
M  V30 35 C 1.597440 3.618176 -0.828259 0
M  V30 36 C 2.298826 2.827993 0.040867 0
M  V30 37 H 3.640319 -1.489722 7.258617 0
M  V30 38 H 2.916606 -2.760334 6.273923 0
M  V30 39 H 2.116927 -1.109534 6.401319 0
M  V30 40 H 5.601015 -2.392664 5.085051 0
M  V30 41 H 5.865913 -0.635933 4.701730 0
M  V30 42 H 5.559222 -1.149810 6.358657 0
M  V30 43 H 1.653636 0.440979 4.336265 0
M  V30 44 H 0.205102 -1.262973 3.732048 0
M  V30 45 H 1.553295 -2.237718 4.375904 0
M  V30 46 H 2.181889 -2.995465 2.305326 0
M  V30 47 H 0.400369 -2.997401 2.279683 0
M  V30 48 H 1.750976 -2.202867 0.213690 0
M  V30 49 H -0.488442 -0.615539 1.340422 0
M  V30 50 H -2.415945 -0.135433 0.876375 0
M  V30 51 H -4.751604 0.418625 0.269002 0
M  V30 52 H -6.685996 -0.025024 -1.693151 0
M  V30 53 H -5.182579 -1.445275 -6.037579 0
M  V30 54 H -4.545231 -2.949160 -7.894021 0
M  V30 55 H -2.798207 -5.689212 -5.274499 0
M  V30 56 H -3.385698 -4.275610 -3.411784 0
M  V30 57 H -2.035907 -2.452970 -2.626685 0
M  V30 58 H 1.983610 0.402235 0.269266 0
M  V30 59 H 3.261169 -0.580680 0.977584 0
M  V30 60 H 2.118103 2.172212 3.378722 0
M  V30 61 H 3.493443 1.916984 2.302224 0
M  V30 62 H 0.095684 3.024141 2.603354 0
M  V30 63 H -1.109624 4.412061 1.040883 0
M  V30 64 H -0.147445 4.807433 -1.192526 0
M  V30 65 H 2.057451 3.770775 -1.811626 0
M  V30 66 H 3.244633 2.371008 -0.188092 0
M  V30 END ATOM
M  V30 BEGIN BOND
M  V30 1 1 1 2
M  V30 2 1 2 3
M  V30 3 1 2 4
M  V30 4 2 4 5
M  V30 5 1 4 6
M  V30 6 1 6 7
M  V30 7 1 7 8
M  V30 8 1 8 9
M  V30 9 1 9 10
M  V30 10 1 10 11
M  V30 11 2 11 12
M  V30 12 1 11 13
M  V30 13 2 13 14
M  V30 14 1 14 15
M  V30 15 2 15 16
M  V30 16 1 16 17
M  V30 17 1 17 18
M  V30 18 2 18 19
M  V30 19 1 19 20
M  V30 20 2 20 21
M  V30 21 1 21 22
M  V30 22 2 22 23
M  V30 23 1 23 24
M  V30 24 2 24 25
M  V30 25 1 19 26
M  V30 26 2 26 27
M  V30 27 1 9 28
M  V30 28 1 28 29
M  V30 29 1 29 30
M  V30 30 1 30 31
M  V30 31 2 31 32
M  V30 32 1 32 33
M  V30 33 2 33 34
M  V30 34 1 34 35
M  V30 35 2 35 36
M  V30 36 1 29 6
M  V30 37 1 36 31
M  V30 38 1 27 13
M  V30 39 1 26 16
M  V30 40 1 25 20
M  V30 41 1 1 37
M  V30 42 1 1 38
M  V30 43 1 1 39
M  V30 44 1 3 40
M  V30 45 1 3 41
M  V30 46 1 3 42
M  V30 47 1 6 43 CFG=1
M  V30 48 1 7 44
M  V30 49 1 7 45
M  V30 50 1 8 46
M  V30 51 1 8 47
M  V30 52 1 9 48 CFG=3
M  V30 53 1 10 49
M  V30 54 1 14 50
M  V30 55 1 15 51
M  V30 56 1 17 52
M  V30 57 1 21 53
M  V30 58 1 22 54
M  V30 59 1 24 55
M  V30 60 1 25 56
M  V30 61 1 27 57
M  V30 62 1 28 58
M  V30 63 1 28 59
M  V30 64 1 30 60
M  V30 65 1 30 61
M  V30 66 1 32 62
M  V30 67 1 33 63
M  V30 68 1 34 64
M  V30 69 1 35 65
M  V30 70 1 36 66
M  V30 END BOND
M  V30 END CTAB
M  END
>  <Dataset>  (577) 
ChEMBL_Kinases

>  <Ligand_Instance>  (577) 
nan

>  <PDB_ID>  (577) 
nan

>  <Standardized_SMILES>  (577) 
CN(C)C(=O)[C@@H]1CC[C@@H](NC(=O)c2ccc3[nH]nc(-c4ccncc4)c3c2)CN1Cc1ccccc1

>  <Name>  (577) 
nan

>  <Pocket>  (577) 
nan

>  <ATP_Site>  (577) 
nan

>  <Peripheral>  (577) 
nan

>  <Num_H_Atoms_ProtBoundConf>  (577) 
nan

>  <Num_Resolved_Atoms>  (577) 
nan

>  <Num_Not_Resolved_Atoms>  (577) 
nan

$$$$
CHEMBL3654589
     RDKit          3D

  0  0  0  0  0  0  0  0  0  0999 V3000
M  V30 BEGIN CTAB
M  V30 COUNTS 61 67 0 0 0
M  V30 BEGIN ATOM
M  V30 1 O -2.185840 -0.130950 3.850869 0
M  V30 2 C -1.806813 -0.817620 2.865770 0
M  V30 3 N -0.492050 -0.674388 2.382463 0
M  V30 4 C 0.514348 0.219202 2.923362 0
M  V30 5 C 1.012737 0.165984 4.288527 0
M  V30 6 C 1.835518 -0.459354 3.161343 0
M  V30 7 C 3.006699 0.285166 2.630870 0
M  V30 8 C 2.863023 0.697792 1.185283 0
M  V30 9 N 1.476459 0.808712 0.863967 0
M  V30 10 C 1.192189 1.457833 -0.370861 0
M  V30 11 C 1.678332 2.837080 -0.458844 0
M  V30 12 C 1.018374 3.994691 -0.104962 0
M  V30 13 C 1.571348 5.244417 -0.229719 0
M  V30 14 C 2.850354 5.392054 -0.730524 0
M  V30 15 C 3.559663 4.253597 -1.102688 0
M  V30 16 C 2.972083 3.015851 -0.963145 0
M  V30 17 C 0.796967 1.395545 2.003498 0
M  V30 18 C -2.779814 -1.734221 2.281667 0
M  V30 19 C -4.035780 -1.824632 2.797300 0
M  V30 20 C -5.034188 -2.669352 2.309302 0
M  V30 21 C -4.671925 -3.437481 1.237871 0
M  V30 22 N -5.362946 -4.358207 0.509659 0
M  V30 23 N -4.597504 -4.849405 -0.439281 0
M  V30 24 C -3.369944 -4.309237 -0.418346 0
M  V30 25 C -2.228680 -4.571293 -1.286805 0
M  V30 26 C -1.941843 -5.906046 -1.564111 0
M  V30 27 C -0.868374 -6.193003 -2.382833 0
M  V30 28 C -0.048086 -5.242018 -2.954004 0
M  V30 29 N 1.027775 -5.253617 -3.761700 0
M  V30 30 C 1.408816 -3.962558 -3.987497 0
M  V30 31 C 0.518745 -3.178375 -3.283238 0
M  V30 32 N -0.379549 -3.975926 -2.646412 0
M  V30 33 C -1.413159 -3.630161 -1.854856 0
M  V30 34 C -3.427199 -3.415559 0.648222 0
M  V30 35 C -2.498780 -2.542962 1.203197 0
M  V30 36 H -0.164569 -1.238534 1.565165 0
M  V30 37 H 0.480224 -0.516136 4.982541 0
M  V30 38 H 1.445005 1.078412 4.708294 0
M  V30 39 H 1.871925 -1.575653 3.211160 0
M  V30 40 H 3.286132 1.116940 3.303890 0
M  V30 41 H 3.872848 -0.426899 2.646808 0
M  V30 42 H 3.323557 1.710463 1.100562 0
M  V30 43 H 3.382244 0.023494 0.482704 0
M  V30 44 H 1.625053 0.836821 -1.181319 0
M  V30 45 H 0.084878 1.413577 -0.518244 0
M  V30 46 H 0.010798 3.844528 0.286936 0
M  V30 47 H 0.995976 6.119685 0.068443 0
M  V30 48 H 3.332116 6.352146 -0.849171 0
M  V30 49 H 4.561436 4.321131 -1.498667 0
M  V30 50 H 3.563495 2.142461 -1.267582 0
M  V30 51 H 1.470661 2.078735 2.562860 0
M  V30 52 H -0.132321 1.932000 1.730144 0
M  V30 53 H -4.311681 -1.199762 3.659604 0
M  V30 54 H -6.016440 -2.718099 2.738076 0
M  V30 55 H -6.349700 -4.677140 0.626753 0
M  V30 56 H -2.549821 -6.681457 -1.144052 0
M  V30 57 H -0.667977 -7.241265 -2.581969 0
M  V30 58 H 2.265208 -3.761162 -4.620626 0
M  V30 59 H 0.587987 -2.102694 -3.285126 0
M  V30 60 H -1.628164 -2.604434 -1.645821 0
M  V30 61 H -1.527643 -2.519333 0.750724 0
M  V30 END ATOM
M  V30 BEGIN BOND
M  V30 1 2 1 2
M  V30 2 1 2 3
M  V30 3 1 3 4
M  V30 4 1 4 5
M  V30 5 1 5 6
M  V30 6 1 6 7
M  V30 7 1 7 8
M  V30 8 1 8 9
M  V30 9 1 9 10
M  V30 10 1 10 11
M  V30 11 2 11 12
M  V30 12 1 12 13
M  V30 13 2 13 14
M  V30 14 1 14 15
M  V30 15 2 15 16
M  V30 16 1 9 17
M  V30 17 1 2 18
M  V30 18 2 18 19
M  V30 19 1 19 20
M  V30 20 2 20 21
M  V30 21 1 21 22
M  V30 22 1 22 23
M  V30 23 2 23 24
M  V30 24 1 24 25
M  V30 25 1 25 26
M  V30 26 2 26 27
M  V30 27 1 27 28
M  V30 28 2 28 29
M  V30 29 1 29 30
M  V30 30 2 30 31
M  V30 31 1 31 32
M  V30 32 1 32 33
M  V30 33 1 24 34
M  V30 34 2 34 35
M  V30 35 1 6 4
M  V30 36 1 16 11
M  V30 37 1 35 18
M  V30 38 1 17 4
M  V30 39 1 34 21
M  V30 40 2 33 25
M  V30 41 1 32 28
M  V30 42 1 3 36
M  V30 43 1 5 37
M  V30 44 1 5 38
M  V30 45 1 6 39
M  V30 46 1 7 40
M  V30 47 1 7 41
M  V30 48 1 8 42
M  V30 49 1 8 43
M  V30 50 1 10 44
M  V30 51 1 10 45
M  V30 52 1 12 46
M  V30 53 1 13 47
M  V30 54 1 14 48
M  V30 55 1 15 49
M  V30 56 1 16 50
M  V30 57 1 17 51
M  V30 58 1 17 52
M  V30 59 1 19 53
M  V30 60 1 20 54
M  V30 61 1 22 55
M  V30 62 1 26 56
M  V30 63 1 27 57
M  V30 64 1 30 58
M  V30 65 1 31 59
M  V30 66 1 33 60
M  V30 67 1 35 61
M  V30 END BOND
M  V30 END CTAB
M  END
>  <Dataset>  (578) 
ChEMBL_Kinases

>  <Ligand_Instance>  (578) 
nan

>  <PDB_ID>  (578) 
nan

>  <Standardized_SMILES>  (578) 
O=C(NC12CC1CCN(Cc1ccccc1)C2)c1ccc2[nH]nc(-c3ccc4nccn4c3)c2c1

>  <Name>  (578) 
nan

>  <Pocket>  (578) 
nan

>  <ATP_Site>  (578) 
nan

>  <Peripheral>  (578) 
nan

>  <Num_H_Atoms_ProtBoundConf>  (578) 
nan

>  <Num_Resolved_Atoms>  (578) 
nan

>  <Num_Not_Resolved_Atoms>  (578) 
nan

$$$$
CHEMBL3654588
     RDKit          3D

  0  0  0  0  0  0  0  0  0  0999 V3000
M  V30 BEGIN CTAB
M  V30 COUNTS 63 68 0 0 0
M  V30 BEGIN ATOM
M  V30 1 C 1.353432 -1.589404 1.978718 0
M  V30 2 O 1.689787 -0.223195 2.074393 0
M  V30 3 C 2.668966 0.315337 1.285157 0
M  V30 4 C 3.365280 -0.440725 0.370716 0
M  V30 5 C 4.351859 0.137004 -0.412797 0
M  V30 6 C 4.609505 1.483642 -0.245980 0
M  V30 7 C 3.907462 2.233379 0.672055 0
M  V30 8 F 4.322428 3.537072 0.672616 0
M  V30 9 C 2.911300 1.658432 1.465642 0
M  V30 10 C 2.246373 2.586471 2.398410 0
M  V30 11 N 0.934241 3.010847 1.974815 0
M  V30 12 C -0.416089 2.523202 2.176527 0
M  V30 13 C -1.265096 2.530118 0.945544 0 CFG=2
M  V30 14 N -1.709496 1.173179 0.696142 0
M  V30 15 C -3.072035 0.811606 0.760338 0
M  V30 16 O -3.864177 1.745052 1.049872 0
M  V30 17 C -3.636703 -0.506835 0.529171 0
M  V30 18 C -5.000335 -0.632089 0.685735 0
M  V30 19 C -5.685110 -1.836838 0.492191 0
M  V30 20 C -4.927653 -2.934548 0.127008 0
M  V30 21 N -5.218273 -4.201168 -0.137215 0
M  V30 22 N -4.105468 -4.847789 -0.444920 0
M  V30 23 C -3.050766 -4.032551 -0.393626 0
M  V30 24 C -1.700904 -4.490111 -0.691517 0
M  V30 25 C -1.600448 -5.280124 -1.838769 0
M  V30 26 C -0.409273 -5.813642 -2.287967 0
M  V30 27 C 0.721279 -5.537830 -1.549516 0
M  V30 28 N 2.000637 -5.906752 -1.726972 0
M  V30 29 C 2.753094 -5.388904 -0.736820 0
M  V30 30 C 1.859897 -4.689862 0.044612 0
M  V30 31 N 0.614819 -4.779796 -0.451502 0
M  V30 32 C -0.531297 -4.254626 -0.001842 0
M  V30 33 C -3.559270 -2.804882 -0.029101 0
M  V30 34 C -2.896946 -1.611478 0.164836 0
M  V30 35 C -0.611500 3.133382 -0.269070 0
M  V30 36 C 0.000157 4.483402 0.055926 0
M  V30 37 C 0.981494 4.206783 1.166095 0
M  V30 38 O 1.805344 5.153588 1.257216 0
M  V30 39 H 0.423206 -1.835920 2.522237 0
M  V30 40 H 2.224706 -2.209786 2.326200 0
M  V30 41 H 1.176962 -1.898945 0.922779 0
M  V30 42 H 3.122882 -1.504234 0.277279 0
M  V30 43 H 4.856996 -0.520487 -1.109935 0
M  V30 44 H 5.392493 1.843160 -0.898526 0
M  V30 45 H 2.095876 2.008340 3.357790 0
M  V30 46 H 2.873453 3.438318 2.663425 0
M  V30 47 H -0.335257 1.516411 2.638045 0
M  V30 48 H -0.917313 3.138545 2.986617 0
M  V30 49 H -2.173787 3.147139 1.137701 0
M  V30 50 H -1.032109 0.402134 0.456603 0
M  V30 51 H -5.660154 0.177148 0.968887 0
M  V30 52 H -6.733904 -1.962921 0.605813 0
M  V30 53 H -6.149857 -4.680733 -0.124650 0
M  V30 54 H -2.459733 -5.523532 -2.450334 0
M  V30 55 H -0.336464 -6.417123 -3.165324 0
M  V30 56 H 3.831426 -5.508248 -0.601049 0
M  V30 57 H 2.175062 -4.157850 0.929984 0
M  V30 58 H -0.656544 -3.640111 0.876729 0
M  V30 59 H -1.845947 -1.533359 0.040012 0
M  V30 60 H 0.194765 2.515118 -0.693705 0
M  V30 61 H -1.352209 3.299622 -1.062505 0
M  V30 62 H 0.521476 4.847505 -0.857502 0
M  V30 63 H -0.728003 5.207896 0.447600 0
M  V30 END ATOM
M  V30 BEGIN BOND
M  V30 1 1 1 2
M  V30 2 1 2 3
M  V30 3 2 3 4
M  V30 4 1 4 5
M  V30 5 2 5 6
M  V30 6 1 6 7
M  V30 7 1 7 8
M  V30 8 2 7 9
M  V30 9 1 9 10
M  V30 10 1 10 11
M  V30 11 1 11 12
M  V30 12 1 12 13
M  V30 13 1 13 14
M  V30 14 1 14 15
M  V30 15 2 15 16
M  V30 16 1 15 17
M  V30 17 2 17 18
M  V30 18 1 18 19
M  V30 19 2 19 20
M  V30 20 1 20 21
M  V30 21 1 21 22
M  V30 22 2 22 23
M  V30 23 1 23 24
M  V30 24 1 24 25
M  V30 25 2 25 26
M  V30 26 1 26 27
M  V30 27 2 27 28
M  V30 28 1 28 29
M  V30 29 2 29 30
M  V30 30 1 30 31
M  V30 31 1 31 32
M  V30 32 1 23 33
M  V30 33 2 33 34
M  V30 34 1 13 35
M  V30 35 1 35 36
M  V30 36 1 36 37
M  V30 37 2 37 38
M  V30 38 1 9 3
M  V30 39 1 37 11
M  V30 40 1 34 17
M  V30 41 1 33 20
M  V30 42 2 32 24
M  V30 43 1 31 27
M  V30 44 1 1 39
M  V30 45 1 1 40
M  V30 46 1 1 41
M  V30 47 1 4 42
M  V30 48 1 5 43
M  V30 49 1 6 44
M  V30 50 1 10 45
M  V30 51 1 10 46
M  V30 52 1 12 47
M  V30 53 1 12 48
M  V30 54 1 13 49 CFG=1
M  V30 55 1 14 50
M  V30 56 1 18 51
M  V30 57 1 19 52
M  V30 58 1 21 53
M  V30 59 1 25 54
M  V30 60 1 26 55
M  V30 61 1 29 56
M  V30 62 1 30 57
M  V30 63 1 32 58
M  V30 64 1 34 59
M  V30 65 1 35 60
M  V30 66 1 35 61
M  V30 67 1 36 62
M  V30 68 1 36 63
M  V30 END BOND
M  V30 END CTAB
M  END
>  <Dataset>  (579) 
ChEMBL_Kinases

>  <Ligand_Instance>  (579) 
nan

>  <PDB_ID>  (579) 
nan

>  <Standardized_SMILES>  (579) 
COc1cccc(F)c1CN1C[C@H](NC(=O)c2ccc3[nH]nc(-c4ccc5nccn5c4)c3c2)CCC1=O

>  <Name>  (579) 
nan

>  <Pocket>  (579) 
nan

>  <ATP_Site>  (579) 
nan

>  <Peripheral>  (579) 
nan

>  <Num_H_Atoms_ProtBoundConf>  (579) 
nan

>  <Num_Resolved_Atoms>  (579) 
nan

>  <Num_Not_Resolved_Atoms>  (579) 
nan

$$$$
CHEMBL3654587
     RDKit          3D

  0  0  0  0  0  0  0  0  0  0999 V3000
M  V30 BEGIN CTAB
M  V30 COUNTS 63 68 0 0 0
M  V30 BEGIN ATOM
M  V30 1 C 2.120950 3.313746 5.517799 0
M  V30 2 O 2.187782 2.796064 4.203378 0
M  V30 3 C 3.315101 2.925329 3.423729 0
M  V30 4 C 4.416599 3.591790 3.964525 0
M  V30 5 C 5.581187 3.766027 3.257470 0
M  V30 6 C 5.618875 3.253063 1.984587 0
M  V30 7 C 4.547356 2.591380 1.426476 0
M  V30 8 F 4.566048 2.075579 0.177000 0
M  V30 9 C 3.380936 2.412595 2.123808 0
M  V30 10 C 2.133347 1.720621 1.670619 0
M  V30 11 N 1.091235 2.636930 1.342172 0
M  V30 12 C 1.351668 3.541387 0.285564 0
M  V30 13 C 0.116249 3.853235 -0.538355 0
M  V30 14 C -0.598126 2.625021 -0.987304 0
M  V30 15 C -0.719133 1.554917 0.028964 0 CFG=1
M  V30 16 N -0.145925 0.293928 -0.437291 0
M  V30 17 C -0.918331 -0.892340 -0.576898 0
M  V30 18 O -2.153643 -0.782011 -0.266439 0
M  V30 19 C -0.379766 -2.166954 -1.038306 0
M  V30 20 C 0.915939 -2.393053 -1.385514 0
M  V30 21 C 1.370831 -3.627699 -1.818469 0
M  V30 22 C 0.495307 -4.694044 -1.912090 0
M  V30 23 N 0.657931 -5.990988 -2.297493 0
M  V30 24 N -0.527955 -6.604166 -2.200664 0
M  V30 25 C -1.409977 -5.721086 -1.767792 0
M  V30 26 C -2.871464 -5.837505 -1.476549 0
M  V30 27 N -3.796685 -5.262930 -1.117063 0
M  V30 28 C -5.037659 -5.669400 -0.953219 0
M  V30 29 C -6.133150 -4.952135 -0.517675 0
M  V30 30 C -7.353358 -5.580743 -0.418508 0
M  V30 31 C -7.592910 -6.904931 -0.723693 0
M  V30 32 C -6.536849 -7.671302 -1.163848 0
M  V30 33 C -5.311796 -6.999453 -1.252377 0
M  V30 34 S -3.601530 -7.566165 -1.782963 0
M  V30 35 C -0.841979 -4.484912 -1.560199 0
M  V30 36 C -1.238744 -3.242132 -1.137890 0
M  V30 37 C -0.167414 1.987040 1.339833 0
M  V30 38 H 1.204636 2.932601 6.033206 0
M  V30 39 H 3.042279 2.984957 6.076635 0
M  V30 40 H 2.044001 4.404362 5.493616 0
M  V30 41 H 4.420052 4.011206 4.972212 0
M  V30 42 H 6.449040 4.284704 3.667781 0
M  V30 43 H 6.500458 3.341266 1.344299 0
M  V30 44 H 2.456906 1.065386 0.834276 0
M  V30 45 H 1.866968 1.032685 2.497845 0
M  V30 46 H 2.194703 3.220297 -0.328182 0
M  V30 47 H 1.648037 4.532768 0.739219 0
M  V30 48 H -0.520210 4.590081 -0.021968 0
M  V30 49 H 0.482830 4.376832 -1.461573 0
M  V30 50 H -0.187528 2.212996 -1.940632 0
M  V30 51 H -1.635273 2.963881 -1.278697 0
M  V30 52 H -1.805306 1.339378 0.203050 0
M  V30 53 H 0.857523 0.180283 -0.698262 0
M  V30 54 H 1.617641 -1.596105 -1.326036 0
M  V30 55 H 2.403952 -3.789326 -2.090195 0
M  V30 56 H 1.538704 -6.446529 -2.614743 0
M  V30 57 H -6.136328 -3.905488 -0.234301 0
M  V30 58 H -8.248311 -5.032916 -0.073044 0
M  V30 59 H -8.522030 -7.446709 -0.665420 0
M  V30 60 H -6.504783 -8.704619 -1.450463 0
M  V30 61 H -2.281194 -3.095162 -0.867899 0
M  V30 62 H -0.147824 1.057932 1.987380 0
M  V30 63 H -0.925351 2.657968 1.806861 0
M  V30 END ATOM
M  V30 BEGIN BOND
M  V30 1 1 1 2
M  V30 2 1 2 3
M  V30 3 2 3 4
M  V30 4 1 4 5
M  V30 5 2 5 6
M  V30 6 1 6 7
M  V30 7 1 7 8
M  V30 8 2 7 9
M  V30 9 1 9 10
M  V30 10 1 10 11
M  V30 11 1 11 12
M  V30 12 1 12 13
M  V30 13 1 13 14
M  V30 14 1 14 15
M  V30 15 1 15 16
M  V30 16 1 16 17
M  V30 17 2 17 18
M  V30 18 1 17 19
M  V30 19 2 19 20
M  V30 20 1 20 21
M  V30 21 2 21 22
M  V30 22 1 22 23
M  V30 23 1 23 24
M  V30 24 2 24 25
M  V30 25 1 25 26
M  V30 26 2 26 27
M  V30 27 1 27 28
M  V30 28 2 28 29
M  V30 29 1 29 30
M  V30 30 2 30 31
M  V30 31 1 31 32
M  V30 32 2 32 33
M  V30 33 1 33 34
M  V30 34 1 25 35
M  V30 35 2 35 36
M  V30 36 1 15 37
M  V30 37 1 9 3
M  V30 38 1 37 11
M  V30 39 1 36 19
M  V30 40 1 35 22
M  V30 41 1 34 26
M  V30 42 1 33 28
M  V30 43 1 1 38
M  V30 44 1 1 39
M  V30 45 1 1 40
M  V30 46 1 4 41
M  V30 47 1 5 42
M  V30 48 1 6 43
M  V30 49 1 10 44
M  V30 50 1 10 45
M  V30 51 1 12 46
M  V30 52 1 12 47
M  V30 53 1 13 48
M  V30 54 1 13 49
M  V30 55 1 14 50
M  V30 56 1 14 51
M  V30 57 1 15 52 CFG=1
M  V30 58 1 16 53
M  V30 59 1 20 54
M  V30 60 1 21 55
M  V30 61 1 23 56
M  V30 62 1 29 57
M  V30 63 1 30 58
M  V30 64 1 31 59
M  V30 65 1 32 60
M  V30 66 1 36 61
M  V30 67 1 37 62
M  V30 68 1 37 63
M  V30 END BOND
M  V30 END CTAB
M  END
>  <Dataset>  (580) 
ChEMBL_Kinases

>  <Ligand_Instance>  (580) 
nan

>  <PDB_ID>  (580) 
nan

>  <Standardized_SMILES>  (580) 
COc1cccc(F)c1CN1CCC[C@@H](NC(=O)c2ccc3[nH]nc(-c4nc5ccccc5s4)c3c2)C1

>  <Name>  (580) 
nan

>  <Pocket>  (580) 
nan

>  <ATP_Site>  (580) 
nan

>  <Peripheral>  (580) 
nan

>  <Num_H_Atoms_ProtBoundConf>  (580) 
nan

>  <Num_Resolved_Atoms>  (580) 
nan

>  <Num_Not_Resolved_Atoms>  (580) 
nan

$$$$
CHEMBL3654586
     RDKit          3D

  0  0  0  0  0  0  0  0  0  0999 V3000
M  V30 BEGIN CTAB
M  V30 COUNTS 66 71 0 0 0
M  V30 BEGIN ATOM
M  V30 1 C 6.936322 -4.617966 0.939979 0
M  V30 2 O 6.094830 -3.515017 1.194674 0
M  V30 3 C 5.356055 -3.511087 2.365792 0
M  V30 4 C 5.426328 -4.542265 3.274826 0
M  V30 5 C 4.696526 -4.538406 4.441927 0
M  V30 6 C 3.870767 -3.466596 4.704700 0
M  V30 7 C 3.841245 -2.466759 3.760160 0
M  V30 8 F 3.003795 -1.425195 4.072144 0
M  V30 9 C 4.554309 -2.404896 2.553065 0
M  V30 10 C 4.315422 -1.229903 1.689152 0
M  V30 11 N 3.342581 -1.405076 0.651236 0
M  V30 12 C 3.694748 -2.406390 -0.279976 0
M  V30 13 C 2.725413 -2.482317 -1.455257 0
M  V30 14 C 2.460631 -1.161441 -2.096565 0
M  V30 15 C 2.074921 -0.174276 -0.999847 0 CFG=1
M  V30 16 N 0.856233 -0.642964 -0.409794 0
M  V30 17 C -0.386407 0.010151 -0.349223 0
M  V30 18 O -0.446502 1.169911 -0.885781 0
M  V30 19 C -1.569890 -0.562798 0.279646 0
M  V30 20 C -1.580088 -1.805699 0.878908 0
M  V30 21 C -2.708092 -2.337666 1.470789 0
M  V30 22 C -3.897339 -1.628264 1.485732 0
M  V30 23 N -5.140312 -1.835060 1.957053 0
M  V30 24 N -5.883308 -0.763208 1.665073 0
M  V30 25 C -5.123018 0.145092 1.001676 0
M  V30 26 C -5.707901 1.410818 0.568480 0
M  V30 27 C -6.515173 2.220369 1.341303 0
M  V30 28 C -7.000781 3.400657 0.784707 0
M  V30 29 C -6.716355 3.795181 -0.489361 0
M  V30 30 N -7.077902 4.887810 -1.219929 0
M  V30 31 C -6.493142 4.737256 -2.422879 0
M  V30 32 C -6.430674 5.493931 -3.693422 0
M  V30 33 F -6.604661 4.694475 -4.809331 0
M  V30 34 F -7.443333 6.432623 -3.714257 0
M  V30 35 F -5.223276 6.124665 -3.799457 0
M  V30 36 N -5.793502 3.585383 -2.428661 0
M  V30 37 N -5.917069 2.982916 -1.238738 0
M  V30 38 C -5.428047 1.830227 -0.730933 0
M  V30 39 C -3.857439 -0.390324 0.879942 0
M  V30 40 C -2.747752 0.153236 0.287888 0
M  V30 41 C 3.229379 -0.127202 -0.054763 0
M  V30 42 H 6.384549 -5.579142 0.894521 0
M  V30 43 H 7.688463 -4.714090 1.777330 0
M  V30 44 H 7.550218 -4.459553 0.025593 0
M  V30 45 H 6.105387 -5.367641 3.003572 0
M  V30 46 H 4.766351 -5.352002 5.135580 0
M  V30 47 H 3.281191 -3.422199 5.607145 0
M  V30 48 H 4.026963 -0.379642 2.383268 0
M  V30 49 H 5.295943 -0.847217 1.263944 0
M  V30 50 H 3.600126 -3.390885 0.223563 0
M  V30 51 H 4.691555 -2.289919 -0.732558 0
M  V30 52 H 3.239702 -3.120367 -2.230797 0
M  V30 53 H 1.811420 -3.007837 -1.179743 0
M  V30 54 H 3.303188 -0.799547 -2.714916 0
M  V30 55 H 1.525290 -1.275847 -2.710034 0
M  V30 56 H 1.908785 0.837190 -1.426470 0
M  V30 57 H 0.965658 -1.586917 0.008865 0
M  V30 58 H -0.678436 -2.401002 0.895261 0
M  V30 59 H -2.672638 -3.317655 1.930018 0
M  V30 60 H -5.398354 -2.722782 2.459879 0
M  V30 61 H -6.720795 1.883547 2.338199 0
M  V30 62 H -7.629831 4.017869 1.406345 0
M  V30 63 H -4.807948 1.272128 -1.420618 0
M  V30 64 H -2.773877 1.115344 -0.165389 0
M  V30 65 H 3.147405 0.737767 0.632155 0
M  V30 66 H 4.158922 -0.037830 -0.658156 0
M  V30 END ATOM
M  V30 BEGIN BOND
M  V30 1 1 1 2
M  V30 2 1 2 3
M  V30 3 2 3 4
M  V30 4 1 4 5
M  V30 5 2 5 6
M  V30 6 1 6 7
M  V30 7 1 7 8
M  V30 8 2 7 9
M  V30 9 1 9 10
M  V30 10 1 10 11
M  V30 11 1 11 12
M  V30 12 1 12 13
M  V30 13 1 13 14
M  V30 14 1 14 15
M  V30 15 1 15 16
M  V30 16 1 16 17
M  V30 17 2 17 18
M  V30 18 1 17 19
M  V30 19 2 19 20
M  V30 20 1 20 21
M  V30 21 2 21 22
M  V30 22 1 22 23
M  V30 23 1 23 24
M  V30 24 2 24 25
M  V30 25 1 25 26
M  V30 26 1 26 27
M  V30 27 2 27 28
M  V30 28 1 28 29
M  V30 29 2 29 30
M  V30 30 1 30 31
M  V30 31 1 31 32
M  V30 32 1 32 33
M  V30 33 1 32 34
M  V30 34 1 32 35
M  V30 35 2 31 36
M  V30 36 1 36 37
M  V30 37 1 37 38
M  V30 38 1 25 39
M  V30 39 2 39 40
M  V30 40 1 15 41
M  V30 41 1 9 3
M  V30 42 1 41 11
M  V30 43 1 40 19
M  V30 44 1 39 22
M  V30 45 2 38 26
M  V30 46 1 37 29
M  V30 47 1 1 42
M  V30 48 1 1 43
M  V30 49 1 1 44
M  V30 50 1 4 45
M  V30 51 1 5 46
M  V30 52 1 6 47
M  V30 53 1 10 48
M  V30 54 1 10 49
M  V30 55 1 12 50
M  V30 56 1 12 51
M  V30 57 1 13 52
M  V30 58 1 13 53
M  V30 59 1 14 54
M  V30 60 1 14 55
M  V30 61 1 15 56 CFG=3
M  V30 62 1 16 57
M  V30 63 1 20 58
M  V30 64 1 21 59
M  V30 65 1 23 60
M  V30 66 1 27 61
M  V30 67 1 28 62
M  V30 68 1 38 63
M  V30 69 1 40 64
M  V30 70 1 41 65
M  V30 71 1 41 66
M  V30 END BOND
M  V30 END CTAB
M  END
>  <Dataset>  (581) 
ChEMBL_Kinases

>  <Ligand_Instance>  (581) 
nan

>  <PDB_ID>  (581) 
nan

>  <Standardized_SMILES>  (581) 
COc1cccc(F)c1CN1CCC[C@@H](NC(=O)c2ccc3[nH]nc(-c4ccc5nc(C(F)(F)F)nn5c4)c3c2)C1

>  <Name>  (581) 
nan

>  <Pocket>  (581) 
nan

>  <ATP_Site>  (581) 
nan

>  <Peripheral>  (581) 
nan

>  <Num_H_Atoms_ProtBoundConf>  (581) 
nan

>  <Num_Resolved_Atoms>  (581) 
nan

>  <Num_Not_Resolved_Atoms>  (581) 
nan

$$$$
CHEMBL3654585
     RDKit          3D

  0  0  0  0  0  0  0  0  0  0999 V3000
M  V30 BEGIN CTAB
M  V30 COUNTS 62 67 0 0 0
M  V30 BEGIN ATOM
M  V30 1 C -1.254486 1.133336 5.911118 0
M  V30 2 O -0.820931 1.068518 4.556939 0
M  V30 3 C 0.517753 1.276511 4.301760 0
M  V30 4 C 1.433062 1.542230 5.314278 0
M  V30 5 C 2.796465 1.756301 5.076003 0
M  V30 6 C 3.262284 1.700694 3.756223 0
M  V30 7 C 2.311556 1.433930 2.793175 0
M  V30 8 F 2.773332 1.381007 1.506919 0
M  V30 9 C 0.964053 1.219100 2.998204 0
M  V30 10 C 0.086354 0.944038 1.828632 0
M  V30 11 N -0.709815 2.065267 1.452017 0
M  V30 12 C -0.003816 3.244501 1.075777 0
M  V30 13 C 0.328604 3.377188 -0.371291 0
M  V30 14 C -0.106258 2.248403 -1.242899 0
M  V30 15 C -1.448527 1.694282 -0.885511 0 CFG=1
M  V30 16 N -1.498255 0.312144 -1.370741 0
M  V30 17 C -2.344568 -0.178497 -2.400927 0
M  V30 18 O -3.157777 0.561995 -3.009693 0
M  V30 19 C -2.298330 -1.582849 -2.795090 0
M  V30 20 C -3.160655 -2.005691 -3.810018 0
M  V30 21 C -3.139008 -3.334741 -4.207448 0
M  V30 22 C -2.292240 -4.266300 -3.635963 0
M  V30 23 N -2.026516 -5.582765 -3.780925 0
M  V30 24 N -1.082730 -5.950078 -2.932629 0
M  V30 25 C -0.676127 -4.919534 -2.190982 0
M  V30 26 C 0.352645 -4.967422 -1.158155 0
M  V30 27 C 1.577628 -5.592604 -1.294904 0
M  V30 28 C 2.494764 -5.591694 -0.261975 0
M  V30 29 C 2.249193 -4.979567 0.944173 0
M  V30 30 N 2.931504 -4.821505 2.093984 0
M  V30 31 O 2.176169 -4.128577 2.923178 0
M  V30 32 N 1.046180 -3.846102 2.337021 0
M  V30 33 C 1.028738 -4.353297 1.088916 0
M  V30 34 C 0.079966 -4.337449 0.060791 0
M  V30 35 C -1.431136 -3.848028 -2.623566 0
M  V30 36 C -1.468273 -2.528387 -2.244967 0
M  V30 37 C -1.785443 1.801597 0.562633 0
M  V30 38 H -2.343854 0.971938 5.992698 0
M  V30 39 H -0.697684 0.381180 6.486415 0
M  V30 40 H -0.983154 2.140748 6.316415 0
M  V30 41 H 1.107519 1.593020 6.353392 0
M  V30 42 H 3.485420 1.961277 5.884547 0
M  V30 43 H 4.299276 1.856076 3.498478 0
M  V30 44 H 0.716151 0.656274 0.961200 0
M  V30 45 H -0.640290 0.114810 2.061860 0
M  V30 46 H 0.948853 3.360126 1.658497 0
M  V30 47 H -0.625427 4.115324 1.423592 0
M  V30 48 H 1.419857 3.560845 -0.535004 0
M  V30 49 H -0.181620 4.299884 -0.777397 0
M  V30 50 H -0.143488 2.630935 -2.295171 0
M  V30 51 H 0.663234 1.426697 -1.306716 0
M  V30 52 H -2.213034 2.227409 -1.524231 0
M  V30 53 H -0.824227 -0.276271 -0.857358 0
M  V30 54 H -3.854908 -1.323363 -4.303861 0
M  V30 55 H -3.796790 -3.682082 -4.989714 0
M  V30 56 H -2.544151 -6.155550 -4.491421 0
M  V30 57 H 1.764523 -6.067436 -2.234534 0
M  V30 58 H 3.462171 -6.095310 -0.394042 0
M  V30 59 H -0.824196 -3.816752 0.309118 0
M  V30 60 H -0.802255 -2.215984 -1.467591 0
M  V30 61 H -2.386460 0.909174 0.874193 0
M  V30 62 H -2.512010 2.658837 0.676287 0
M  V30 END ATOM
M  V30 BEGIN BOND
M  V30 1 1 1 2
M  V30 2 1 2 3
M  V30 3 2 3 4
M  V30 4 1 4 5
M  V30 5 2 5 6
M  V30 6 1 6 7
M  V30 7 1 7 8
M  V30 8 2 7 9
M  V30 9 1 9 10
M  V30 10 1 10 11
M  V30 11 1 11 12
M  V30 12 1 12 13
M  V30 13 1 13 14
M  V30 14 1 14 15
M  V30 15 1 15 16
M  V30 16 1 16 17
M  V30 17 2 17 18
M  V30 18 1 17 19
M  V30 19 2 19 20
M  V30 20 1 20 21
M  V30 21 2 21 22
M  V30 22 1 22 23
M  V30 23 1 23 24
M  V30 24 2 24 25
M  V30 25 1 25 26
M  V30 26 1 26 27
M  V30 27 2 27 28
M  V30 28 1 28 29
M  V30 29 2 29 30
M  V30 30 1 30 31
M  V30 31 1 31 32
M  V30 32 2 32 33
M  V30 33 1 33 34
M  V30 34 1 25 35
M  V30 35 2 35 36
M  V30 36 1 15 37
M  V30 37 1 9 3
M  V30 38 1 37 11
M  V30 39 1 36 19
M  V30 40 1 35 22
M  V30 41 2 34 26
M  V30 42 1 33 29
M  V30 43 1 1 38
M  V30 44 1 1 39
M  V30 45 1 1 40
M  V30 46 1 4 41
M  V30 47 1 5 42
M  V30 48 1 6 43
M  V30 49 1 10 44
M  V30 50 1 10 45
M  V30 51 1 12 46
M  V30 52 1 12 47
M  V30 53 1 13 48
M  V30 54 1 13 49
M  V30 55 1 14 50
M  V30 56 1 14 51
M  V30 57 1 15 52 CFG=3
M  V30 58 1 16 53
M  V30 59 1 20 54
M  V30 60 1 21 55
M  V30 61 1 23 56
M  V30 62 1 27 57
M  V30 63 1 28 58
M  V30 64 1 34 59
M  V30 65 1 36 60
M  V30 66 1 37 61
M  V30 67 1 37 62
M  V30 END BOND
M  V30 END CTAB
M  END
>  <Dataset>  (582) 
ChEMBL_Kinases

>  <Ligand_Instance>  (582) 
nan

>  <PDB_ID>  (582) 
nan

>  <Standardized_SMILES>  (582) 
COc1cccc(F)c1CN1CCC[C@@H](NC(=O)c2ccc3[nH]nc(-c4ccc5nonc5c4)c3c2)C1

>  <Name>  (582) 
nan

>  <Pocket>  (582) 
nan

>  <ATP_Site>  (582) 
nan

>  <Peripheral>  (582) 
nan

>  <Num_H_Atoms_ProtBoundConf>  (582) 
nan

>  <Num_Resolved_Atoms>  (582) 
nan

>  <Num_Not_Resolved_Atoms>  (582) 
nan

$$$$
CHEMBL3654584
     RDKit          3D

  0  0  0  0  0  0  0  0  0  0999 V3000
M  V30 BEGIN CTAB
M  V30 COUNTS 62 67 0 0 0
M  V30 BEGIN ATOM
M  V30 1 C 2.663131 3.246333 5.305091 0
M  V30 2 O 2.548853 2.880400 3.951229 0
M  V30 3 C 3.272927 3.520758 2.983579 0
M  V30 4 C 4.133548 4.543415 3.321942 0
M  V30 5 C 4.873153 5.201155 2.351960 0
M  V30 6 C 4.704382 4.784439 1.054630 0
M  V30 7 C 3.854336 3.766177 0.674649 0
M  V30 8 F 3.692492 3.358286 -0.606820 0
M  V30 9 C 3.122678 3.118652 1.650911 0
M  V30 10 C 2.157220 1.991221 1.377742 0
M  V30 11 N 0.809550 2.406650 1.446384 0
M  V30 12 C 0.363133 3.405506 0.567302 0
M  V30 13 C -1.108148 3.414796 0.298851 0
M  V30 14 C -1.562257 2.049834 -0.169087 0
M  V30 15 C -1.050513 0.955703 0.738347 0 CFG=1
M  V30 16 N -0.589744 -0.098896 -0.101468 0
M  V30 17 C -1.252133 -1.360635 -0.153689 0
M  V30 18 O -2.268080 -1.500965 0.584004 0
M  V30 19 C -0.792179 -2.464125 -1.020276 0
M  V30 20 C 0.306118 -2.408485 -1.879849 0
M  V30 21 C 0.627859 -3.516206 -2.637522 0
M  V30 22 C -0.089498 -4.694700 -2.589718 0
M  V30 23 N -0.029133 -5.900001 -3.182968 0
M  V30 24 N -1.004068 -6.672439 -2.745784 0
M  V30 25 C -1.757671 -6.009288 -1.838304 0
M  V30 26 C -2.930582 -6.541821 -1.135931 0
M  V30 27 C -2.977924 -6.314635 0.222302 0
M  V30 28 C -4.067050 -6.797330 0.908373 0
M  V30 29 C -5.022685 -7.460452 0.229016 0
M  V30 30 N -6.254206 -8.024671 0.902585 0
M  V30 31 S -7.164871 -8.757774 -0.289117 0
M  V30 32 N -6.030712 -8.389020 -1.715986 0
M  V30 33 C -5.047013 -7.719889 -1.085461 0
M  V30 34 C -3.950884 -7.229815 -1.752831 0
M  V30 35 C -1.170260 -4.747963 -1.742753 0
M  V30 36 C -1.497208 -3.642445 -0.982313 0
M  V30 37 C -0.175748 1.447339 1.821508 0
M  V30 38 H 1.814952 2.821311 5.901396 0
M  V30 39 H 3.592983 2.852591 5.790129 0
M  V30 40 H 2.656998 4.343763 5.458220 0
M  V30 41 H 4.276186 4.882750 4.343563 0
M  V30 42 H 5.550868 6.006114 2.621056 0
M  V30 43 H 5.281066 5.296197 0.289301 0
M  V30 44 H 2.375400 1.695150 0.309660 0
M  V30 45 H 2.404430 1.156851 2.028382 0
M  V30 46 H 0.874449 3.407442 -0.420089 0
M  V30 47 H 0.656302 4.401332 1.015649 0
M  V30 48 H -1.411173 4.153400 -0.448100 0
M  V30 49 H -1.628184 3.667575 1.245206 0
M  V30 50 H -2.666370 2.046613 -0.137712 0
M  V30 51 H -1.313483 1.869879 -1.235591 0
M  V30 52 H -1.957226 0.564574 1.256241 0
M  V30 53 H 0.260008 0.060307 -0.695198 0
M  V30 54 H 0.847513 -1.477665 -1.896685 0
M  V30 55 H 1.477912 -3.472470 -3.301851 0
M  V30 56 H 0.738322 -6.091114 -3.887442 0
M  V30 57 H -2.233671 -5.788204 0.825600 0
M  V30 58 H -4.153993 -6.649373 1.962955 0
M  V30 59 H -3.783063 -7.334720 -2.809844 0
M  V30 60 H -2.357665 -3.704967 -0.320359 0
M  V30 61 H 0.355110 0.679022 2.405423 0
M  V30 62 H -0.795667 1.952294 2.623268 0
M  V30 END ATOM
M  V30 BEGIN BOND
M  V30 1 1 1 2
M  V30 2 1 2 3
M  V30 3 2 3 4
M  V30 4 1 4 5
M  V30 5 2 5 6
M  V30 6 1 6 7
M  V30 7 1 7 8
M  V30 8 2 7 9
M  V30 9 1 9 10
M  V30 10 1 10 11
M  V30 11 1 11 12
M  V30 12 1 12 13
M  V30 13 1 13 14
M  V30 14 1 14 15
M  V30 15 1 15 16
M  V30 16 1 16 17
M  V30 17 2 17 18
M  V30 18 1 17 19
M  V30 19 2 19 20
M  V30 20 1 20 21
M  V30 21 2 21 22
M  V30 22 1 22 23
M  V30 23 1 23 24
M  V30 24 2 24 25
M  V30 25 1 25 26
M  V30 26 1 26 27
M  V30 27 2 27 28
M  V30 28 1 28 29
M  V30 29 2 29 30
M  V30 30 1 30 31
M  V30 31 1 31 32
M  V30 32 2 32 33
M  V30 33 1 33 34
M  V30 34 1 25 35
M  V30 35 2 35 36
M  V30 36 1 15 37
M  V30 37 1 9 3
M  V30 38 1 37 11
M  V30 39 1 36 19
M  V30 40 1 35 22
M  V30 41 2 34 26
M  V30 42 1 33 29
M  V30 43 1 1 38
M  V30 44 1 1 39
M  V30 45 1 1 40
M  V30 46 1 4 41
M  V30 47 1 5 42
M  V30 48 1 6 43
M  V30 49 1 10 44
M  V30 50 1 10 45
M  V30 51 1 12 46
M  V30 52 1 12 47
M  V30 53 1 13 48
M  V30 54 1 13 49
M  V30 55 1 14 50
M  V30 56 1 14 51
M  V30 57 1 15 52 CFG=1
M  V30 58 1 16 53
M  V30 59 1 20 54
M  V30 60 1 21 55
M  V30 61 1 23 56
M  V30 62 1 27 57
M  V30 63 1 28 58
M  V30 64 1 34 59
M  V30 65 1 36 60
M  V30 66 1 37 61
M  V30 67 1 37 62
M  V30 END BOND
M  V30 END CTAB
M  END
>  <Dataset>  (583) 
ChEMBL_Kinases

>  <Ligand_Instance>  (583) 
nan

>  <PDB_ID>  (583) 
nan

>  <Standardized_SMILES>  (583) 
COc1cccc(F)c1CN1CCC[C@@H](NC(=O)c2ccc3[nH]nc(-c4ccc5nsnc5c4)c3c2)C1

>  <Name>  (583) 
nan

>  <Pocket>  (583) 
nan

>  <ATP_Site>  (583) 
nan

>  <Peripheral>  (583) 
nan

>  <Num_H_Atoms_ProtBoundConf>  (583) 
nan

>  <Num_Resolved_Atoms>  (583) 
nan

>  <Num_Not_Resolved_Atoms>  (583) 
nan

$$$$
CHEMBL3654583
     RDKit          3D

  0  0  0  0  0  0  0  0  0  0999 V3000
M  V30 BEGIN CTAB
M  V30 COUNTS 61 65 0 0 0
M  V30 BEGIN ATOM
M  V30 1 O 1.558230 -1.946970 3.241479 0
M  V30 2 C 1.830318 -3.103855 2.822493 0
M  V30 3 C 2.512165 -3.368974 1.512409 0
M  V30 4 N 2.795740 -2.180904 0.781420 0
M  V30 5 C 3.781778 -1.381374 1.405137 0
M  V30 6 C 4.652239 -0.626568 0.418048 0
M  V30 7 C 4.056051 0.716519 0.068430 0
M  V30 8 C 2.742402 0.574847 -0.664910 0
M  V30 9 C 1.716689 -0.051810 0.223812 0
M  V30 10 N 0.374428 0.436947 -0.066651 0
M  V30 11 C -0.357939 1.162641 0.898954 0
M  V30 12 O 0.106911 1.413471 2.027598 0
M  V30 13 C -1.698378 1.645890 0.597854 0
M  V30 14 C -2.366330 2.354777 1.592142 0
M  V30 15 C -3.656119 2.852645 1.388463 0
M  V30 16 C -4.260443 2.624416 0.167741 0
M  V30 17 N -5.457548 2.943586 -0.368697 0
M  V30 18 N -5.563186 2.480844 -1.613449 0
M  V30 19 C -4.420152 1.823880 -1.959566 0
M  V30 20 C -4.172387 1.183265 -3.249190 0
M  V30 21 C -4.475401 1.806049 -4.439477 0
M  V30 22 C -4.208821 1.131134 -5.618357 0
M  V30 23 N -3.664377 -0.113599 -5.680494 0
M  V30 24 C -3.370678 -0.715666 -4.496342 0
M  V30 25 C -3.620380 -0.077580 -3.282866 0
M  V30 26 C -3.624743 1.926345 -0.836108 0
M  V30 27 C -2.353050 1.450187 -0.599378 0
M  V30 28 C 1.679664 -1.535326 0.175402 0
M  V30 29 C 1.526350 -4.336887 3.538917 0
M  V30 30 C 1.795232 -5.647435 3.135575 0
M  V30 31 C 1.445019 -6.707706 3.928250 0
M  V30 32 C 0.819262 -6.564536 5.148174 0
M  V30 33 C 0.547839 -5.276278 5.559245 0
M  V30 34 C 0.891297 -4.196576 4.777498 0
M  V30 35 H 3.445254 -3.924736 1.731026 0
M  V30 36 H 1.856764 -4.075689 0.961362 0
M  V30 37 H 4.432433 -2.097775 2.009083 0
M  V30 38 H 3.420634 -0.660159 2.160011 0
M  V30 39 H 5.610884 -0.416985 0.947850 0
M  V30 40 H 4.906946 -1.217738 -0.474343 0
M  V30 41 H 4.765276 1.216139 -0.623515 0
M  V30 42 H 3.999041 1.335291 0.973730 0
M  V30 43 H 2.929928 0.033918 -1.593742 0
M  V30 44 H 2.403280 1.638807 -0.838327 0
M  V30 45 H 1.912417 0.284768 1.260484 0
M  V30 46 H 0.024647 0.209137 -1.012838 0
M  V30 47 H -1.941727 2.561751 2.564741 0
M  V30 48 H -4.165602 3.400125 2.164519 0
M  V30 49 H -6.212196 3.485853 0.124759 0
M  V30 50 H -4.911711 2.799544 -4.460394 0
M  V30 51 H -4.434274 1.590359 -6.585106 0
M  V30 52 H -2.939763 -1.703145 -4.594742 0
M  V30 53 H -3.350708 -0.648400 -2.405165 0
M  V30 54 H -1.851355 0.908632 -1.370653 0
M  V30 55 H 1.461758 -1.926671 -0.856106 0
M  V30 56 H 0.771500 -1.888676 0.757412 0
M  V30 57 H 2.283495 -5.689338 2.174905 0
M  V30 58 H 1.694901 -7.703046 3.529781 0
M  V30 59 H 0.600288 -7.484370 5.667388 0
M  V30 60 H 0.058695 -5.173309 6.512565 0
M  V30 61 H 0.639701 -3.210303 5.177188 0
M  V30 END ATOM
M  V30 BEGIN BOND
M  V30 1 2 1 2
M  V30 2 1 2 3
M  V30 3 1 3 4
M  V30 4 1 4 5
M  V30 5 1 5 6
M  V30 6 1 6 7
M  V30 7 1 7 8
M  V30 8 1 8 9
M  V30 9 1 9 10
M  V30 10 1 10 11
M  V30 11 2 11 12
M  V30 12 1 11 13
M  V30 13 2 13 14
M  V30 14 1 14 15
M  V30 15 2 15 16
M  V30 16 1 16 17
M  V30 17 1 17 18
M  V30 18 2 18 19
M  V30 19 1 19 20
M  V30 20 2 20 21
M  V30 21 1 21 22
M  V30 22 2 22 23
M  V30 23 1 23 24
M  V30 24 2 24 25
M  V30 25 1 19 26
M  V30 26 2 26 27
M  V30 27 1 9 28
M  V30 28 1 2 29
M  V30 29 2 29 30
M  V30 30 1 30 31
M  V30 31 2 31 32
M  V30 32 1 32 33
M  V30 33 2 33 34
M  V30 34 1 28 4
M  V30 35 1 34 29
M  V30 36 1 27 13
M  V30 37 1 26 16
M  V30 38 1 25 20
M  V30 39 1 3 35
M  V30 40 1 3 36
M  V30 41 1 5 37
M  V30 42 1 5 38
M  V30 43 1 6 39
M  V30 44 1 6 40
M  V30 45 1 7 41
M  V30 46 1 7 42
M  V30 47 1 8 43
M  V30 48 1 8 44
M  V30 49 1 9 45
M  V30 50 1 10 46
M  V30 51 1 14 47
M  V30 52 1 15 48
M  V30 53 1 17 49
M  V30 54 1 21 50
M  V30 55 1 22 51
M  V30 56 1 24 52
M  V30 57 1 25 53
M  V30 58 1 27 54
M  V30 59 1 28 55
M  V30 60 1 28 56
M  V30 61 1 30 57
M  V30 62 1 31 58
M  V30 63 1 32 59
M  V30 64 1 33 60
M  V30 65 1 34 61
M  V30 END BOND
M  V30 END CTAB
M  END
>  <Dataset>  (584) 
ChEMBL_Kinases

>  <Ligand_Instance>  (584) 
nan

>  <PDB_ID>  (584) 
nan

>  <Standardized_SMILES>  (584) 
O=C(CN1CCCCC(NC(=O)c2ccc3[nH]nc(-c4ccncc4)c3c2)C1)c1ccccc1

>  <Name>  (584) 
nan

>  <Pocket>  (584) 
nan

>  <ATP_Site>  (584) 
nan

>  <Peripheral>  (584) 
nan

>  <Num_H_Atoms_ProtBoundConf>  (584) 
nan

>  <Num_Resolved_Atoms>  (584) 
nan

>  <Num_Not_Resolved_Atoms>  (584) 
nan

$$$$
CHEMBL3654582
     RDKit          3D

  0  0  0  0  0  0  0  0  0  0999 V3000
M  V30 BEGIN CTAB
M  V30 COUNTS 62 66 0 0 0
M  V30 BEGIN ATOM
M  V30 1 C 4.834597 -3.218995 4.691732 0
M  V30 2 O 3.976062 -2.354851 3.959617 0
M  V30 3 C 4.204460 -2.150852 2.616771 0
M  V30 4 O 5.222591 -2.871845 2.411397 0
M  V30 5 C 3.476697 -1.319037 1.641103 0 CFG=1
M  V30 6 C 3.097297 -2.226718 0.493354 0
M  V30 7 C 2.239306 -1.558614 -0.532390 0
M  V30 8 C 1.362111 -0.479656 0.020879 0 CFG=1
M  V30 9 N 0.152529 -0.274289 -0.700092 0
M  V30 10 C -0.355798 0.887111 -1.332451 0
M  V30 11 O 0.292384 1.961876 -1.309030 0
M  V30 12 C -1.637451 0.895488 -2.032456 0
M  V30 13 C -2.049077 2.079577 -2.609836 0
M  V30 14 C -3.269455 2.117409 -3.286159 0
M  V30 15 C -4.079877 0.998566 -3.394312 0
M  V30 16 N -5.267083 0.700630 -3.953022 0
M  V30 17 N -5.579940 -0.562816 -3.747177 0
M  V30 18 C -4.610222 -1.195988 -3.029598 0
M  V30 19 C -4.577329 -2.588224 -2.598109 0
M  V30 20 C -4.913383 -3.603640 -3.478807 0
M  V30 21 C -4.903058 -4.937263 -3.134924 0
M  V30 22 N -4.546362 -5.269390 -1.872746 0
M  V30 23 C -4.209563 -4.340048 -0.969569 0
M  V30 24 C -4.228514 -3.011867 -1.340821 0
M  V30 25 C -3.667024 -0.205431 -2.810379 0
M  V30 26 C -2.445258 -0.217798 -2.140783 0
M  V30 27 C 1.115013 -0.809361 1.499793 0
M  V30 28 N 2.361404 -0.604465 2.149418 0
M  V30 29 C 2.352552 -0.344868 3.537458 0
M  V30 30 C 1.558531 0.881069 3.806381 0
M  V30 31 C 2.178980 2.135460 3.775565 0
M  V30 32 C 1.585412 3.358469 4.006956 0
M  V30 33 C 0.233213 3.334634 4.299934 0
M  V30 34 C -0.434176 2.130275 4.345242 0
M  V30 35 C 0.212086 0.936120 4.104869 0
M  V30 36 H 5.784287 -2.727143 4.957649 0
M  V30 37 H 5.041812 -4.161141 4.121986 0
M  V30 38 H 4.324905 -3.583976 5.623833 0
M  V30 39 H 4.193987 -0.550119 1.238594 0
M  V30 40 H 4.071201 -2.487429 -0.006695 0
M  V30 41 H 2.656743 -3.155194 0.867064 0
M  V30 42 H 2.841510 -1.168888 -1.360312 0
M  V30 43 H 1.579560 -2.362041 -0.965271 0
M  V30 44 H 1.953221 0.459282 0.049617 0
M  V30 45 H -0.374848 -1.175587 -0.710946 0
M  V30 46 H -1.487750 3.002732 -2.579024 0
M  V30 47 H -3.632448 3.029514 -3.755892 0
M  V30 48 H -5.830666 1.413660 -4.472931 0
M  V30 49 H -5.205703 -3.411145 -4.494675 0
M  V30 50 H -5.160469 -5.744662 -3.802231 0
M  V30 51 H -3.933883 -4.665755 0.021824 0
M  V30 52 H -3.955711 -2.267327 -0.605671 0
M  V30 53 H -2.149711 -1.138779 -1.705219 0
M  V30 54 H 0.693357 -1.822719 1.613521 0
M  V30 55 H 0.383138 -0.069007 1.867960 0
M  V30 56 H 1.961682 -1.191997 4.149838 0
M  V30 57 H 3.391288 -0.102239 3.844184 0
M  V30 58 H 3.245206 2.132094 3.542733 0
M  V30 59 H 2.190948 4.249639 3.949301 0
M  V30 60 H -0.256449 4.278180 4.485442 0
M  V30 61 H -1.493630 2.135547 4.576730 0
M  V30 62 H -0.314412 -0.008407 4.144488 0
M  V30 END ATOM
M  V30 BEGIN BOND
M  V30 1 1 1 2
M  V30 2 1 2 3
M  V30 3 2 3 4
M  V30 4 1 3 5
M  V30 5 1 5 6
M  V30 6 1 6 7
M  V30 7 1 7 8
M  V30 8 1 8 9
M  V30 9 1 9 10
M  V30 10 2 10 11
M  V30 11 1 10 12
M  V30 12 2 12 13
M  V30 13 1 13 14
M  V30 14 2 14 15
M  V30 15 1 15 16
M  V30 16 1 16 17
M  V30 17 2 17 18
M  V30 18 1 18 19
M  V30 19 2 19 20
M  V30 20 1 20 21
M  V30 21 2 21 22
M  V30 22 1 22 23
M  V30 23 2 23 24
M  V30 24 1 18 25
M  V30 25 2 25 26
M  V30 26 1 8 27
M  V30 27 1 27 28
M  V30 28 1 28 29
M  V30 29 1 29 30
M  V30 30 2 30 31
M  V30 31 1 31 32
M  V30 32 2 32 33
M  V30 33 1 33 34
M  V30 34 2 34 35
M  V30 35 1 28 5
M  V30 36 1 35 30
M  V30 37 1 26 12
M  V30 38 1 25 15
M  V30 39 1 24 19
M  V30 40 1 1 36
M  V30 41 1 1 37
M  V30 42 1 1 38
M  V30 43 1 5 39 CFG=3
M  V30 44 1 6 40
M  V30 45 1 6 41
M  V30 46 1 7 42
M  V30 47 1 7 43
M  V30 48 1 8 44 CFG=1
M  V30 49 1 9 45
M  V30 50 1 13 46
M  V30 51 1 14 47
M  V30 52 1 16 48
M  V30 53 1 20 49
M  V30 54 1 21 50
M  V30 55 1 23 51
M  V30 56 1 24 52
M  V30 57 1 26 53
M  V30 58 1 27 54
M  V30 59 1 27 55
M  V30 60 1 29 56
M  V30 61 1 29 57
M  V30 62 1 31 58
M  V30 63 1 32 59
M  V30 64 1 33 60
M  V30 65 1 34 61
M  V30 66 1 35 62
M  V30 END BOND
M  V30 END CTAB
M  END
>  <Dataset>  (585) 
ChEMBL_Kinases

>  <Ligand_Instance>  (585) 
nan

>  <PDB_ID>  (585) 
nan

>  <Standardized_SMILES>  (585) 
COC(=O)[C@H]1CC[C@@H](NC(=O)c2ccc3[nH]nc(-c4ccncc4)c3c2)CN1Cc1ccccc1

>  <Name>  (585) 
nan

>  <Pocket>  (585) 
nan

>  <ATP_Site>  (585) 
nan

>  <Peripheral>  (585) 
nan

>  <Num_H_Atoms_ProtBoundConf>  (585) 
nan

>  <Num_Resolved_Atoms>  (585) 
nan

>  <Num_Not_Resolved_Atoms>  (585) 
nan

$$$$
CHEMBL3654581
     RDKit          3D

  0  0  0  0  0  0  0  0  0  0999 V3000
M  V30 BEGIN CTAB
M  V30 COUNTS 62 66 0 0 0
M  V30 BEGIN ATOM
M  V30 1 O 0.439946 -3.086903 1.944844 0
M  V30 2 C -0.188340 -2.045286 1.592254 0
M  V30 3 N 0.639256 -0.899049 1.492737 0
M  V30 4 C 2.048780 -0.861416 1.754325 0
M  V30 5 C 2.495135 0.247731 2.659176 0
M  V30 6 C 3.880638 0.694382 2.311818 0
M  V30 7 C 3.998687 1.541079 1.094555 0
M  V30 8 C 2.676168 1.806729 0.388842 0
M  V30 9 N 2.083750 0.620201 -0.119454 0
M  V30 10 C 1.815047 0.565630 -1.512594 0
M  V30 11 C 0.723053 1.446437 -2.035150 0
M  V30 12 C 0.882964 2.880588 -1.848055 0
M  V30 13 C 1.607294 3.556570 -2.820092 0
M  V30 14 C 1.861230 4.909902 -2.851047 0
M  V30 15 C 1.358121 5.682717 -1.830936 0
M  V30 16 F 1.587299 7.009429 -1.830542 0
M  V30 17 C 0.625382 5.071440 -0.827642 0
M  V30 18 C 0.393605 3.714558 -0.833201 0
M  V30 19 C 2.699312 -0.592366 0.387557 0
M  V30 20 C -1.626246 -2.034902 1.316158 0
M  V30 21 C -2.359889 -0.912666 0.984650 0
M  V30 22 C -3.713411 -0.962290 0.729837 0
M  V30 23 C -4.339185 -2.190284 0.814629 0
M  V30 24 N -5.612430 -2.596650 0.634819 0
M  V30 25 N -5.686064 -3.908599 0.840427 0
M  V30 26 C -4.487031 -4.423073 1.160259 0
M  V30 27 C -4.233225 -5.831564 1.444246 0
M  V30 28 C -3.123067 -6.391400 0.844228 0
M  V30 29 C -2.760592 -7.718332 1.025307 0
M  V30 30 N -3.545769 -8.476779 1.829976 0
M  V30 31 C -4.617333 -7.973236 2.421085 0
M  V30 32 C -5.007109 -6.642557 2.258159 0
M  V30 33 C -3.635639 -3.330717 1.143157 0
M  V30 34 C -2.278503 -3.258994 1.395212 0
M  V30 35 H 0.219114 0.012173 1.207091 0
M  V30 36 H 2.495011 -1.801239 2.118285 0
M  V30 37 H 2.540490 -0.172774 3.701207 0
M  V30 38 H 1.767125 1.083123 2.711015 0
M  V30 39 H 4.268852 1.227370 3.230954 0
M  V30 40 H 4.516808 -0.237135 2.290754 0
M  V30 41 H 4.334940 2.568803 1.425265 0
M  V30 42 H 4.762652 1.224841 0.361546 0
M  V30 43 H 2.045856 2.400891 1.087547 0
M  V30 44 H 2.939363 2.474617 -0.456546 0
M  V30 45 H 2.758665 0.730202 -2.128788 0
M  V30 46 H 1.517355 -0.486451 -1.813724 0
M  V30 47 H 0.632112 1.241047 -3.134426 0
M  V30 48 H -0.246433 1.111758 -1.587642 0
M  V30 49 H 2.041208 3.016565 -3.663780 0
M  V30 50 H 2.432942 5.378142 -3.636546 0
M  V30 51 H 0.221704 5.649761 -0.021637 0
M  V30 52 H -0.174947 3.160463 -0.076308 0
M  V30 53 H 2.391392 -1.425872 -0.268511 0
M  V30 54 H 3.785217 -0.572829 0.421286 0
M  V30 55 H -1.842607 0.017658 0.928604 0
M  V30 56 H -4.251282 -0.061881 0.473670 0
M  V30 57 H -6.415271 -1.956597 0.371379 0
M  V30 58 H -2.407432 -5.892133 0.172136 0
M  V30 59 H -1.902824 -8.201903 0.578408 0
M  V30 60 H -5.228894 -8.596227 3.058355 0
M  V30 61 H -5.878646 -6.181225 2.721551 0
M  V30 62 H -1.725485 -4.143719 1.653020 0
M  V30 END ATOM
M  V30 BEGIN BOND
M  V30 1 2 1 2
M  V30 2 1 2 3
M  V30 3 1 3 4
M  V30 4 1 4 5
M  V30 5 1 5 6
M  V30 6 1 6 7
M  V30 7 1 7 8
M  V30 8 1 8 9
M  V30 9 1 9 10
M  V30 10 1 10 11
M  V30 11 1 11 12
M  V30 12 2 12 13
M  V30 13 1 13 14
M  V30 14 2 14 15
M  V30 15 1 15 16
M  V30 16 1 15 17
M  V30 17 2 17 18
M  V30 18 1 9 19
M  V30 19 1 2 20
M  V30 20 2 20 21
M  V30 21 1 21 22
M  V30 22 2 22 23
M  V30 23 1 23 24
M  V30 24 1 24 25
M  V30 25 2 25 26
M  V30 26 1 26 27
M  V30 27 2 27 28
M  V30 28 1 28 29
M  V30 29 2 29 30
M  V30 30 1 30 31
M  V30 31 2 31 32
M  V30 32 1 26 33
M  V30 33 2 33 34
M  V30 34 1 19 4
M  V30 35 1 34 20
M  V30 36 1 18 12
M  V30 37 1 33 23
M  V30 38 1 32 27
M  V30 39 1 3 35
M  V30 40 1 4 36
M  V30 41 1 5 37
M  V30 42 1 5 38
M  V30 43 1 6 39
M  V30 44 1 6 40
M  V30 45 1 7 41
M  V30 46 1 7 42
M  V30 47 1 8 43
M  V30 48 1 8 44
M  V30 49 1 10 45
M  V30 50 1 10 46
M  V30 51 1 11 47
M  V30 52 1 11 48
M  V30 53 1 13 49
M  V30 54 1 14 50
M  V30 55 1 17 51
M  V30 56 1 18 52
M  V30 57 1 19 53
M  V30 58 1 19 54
M  V30 59 1 21 55
M  V30 60 1 22 56
M  V30 61 1 24 57
M  V30 62 1 28 58
M  V30 63 1 29 59
M  V30 64 1 31 60
M  V30 65 1 32 61
M  V30 66 1 34 62
M  V30 END BOND
M  V30 END CTAB
M  END
>  <Dataset>  (586) 
ChEMBL_Kinases

>  <Ligand_Instance>  (586) 
nan

>  <PDB_ID>  (586) 
nan

>  <Standardized_SMILES>  (586) 
O=C(NC1CCCCN(CCc2ccc(F)cc2)C1)c1ccc2[nH]nc(-c3ccncc3)c2c1

>  <Name>  (586) 
nan

>  <Pocket>  (586) 
nan

>  <ATP_Site>  (586) 
nan

>  <Peripheral>  (586) 
nan

>  <Num_H_Atoms_ProtBoundConf>  (586) 
nan

>  <Num_Resolved_Atoms>  (586) 
nan

>  <Num_Not_Resolved_Atoms>  (586) 
nan

$$$$
CHEMBL3654580
     RDKit          3D

  0  0  0  0  0  0  0  0  0  0999 V3000
M  V30 BEGIN CTAB
M  V30 COUNTS 56 60 0 0 0
M  V30 BEGIN ATOM
M  V30 1 O 0.182907 -2.773005 1.475899 0
M  V30 2 C -0.275797 -1.623418 1.352217 0
M  V30 3 N 0.334661 -0.691142 2.243659 0
M  V30 4 C 1.364863 -0.927643 3.213839 0
M  V30 5 C 2.601201 -0.137707 2.841271 0
M  V30 6 N 2.332165 1.238939 2.976812 0
M  V30 7 C 3.031533 2.156820 2.171817 0
M  V30 8 C 2.876093 2.010844 0.711492 0
M  V30 9 C 3.750043 1.203153 0.011732 0
M  V30 10 C 3.647384 1.033191 -1.353384 0
M  V30 11 C 2.668106 1.659041 -2.095024 0
M  V30 12 C 1.774220 2.480089 -1.407053 0
M  V30 13 C 1.884347 2.646283 -0.030788 0
M  V30 14 C 1.883595 1.680956 4.244831 0
M  V30 15 C 0.750244 0.898750 4.815427 0
M  V30 16 F -0.436499 1.339901 4.287456 0
M  V30 17 F 0.728713 1.079452 6.195998 0
M  V30 18 C 0.879642 -0.588414 4.584682 0
M  V30 19 C -1.319015 -1.208316 0.421682 0
M  V30 20 C -1.829324 0.053628 0.279311 0
M  V30 21 C -2.815462 0.355626 -0.626969 0
M  V30 22 C -3.353311 -0.625350 -1.459695 0
M  V30 23 N -4.303063 -0.609654 -2.413806 0
M  V30 24 N -4.404206 -1.833358 -2.877387 0
M  V30 25 C -3.537308 -2.656885 -2.245549 0
M  V30 26 C -3.383475 -4.084909 -2.512096 0
M  V30 27 C -3.284292 -5.095796 -1.583937 0
M  V30 28 C -3.142581 -6.393671 -2.042653 0
M  V30 29 N -3.102059 -6.667852 -3.355078 0
M  V30 30 C -3.196193 -5.704523 -4.283346 0
M  V30 31 C -3.339771 -4.384645 -3.878326 0
M  V30 32 C -2.835650 -1.900988 -1.313948 0
M  V30 33 C -1.839091 -2.206197 -0.398099 0
M  V30 34 H 0.053098 0.321675 2.258395 0
M  V30 35 H 1.682789 -1.995172 3.219349 0
M  V30 36 H 2.872596 -0.379453 1.811419 0
M  V30 37 H 3.409726 -0.434913 3.536486 0
M  V30 38 H 2.752515 3.180760 2.495215 0
M  V30 39 H 4.129223 2.078824 2.425505 0
M  V30 40 H 4.563128 0.652821 0.458355 0
M  V30 41 H 4.332475 0.395810 -1.924944 0
M  V30 42 H 2.596504 1.520299 -3.157499 0
M  V30 43 H 1.000350 2.976652 -1.982362 0
M  V30 44 H 1.182357 3.288813 0.497178 0
M  V30 45 H 1.620265 2.736735 4.225610 0
M  V30 46 H 2.749780 1.584102 4.948411 0
M  V30 47 H 1.485775 -1.053539 5.388723 0
M  V30 48 H -0.144651 -1.037416 4.706201 0
M  V30 49 H -1.416008 0.809567 0.919866 0
M  V30 50 H -3.202078 1.350146 -0.723473 0
M  V30 51 H -4.864798 0.226642 -2.733790 0
M  V30 52 H -3.325870 -4.788368 -0.554647 0
M  V30 53 H -3.069676 -7.144348 -1.267595 0
M  V30 54 H -3.160856 -5.949921 -5.352900 0
M  V30 55 H -3.412124 -3.638467 -4.659653 0
M  V30 56 H -1.503634 -3.230314 -0.361993 0
M  V30 END ATOM
M  V30 BEGIN BOND
M  V30 1 2 1 2
M  V30 2 1 2 3
M  V30 3 1 3 4
M  V30 4 1 4 5
M  V30 5 1 5 6
M  V30 6 1 6 7
M  V30 7 1 7 8
M  V30 8 2 8 9
M  V30 9 1 9 10
M  V30 10 2 10 11
M  V30 11 1 11 12
M  V30 12 2 12 13
M  V30 13 1 6 14
M  V30 14 1 14 15
M  V30 15 1 15 16
M  V30 16 1 15 17
M  V30 17 1 15 18
M  V30 18 1 2 19
M  V30 19 2 19 20
M  V30 20 1 20 21
M  V30 21 2 21 22
M  V30 22 1 22 23
M  V30 23 1 23 24
M  V30 24 2 24 25
M  V30 25 1 25 26
M  V30 26 2 26 27
M  V30 27 1 27 28
M  V30 28 2 28 29
M  V30 29 1 29 30
M  V30 30 2 30 31
M  V30 31 1 25 32
M  V30 32 2 32 33
M  V30 33 1 18 4
M  V30 34 1 33 19
M  V30 35 1 13 8
M  V30 36 1 32 22
M  V30 37 1 31 26
M  V30 38 1 3 34
M  V30 39 1 4 35
M  V30 40 1 5 36
M  V30 41 1 5 37
M  V30 42 1 7 38
M  V30 43 1 7 39
M  V30 44 1 9 40
M  V30 45 1 10 41
M  V30 46 1 11 42
M  V30 47 1 12 43
M  V30 48 1 13 44
M  V30 49 1 14 45
M  V30 50 1 14 46
M  V30 51 1 18 47
M  V30 52 1 18 48
M  V30 53 1 20 49
M  V30 54 1 21 50
M  V30 55 1 23 51
M  V30 56 1 27 52
M  V30 57 1 28 53
M  V30 58 1 30 54
M  V30 59 1 31 55
M  V30 60 1 33 56
M  V30 END BOND
M  V30 END CTAB
M  END
>  <Dataset>  (587) 
ChEMBL_Kinases

>  <Ligand_Instance>  (587) 
nan

>  <PDB_ID>  (587) 
nan

>  <Standardized_SMILES>  (587) 
O=C(NC1CN(Cc2ccccc2)CC(F)(F)C1)c1ccc2[nH]nc(-c3ccncc3)c2c1

>  <Name>  (587) 
nan

>  <Pocket>  (587) 
nan

>  <ATP_Site>  (587) 
nan

>  <Peripheral>  (587) 
nan

>  <Num_H_Atoms_ProtBoundConf>  (587) 
nan

>  <Num_Resolved_Atoms>  (587) 
nan

>  <Num_Not_Resolved_Atoms>  (587) 
nan

$$$$
CHEMBL3654579
     RDKit          3D

  0  0  0  0  0  0  0  0  0  0999 V3000
M  V30 BEGIN CTAB
M  V30 COUNTS 56 60 0 0 0
M  V30 BEGIN ATOM
M  V30 1 O -0.522678 -0.521873 -0.596894 0
M  V30 2 C -1.008818 -1.078427 0.390608 0
M  V30 3 N -0.611433 -0.473239 1.620952 0
M  V30 4 C 0.261141 0.666978 1.760992 0
M  V30 5 C 1.510692 0.452899 2.518656 0
M  V30 6 N 1.884956 1.617396 3.225907 0
M  V30 7 C 3.236427 1.931356 3.344948 0
M  V30 8 C 4.013453 2.155682 2.127360 0
M  V30 9 C 4.914326 1.255356 1.579140 0
M  V30 10 C 5.622399 1.521475 0.425561 0
M  V30 11 C 5.434041 2.742142 -0.226139 0
M  V30 12 C 4.542342 3.677535 0.283647 0
M  V30 13 C 3.851873 3.360306 1.451424 0
M  V30 14 F 3.002448 4.323100 1.883757 0
M  V30 15 C 1.000567 2.042799 4.253529 0
M  V30 16 C -0.440321 1.960771 3.786437 0
M  V30 17 F -1.077514 3.123916 4.167186 0
M  V30 18 F -1.123419 0.908440 4.346091 0
M  V30 19 C -0.518711 1.883063 2.279223 0
M  V30 20 C -1.898740 -2.231317 0.376079 0
M  V30 21 C -2.437054 -2.849552 1.508228 0
M  V30 22 C -3.272005 -3.938999 1.362605 0
M  V30 23 C -3.618010 -4.470272 0.137537 0
M  V30 24 N -4.400532 -5.506913 -0.213051 0
M  V30 25 N -4.365121 -5.551520 -1.528159 0
M  V30 26 C -3.593542 -4.589312 -2.052531 0
M  V30 27 C -3.323559 -4.338527 -3.461550 0
M  V30 28 C -3.004199 -5.328051 -4.363476 0
M  V30 29 C -2.747890 -5.113437 -5.697764 0
M  V30 30 N -2.810033 -3.856076 -6.166833 0
M  V30 31 C -3.124870 -2.870832 -5.284167 0
M  V30 32 C -3.393144 -3.034128 -3.924885 0
M  V30 33 C -3.083311 -3.856408 -0.992238 0
M  V30 34 C -2.240010 -2.757416 -0.862855 0
M  V30 35 H -0.933373 -0.821456 2.552962 0
M  V30 36 H 0.559734 0.966920 0.733047 0
M  V30 37 H 2.355338 0.197863 1.823622 0
M  V30 38 H 1.468512 -0.345519 3.285937 0
M  V30 39 H 3.766145 1.114691 3.918423 0
M  V30 40 H 3.342966 2.822859 3.985436 0
M  V30 41 H 5.048077 0.304415 2.104250 0
M  V30 42 H 6.330039 0.798468 0.006693 0
M  V30 43 H 5.969897 2.991040 -1.134462 0
M  V30 44 H 4.400288 4.621268 -0.225018 0
M  V30 45 H 1.226768 3.027975 4.651190 0
M  V30 46 H 1.088545 1.316714 5.109886 0
M  V30 47 H -1.589647 1.692233 2.018422 0
M  V30 48 H -0.231176 2.821334 1.807005 0
M  V30 49 H -2.166155 -2.433609 2.468281 0
M  V30 50 H -3.667950 -4.388058 2.280919 0
M  V30 51 H -4.915659 -6.127261 0.457775 0
M  V30 52 H -2.947753 -6.359553 -4.004456 0
M  V30 53 H -2.496348 -5.919397 -6.392430 0
M  V30 54 H -3.164492 -1.857343 -5.711205 0
M  V30 55 H -3.631879 -2.173656 -3.329892 0
M  V30 56 H -1.848123 -2.312707 -1.742863 0
M  V30 END ATOM
M  V30 BEGIN BOND
M  V30 1 2 1 2
M  V30 2 1 2 3
M  V30 3 1 3 4
M  V30 4 1 4 5
M  V30 5 1 5 6
M  V30 6 1 6 7
M  V30 7 1 7 8
M  V30 8 2 8 9
M  V30 9 1 9 10
M  V30 10 2 10 11
M  V30 11 1 11 12
M  V30 12 2 12 13
M  V30 13 1 13 14
M  V30 14 1 6 15
M  V30 15 1 15 16
M  V30 16 1 16 17
M  V30 17 1 16 18
M  V30 18 1 16 19
M  V30 19 1 2 20
M  V30 20 2 20 21
M  V30 21 1 21 22
M  V30 22 2 22 23
M  V30 23 1 23 24
M  V30 24 1 24 25
M  V30 25 2 25 26
M  V30 26 1 26 27
M  V30 27 2 27 28
M  V30 28 1 28 29
M  V30 29 2 29 30
M  V30 30 1 30 31
M  V30 31 2 31 32
M  V30 32 1 26 33
M  V30 33 2 33 34
M  V30 34 1 19 4
M  V30 35 1 34 20
M  V30 36 1 13 8
M  V30 37 1 33 23
M  V30 38 1 32 27
M  V30 39 1 3 35
M  V30 40 1 4 36
M  V30 41 1 5 37
M  V30 42 1 5 38
M  V30 43 1 7 39
M  V30 44 1 7 40
M  V30 45 1 9 41
M  V30 46 1 10 42
M  V30 47 1 11 43
M  V30 48 1 12 44
M  V30 49 1 15 45
M  V30 50 1 15 46
M  V30 51 1 19 47
M  V30 52 1 19 48
M  V30 53 1 21 49
M  V30 54 1 22 50
M  V30 55 1 24 51
M  V30 56 1 28 52
M  V30 57 1 29 53
M  V30 58 1 31 54
M  V30 59 1 32 55
M  V30 60 1 34 56
M  V30 END BOND
M  V30 END CTAB
M  END
>  <Dataset>  (588) 
ChEMBL_Kinases

>  <Ligand_Instance>  (588) 
nan

>  <PDB_ID>  (588) 
nan

>  <Standardized_SMILES>  (588) 
O=C(NC1CN(Cc2ccccc2F)CC(F)(F)C1)c1ccc2[nH]nc(-c3ccncc3)c2c1

>  <Name>  (588) 
nan

>  <Pocket>  (588) 
nan

>  <ATP_Site>  (588) 
nan

>  <Peripheral>  (588) 
nan

>  <Num_H_Atoms_ProtBoundConf>  (588) 
nan

>  <Num_Resolved_Atoms>  (588) 
nan

>  <Num_Not_Resolved_Atoms>  (588) 
nan

$$$$
CHEMBL3654578
     RDKit          3D

  0  0  0  0  0  0  0  0  0  0999 V3000
M  V30 BEGIN CTAB
M  V30 COUNTS 51 55 0 0 0
M  V30 BEGIN ATOM
M  V30 1 O -0.066518 1.183747 3.356966 0
M  V30 2 C -0.966332 0.503031 2.913209 0
M  V30 3 N 0.111607 0.180430 1.943035 0
M  V30 4 C 1.517933 0.528106 1.687237 0 CFG=2
M  V30 5 C 1.717211 1.231939 0.368509 0
M  V30 6 C 2.204121 0.348864 -0.743152 0
M  V30 7 C 3.185254 -0.702308 -0.283096 0
M  V30 8 N 3.571396 -0.626832 1.066007 0
M  V30 9 C 4.741814 -0.007649 1.471644 0
M  V30 10 C 4.960019 1.411562 1.169963 0
M  V30 11 N 5.553291 1.859944 0.050811 0
M  V30 12 C 5.557910 3.220562 0.167838 0
M  V30 13 O 4.982901 3.549636 1.324649 0
M  V30 14 N 4.616602 2.467932 1.941501 0
M  V30 15 C 2.440186 -0.637995 1.921487 0
M  V30 16 C -2.091697 -0.278221 2.451324 0
M  V30 17 C -3.046345 -0.081014 3.464011 0
M  V30 18 C -4.319385 -0.669940 3.405206 0
M  V30 19 C -4.532999 -1.440256 2.284376 0
M  V30 20 N -5.559727 -2.169456 1.814171 0
M  V30 21 N -5.281705 -2.749323 0.652898 0
M  V30 22 C -4.046427 -2.437094 0.282028 0
M  V30 23 C -3.414844 -2.895204 -0.931871 0
M  V30 24 C -3.449950 -4.187474 -1.397687 0
M  V30 25 C -2.859399 -4.649128 -2.553852 0
M  V30 26 N -2.176661 -3.748790 -3.308530 0
M  V30 27 C -2.082980 -2.457500 -2.938871 0
M  V30 28 C -2.700555 -2.037891 -1.755559 0
M  V30 29 C -3.580756 -1.613861 1.311072 0
M  V30 30 C -2.344298 -1.043142 1.366057 0
M  V30 31 H 0.147412 -0.482204 1.068373 0
M  V30 32 H 1.805141 1.275602 2.454585 0
M  V30 33 H 2.258863 2.195724 0.447873 0
M  V30 34 H 0.685749 1.549881 0.048717 0
M  V30 35 H 1.375484 -0.080777 -1.342579 0
M  V30 36 H 2.749298 1.018501 -1.447527 0
M  V30 37 H 4.047738 -0.816919 -1.001670 0
M  V30 38 H 2.645925 -1.689614 -0.408713 0
M  V30 39 H 5.635100 -0.579382 1.082706 0
M  V30 40 H 4.833361 -0.128818 2.587567 0
M  V30 41 H 6.003086 3.787474 -0.652053 0
M  V30 42 H 1.929679 -1.616179 1.780877 0
M  V30 43 H 2.763813 -0.650697 2.989789 0
M  V30 44 H -3.010204 0.502340 4.402970 0
M  V30 45 H -5.156992 -0.629522 4.073141 0
M  V30 46 H -6.500493 -2.298256 2.278260 0
M  V30 47 H -3.983251 -4.934757 -0.827477 0
M  V30 48 H -2.931670 -5.696683 -2.859404 0
M  V30 49 H -1.530122 -1.770193 -3.568239 0
M  V30 50 H -2.584215 -0.994272 -1.526721 0
M  V30 51 H -1.575663 -1.140630 0.642804 0
M  V30 END ATOM
M  V30 BEGIN BOND
M  V30 1 2 1 2
M  V30 2 1 2 3
M  V30 3 1 3 4
M  V30 4 1 4 5
M  V30 5 1 5 6
M  V30 6 1 6 7
M  V30 7 1 7 8
M  V30 8 1 8 9
M  V30 9 1 9 10
M  V30 10 1 10 11
M  V30 11 2 11 12
M  V30 12 1 12 13
M  V30 13 1 13 14
M  V30 14 1 8 15
M  V30 15 1 2 16
M  V30 16 2 16 17
M  V30 17 1 17 18
M  V30 18 2 18 19
M  V30 19 1 19 20
M  V30 20 1 20 21
M  V30 21 2 21 22
M  V30 22 1 22 23
M  V30 23 2 23 24
M  V30 24 1 24 25
M  V30 25 2 25 26
M  V30 26 1 26 27
M  V30 27 2 27 28
M  V30 28 1 22 29
M  V30 29 2 29 30
M  V30 30 1 15 4
M  V30 31 1 30 16
M  V30 32 2 14 10
M  V30 33 1 29 19
M  V30 34 1 28 23
M  V30 35 1 3 31
M  V30 36 1 4 32 CFG=1
M  V30 37 1 5 33
M  V30 38 1 5 34
M  V30 39 1 6 35
M  V30 40 1 6 36
M  V30 41 1 7 37
M  V30 42 1 7 38
M  V30 43 1 9 39
M  V30 44 1 9 40
M  V30 45 1 12 41
M  V30 46 1 15 42
M  V30 47 1 15 43
M  V30 48 1 17 44
M  V30 49 1 18 45
M  V30 50 1 20 46
M  V30 51 1 24 47
M  V30 52 1 25 48
M  V30 53 1 27 49
M  V30 54 1 28 50
M  V30 55 1 30 51
M  V30 END BOND
M  V30 END CTAB
M  END
>  <Dataset>  (589) 
ChEMBL_Kinases

>  <Ligand_Instance>  (589) 
nan

>  <PDB_ID>  (589) 
nan

>  <Standardized_SMILES>  (589) 
O=C(N[C@@H]1CCCN(Cc2ncon2)C1)c1ccc2[nH]nc(-c3ccncc3)c2c1

>  <Name>  (589) 
nan

>  <Pocket>  (589) 
nan

>  <ATP_Site>  (589) 
nan

>  <Peripheral>  (589) 
nan

>  <Num_H_Atoms_ProtBoundConf>  (589) 
nan

>  <Num_Resolved_Atoms>  (589) 
nan

>  <Num_Not_Resolved_Atoms>  (589) 
nan

$$$$
CHEMBL3654577
     RDKit          3D

  0  0  0  0  0  0  0  0  0  0999 V3000
M  V30 BEGIN CTAB
M  V30 COUNTS 71 77 0 0 0
M  V30 BEGIN ATOM
M  V30 1 C 5.728400 -2.276241 0.473465 0
M  V30 2 O 4.964661 -1.157663 0.818073 0
M  V30 3 C 4.871090 -0.639693 2.082877 0
M  V30 4 C 5.554322 -1.212862 3.143054 0
M  V30 5 C 5.454691 -0.684099 4.412175 0
M  V30 6 C 4.671213 0.426708 4.646430 0
M  V30 7 C 4.010419 0.961891 3.559831 0
M  V30 8 F 3.239228 2.055343 3.785698 0
M  V30 9 C 4.062705 0.481385 2.245486 0
M  V30 10 C 3.292577 1.161910 1.197304 0
M  V30 11 N 2.082086 0.543277 0.784915 0
M  V30 12 C 1.362373 1.213497 -0.224411 0
M  V30 13 C 0.133983 1.958315 0.153652 0
M  V30 14 N -1.033236 1.516300 -0.575145 0
M  V30 15 C -1.838213 2.270000 -1.472063 0
M  V30 16 O -1.566735 3.474636 -1.714074 0
M  V30 17 C -2.988732 1.716425 -2.145484 0
M  V30 18 C -3.712150 2.503108 -3.014278 0
M  V30 19 C -4.833755 1.998974 -3.682139 0
M  V30 20 C -5.248579 0.701884 -3.491682 0
M  V30 21 N -6.251828 -0.088897 -3.955456 0
M  V30 22 N -6.167722 -1.308689 -3.409906 0
M  V30 23 C -5.116090 -1.379696 -2.569221 0
M  V30 24 C -4.687645 -2.541591 -1.780378 0
M  V30 25 C -4.607253 -3.823812 -2.317528 0
M  V30 26 C -4.203954 -4.887678 -1.552553 0
M  V30 27 C -3.859891 -4.718688 -0.206401 0
M  V30 28 N -3.443837 -5.600581 0.720659 0
M  V30 29 C -3.247999 -4.934554 1.853075 0
M  V30 30 C -3.554907 -3.605028 1.607101 0
M  V30 31 N -3.940428 -3.474339 0.306039 0
M  V30 32 C -4.340015 -2.445866 -0.468068 0
M  V30 33 C -4.546310 -0.109545 -2.629470 0
M  V30 34 C -3.448177 0.425823 -1.992130 0
M  V30 35 C -0.026475 1.939829 1.626041 0
M  V30 36 C 0.026987 0.533614 2.133736 0
M  V30 37 C 1.330350 -0.147045 1.778727 0
M  V30 38 C 1.133232 -1.622478 1.523819 0
M  V30 39 C 0.450939 -2.137298 0.330439 0
M  V30 40 C 1.925823 -2.162094 0.352770 0
M  V30 41 H 5.122446 -3.226022 0.516999 0
M  V30 42 H 6.105550 -2.175958 -0.586353 0
M  V30 43 H 6.637288 -2.435384 1.069395 0
M  V30 44 H 6.173959 -2.072275 3.020050 0
M  V30 45 H 5.993472 -1.142426 5.228245 0
M  V30 46 H 4.557974 0.880342 5.618451 0
M  V30 47 H 3.927189 1.275936 0.280437 0
M  V30 48 H 3.103883 2.201246 1.531789 0
M  V30 49 H 1.121001 0.554955 -1.115446 0
M  V30 50 H 2.084453 1.953738 -0.684128 0
M  V30 51 H 0.246722 3.045079 -0.136576 0
M  V30 52 H -1.251822 0.516479 -0.368820 0
M  V30 53 H -3.482738 3.528257 -3.240750 0
M  V30 54 H -5.419557 2.588768 -4.366438 0
M  V30 55 H -6.972551 0.212906 -4.631399 0
M  V30 56 H -4.870163 -3.974295 -3.359974 0
M  V30 57 H -4.133308 -5.881750 -1.937028 0
M  V30 58 H -2.923417 -5.238001 2.823287 0
M  V30 59 H -3.510012 -2.769485 2.306558 0
M  V30 60 H -4.363047 -1.519754 0.052221 0
M  V30 61 H -2.898265 -0.213843 -1.316754 0
M  V30 62 H -0.947031 2.434171 1.993532 0
M  V30 63 H 0.811812 2.507694 2.081372 0
M  V30 64 H -0.166887 0.570924 3.226135 0
M  V30 65 H -0.845272 -0.006386 1.697473 0
M  V30 66 H 1.953632 -0.107226 2.698511 0
M  V30 67 H 1.160140 -2.276815 2.414262 0
M  V30 68 H 0.000271 -1.522973 -0.454830 0
M  V30 69 H -0.088232 -3.103541 0.450544 0
M  V30 70 H 2.482203 -1.495532 -0.315022 0
M  V30 71 H 2.396430 -3.162742 0.438876 0
M  V30 END ATOM
M  V30 BEGIN BOND
M  V30 1 1 1 2
M  V30 2 1 2 3
M  V30 3 2 3 4
M  V30 4 1 4 5
M  V30 5 2 5 6
M  V30 6 1 6 7
M  V30 7 1 7 8
M  V30 8 2 7 9
M  V30 9 1 9 10
M  V30 10 1 10 11
M  V30 11 1 11 12
M  V30 12 1 12 13
M  V30 13 1 13 14
M  V30 14 1 14 15
M  V30 15 2 15 16
M  V30 16 1 15 17
M  V30 17 2 17 18
M  V30 18 1 18 19
M  V30 19 2 19 20
M  V30 20 1 20 21
M  V30 21 1 21 22
M  V30 22 2 22 23
M  V30 23 1 23 24
M  V30 24 1 24 25
M  V30 25 2 25 26
M  V30 26 1 26 27
M  V30 27 2 27 28
M  V30 28 1 28 29
M  V30 29 2 29 30
M  V30 30 1 30 31
M  V30 31 1 31 32
M  V30 32 1 23 33
M  V30 33 2 33 34
M  V30 34 1 13 35
M  V30 35 1 35 36
M  V30 36 1 36 37
M  V30 37 1 37 38
M  V30 38 1 38 39
M  V30 39 1 39 40
M  V30 40 1 9 3
M  V30 41 1 37 11
M  V30 42 1 40 38
M  V30 43 1 34 17
M  V30 44 1 33 20
M  V30 45 2 32 24
M  V30 46 1 31 27
M  V30 47 1 1 41
M  V30 48 1 1 42
M  V30 49 1 1 43
M  V30 50 1 4 44
M  V30 51 1 5 45
M  V30 52 1 6 46
M  V30 53 1 10 47
M  V30 54 1 10 48
M  V30 55 1 12 49
M  V30 56 1 12 50
M  V30 57 1 13 51
M  V30 58 1 14 52
M  V30 59 1 18 53
M  V30 60 1 19 54
M  V30 61 1 21 55
M  V30 62 1 25 56
M  V30 63 1 26 57
M  V30 64 1 29 58
M  V30 65 1 30 59
M  V30 66 1 32 60
M  V30 67 1 34 61
M  V30 68 1 35 62
M  V30 69 1 35 63
M  V30 70 1 36 64
M  V30 71 1 36 65
M  V30 72 1 37 66
M  V30 73 1 38 67
M  V30 74 1 39 68
M  V30 75 1 39 69
M  V30 76 1 40 70
M  V30 77 1 40 71
M  V30 END BOND
M  V30 END CTAB
M  END
>  <Dataset>  (590) 
ChEMBL_Kinases

>  <Ligand_Instance>  (590) 
nan

>  <PDB_ID>  (590) 
nan

>  <Standardized_SMILES>  (590) 
COc1cccc(F)c1CN1CC(NC(=O)c2ccc3[nH]nc(-c4ccc5nccn5c4)c3c2)CCC1C1CC1

>  <Name>  (590) 
nan

>  <Pocket>  (590) 
nan

>  <ATP_Site>  (590) 
nan

>  <Peripheral>  (590) 
nan

>  <Num_H_Atoms_ProtBoundConf>  (590) 
nan

>  <Num_Resolved_Atoms>  (590) 
nan

>  <Num_Not_Resolved_Atoms>  (590) 
nan

$$$$
CHEMBL3654576
     RDKit          3D

  0  0  0  0  0  0  0  0  0  0999 V3000
M  V30 BEGIN CTAB
M  V30 COUNTS 57 62 0 0 0
M  V30 BEGIN ATOM
M  V30 1 C -1.686029 -4.993743 2.301125 0
M  V30 2 N -0.557871 -4.874995 1.383381 0
M  V30 3 C 0.429341 -4.097566 2.067030 0
M  V30 4 C 1.606390 -3.726584 1.196037 0
M  V30 5 N 1.653596 -2.300974 1.087756 0
M  V30 6 C 2.810627 -1.551188 1.436362 0
M  V30 7 O 3.812921 -2.166649 1.849232 0
M  V30 8 C 2.905841 -0.099031 1.343400 0
M  V30 9 C 4.090915 0.493127 1.716331 0
M  V30 10 C 4.262639 1.876490 1.657858 0
M  V30 11 C 3.239945 2.702762 1.220000 0
M  V30 12 N 3.032613 4.018118 1.031643 0
M  V30 13 N 1.803621 4.235136 0.572711 0
M  V30 14 C 1.134554 3.076431 0.433685 0
M  V30 15 C -0.237178 2.948677 -0.047329 0
M  V30 16 C -1.166451 2.136286 0.567814 0
M  V30 17 C -2.475196 1.970123 0.165397 0
M  V30 18 C -2.898175 2.671438 -0.944087 0
M  V30 19 N -4.095065 2.729014 -1.584749 0
M  V30 20 C -3.969444 3.572616 -2.620353 0
M  V30 21 C -2.672967 4.038719 -2.612147 0
M  V30 22 N -2.002936 3.478915 -1.568786 0
M  V30 23 C -0.731594 3.619582 -1.151028 0
M  V30 24 C 2.063538 2.114434 0.849868 0
M  V30 25 C 1.909756 0.744286 0.913577 0
M  V30 26 C 1.462639 -4.331116 -0.183464 0
M  V30 27 C 0.162272 -3.866717 -0.746044 0
M  V30 28 C -0.971103 -4.342221 0.106611 0
M  V30 29 C -2.050959 -3.308879 0.237361 0
M  V30 30 C -2.649922 -2.614231 -0.895858 0
M  V30 31 C -3.419037 -3.741830 -0.275183 0
M  V30 32 H -2.627201 -5.180348 1.752948 0
M  V30 33 H -1.754446 -4.120978 2.983864 0
M  V30 34 H -1.491199 -5.881900 2.934645 0
M  V30 35 H -0.039509 -3.207770 2.543905 0
M  V30 36 H 0.830687 -4.718316 2.895736 0
M  V30 37 H 2.576828 -4.092628 1.586719 0
M  V30 38 H 0.851141 -1.725007 0.751199 0
M  V30 39 H 4.975556 -0.020094 2.077424 0
M  V30 40 H 5.180066 2.380699 1.943039 0
M  V30 41 H 3.759759 4.750270 1.228515 0
M  V30 42 H -0.890508 1.558456 1.448401 0
M  V30 43 H -3.184921 1.339283 0.648350 0
M  V30 44 H -4.801642 3.775131 -3.276791 0
M  V30 45 H -2.299979 4.736634 -3.342104 0
M  V30 46 H -0.061070 4.283227 -1.695723 0
M  V30 47 H 0.974660 0.301108 0.617074 0
M  V30 48 H 2.335835 -4.036395 -0.794477 0
M  V30 49 H 1.415771 -5.447954 -0.125554 0
M  V30 50 H 0.088360 -4.304854 -1.779820 0
M  V30 51 H 0.197205 -2.767493 -0.863518 0
M  V30 52 H -1.419396 -5.215743 -0.414175 0
M  V30 53 H -2.098113 -2.821871 1.232250 0
M  V30 54 H -2.324883 -2.713134 -1.945439 0
M  V30 55 H -3.084572 -1.610306 -0.701552 0
M  V30 56 H -4.313296 -3.533591 0.349862 0
M  V30 57 H -3.530399 -4.650609 -0.871839 0
M  V30 END ATOM
M  V30 BEGIN BOND
M  V30 1 1 1 2
M  V30 2 1 2 3
M  V30 3 1 3 4
M  V30 4 1 4 5
M  V30 5 1 5 6
M  V30 6 2 6 7
M  V30 7 1 6 8
M  V30 8 2 8 9
M  V30 9 1 9 10
M  V30 10 2 10 11
M  V30 11 1 11 12
M  V30 12 1 12 13
M  V30 13 2 13 14
M  V30 14 1 14 15
M  V30 15 1 15 16
M  V30 16 2 16 17
M  V30 17 1 17 18
M  V30 18 2 18 19
M  V30 19 1 19 20
M  V30 20 2 20 21
M  V30 21 1 21 22
M  V30 22 1 22 23
M  V30 23 1 14 24
M  V30 24 2 24 25
M  V30 25 1 4 26
M  V30 26 1 26 27
M  V30 27 1 27 28
M  V30 28 1 28 29
M  V30 29 1 29 30
M  V30 30 1 30 31
M  V30 31 1 28 2
M  V30 32 1 31 29
M  V30 33 1 25 8
M  V30 34 1 24 11
M  V30 35 2 23 15
M  V30 36 1 22 18
M  V30 37 1 1 32
M  V30 38 1 1 33
M  V30 39 1 1 34
M  V30 40 1 3 35
M  V30 41 1 3 36
M  V30 42 1 4 37
M  V30 43 1 5 38
M  V30 44 1 9 39
M  V30 45 1 10 40
M  V30 46 1 12 41
M  V30 47 1 16 42
M  V30 48 1 17 43
M  V30 49 1 20 44
M  V30 50 1 21 45
M  V30 51 1 23 46
M  V30 52 1 25 47
M  V30 53 1 26 48
M  V30 54 1 26 49
M  V30 55 1 27 50
M  V30 56 1 27 51
M  V30 57 1 28 52
M  V30 58 1 29 53
M  V30 59 1 30 54
M  V30 60 1 30 55
M  V30 61 1 31 56
M  V30 62 1 31 57
M  V30 END BOND
M  V30 END CTAB
M  END
>  <Dataset>  (591) 
ChEMBL_Kinases

>  <Ligand_Instance>  (591) 
nan

>  <PDB_ID>  (591) 
nan

>  <Standardized_SMILES>  (591) 
CN1CC(NC(=O)c2ccc3[nH]nc(-c4ccc5nccn5c4)c3c2)CCC1C1CC1

>  <Name>  (591) 
nan

>  <Pocket>  (591) 
nan

>  <ATP_Site>  (591) 
nan

>  <Peripheral>  (591) 
nan

>  <Num_H_Atoms_ProtBoundConf>  (591) 
nan

>  <Num_Resolved_Atoms>  (591) 
nan

>  <Num_Not_Resolved_Atoms>  (591) 
nan

$$$$
CHEMBL3654624
     RDKit          3D

  0  0  0  0  0  0  0  0  0  0999 V3000
M  V30 BEGIN CTAB
M  V30 COUNTS 60 64 0 0 0
M  V30 BEGIN ATOM
M  V30 1 O -0.066994 -2.941793 4.069730 0
M  V30 2 C -0.734525 -2.517419 3.066175 0
M  V30 3 N -0.236185 -1.392607 2.371726 0
M  V30 4 C 0.973471 -0.676070 2.702830 0
M  V30 5 C 0.565863 0.699901 3.155232 0
M  V30 6 O 1.546627 1.410128 3.788724 0
M  V30 7 C 2.838990 0.994803 3.577439 0
M  V30 8 C 3.309974 1.197248 2.155809 0
M  V30 9 N 2.356428 0.692165 1.210296 0
M  V30 10 C 2.853578 0.657495 -0.132822 0
M  V30 11 C 3.065705 2.035708 -0.715846 0
M  V30 12 C 3.575943 1.901450 -2.100205 0
M  V30 13 C 4.875452 1.563177 -2.405505 0
M  V30 14 F 5.737365 1.339679 -1.371524 0
M  V30 15 C 5.384538 1.428948 -3.678362 0
M  V30 16 C 4.534292 1.648419 -4.745463 0
M  V30 17 C 3.214398 1.992002 -4.477409 0
M  V30 18 C 2.729489 2.120025 -3.191516 0
M  V30 19 F 1.448388 2.454569 -2.891764 0
M  V30 20 C 1.988310 -0.647751 1.593313 0
M  V30 21 C -1.956243 -3.243788 2.734774 0
M  V30 22 C -2.294056 -4.317847 3.531071 0
M  V30 23 C -3.453001 -5.044068 3.253434 0
M  V30 24 C -4.269344 -4.708176 2.195793 0
M  V30 25 N -5.426237 -5.180616 1.663313 0
M  V30 26 N -5.769984 -4.450143 0.619508 0
M  V30 27 C -4.846479 -3.468236 0.429870 0
M  V30 28 C -4.965460 -2.502511 -0.656739 0
M  V30 29 C -6.166311 -1.872938 -0.940576 0
M  V30 30 C -6.163401 -0.974341 -1.998718 0
M  V30 31 N -5.040333 -0.723844 -2.719624 0
M  V30 32 C -3.875051 -1.335781 -2.442793 0
M  V30 33 C -3.813097 -2.242966 -1.400107 0
M  V30 34 C -3.889562 -3.610856 1.412907 0
M  V30 35 C -2.751548 -2.876276 1.663739 0
M  V30 36 H -0.787911 -1.043100 1.542941 0
M  V30 37 H 1.436394 -1.175517 3.576967 0
M  V30 38 H 0.116083 1.290371 2.340542 0
M  V30 39 H -0.255590 0.543275 3.897639 0
M  V30 40 H 3.477534 1.676174 4.212507 0
M  V30 41 H 3.063572 -0.015222 3.968642 0
M  V30 42 H 3.483837 2.294997 2.044163 0
M  V30 43 H 4.285512 0.635261 2.071052 0
M  V30 44 H 3.861167 0.165669 -0.112858 0
M  V30 45 H 2.159877 0.095812 -0.771858 0
M  V30 46 H 2.084837 2.553145 -0.766847 0
M  V30 47 H 3.710842 2.665867 -0.079287 0
M  V30 48 H 6.407746 1.163124 -3.900133 0
M  V30 49 H 4.800507 1.576799 -5.795712 0
M  V30 50 H 2.435992 2.192118 -5.223183 0
M  V30 51 H 2.839037 -1.339038 1.727012 0
M  V30 52 H 1.449925 -1.065788 0.691488 0
M  V30 53 H -1.733754 -4.672997 4.384055 0
M  V30 54 H -3.746756 -5.906209 3.872804 0
M  V30 55 H -5.890747 -6.005050 2.094405 0
M  V30 56 H -7.030494 -2.106601 -0.337791 0
M  V30 57 H -7.102867 -0.476150 -2.228105 0
M  V30 58 H -3.056553 -1.063232 -3.073669 0
M  V30 59 H -2.839689 -2.701196 -1.234397 0
M  V30 60 H -2.492827 -2.035163 1.037782 0
M  V30 END ATOM
M  V30 BEGIN BOND
M  V30 1 2 1 2
M  V30 2 1 2 3
M  V30 3 1 3 4
M  V30 4 1 4 5
M  V30 5 1 5 6
M  V30 6 1 6 7
M  V30 7 1 7 8
M  V30 8 1 8 9
M  V30 9 1 9 10
M  V30 10 1 10 11
M  V30 11 1 11 12
M  V30 12 2 12 13
M  V30 13 1 13 14
M  V30 14 1 13 15
M  V30 15 2 15 16
M  V30 16 1 16 17
M  V30 17 2 17 18
M  V30 18 1 18 19
M  V30 19 1 9 20
M  V30 20 1 2 21
M  V30 21 2 21 22
M  V30 22 1 22 23
M  V30 23 2 23 24
M  V30 24 1 24 25
M  V30 25 1 25 26
M  V30 26 2 26 27
M  V30 27 1 27 28
M  V30 28 2 28 29
M  V30 29 1 29 30
M  V30 30 2 30 31
M  V30 31 1 31 32
M  V30 32 2 32 33
M  V30 33 1 27 34
M  V30 34 2 34 35
M  V30 35 1 20 4
M  V30 36 1 35 21
M  V30 37 1 18 12
M  V30 38 1 34 24
M  V30 39 1 33 28
M  V30 40 1 3 36
M  V30 41 1 4 37
M  V30 42 1 5 38
M  V30 43 1 5 39
M  V30 44 1 7 40
M  V30 45 1 7 41
M  V30 46 1 8 42
M  V30 47 1 8 43
M  V30 48 1 10 44
M  V30 49 1 10 45
M  V30 50 1 11 46
M  V30 51 1 11 47
M  V30 52 1 15 48
M  V30 53 1 16 49
M  V30 54 1 17 50
M  V30 55 1 20 51
M  V30 56 1 20 52
M  V30 57 1 22 53
M  V30 58 1 23 54
M  V30 59 1 25 55
M  V30 60 1 29 56
M  V30 61 1 30 57
M  V30 62 1 32 58
M  V30 63 1 33 59
M  V30 64 1 35 60
M  V30 END BOND
M  V30 END CTAB
M  END
>  <Dataset>  (592) 
ChEMBL_Kinases

>  <Ligand_Instance>  (592) 
nan

>  <PDB_ID>  (592) 
nan

>  <Standardized_SMILES>  (592) 
O=C(NC1COCCN(CCc2c(F)cccc2F)C1)c1ccc2[nH]nc(-c3ccncc3)c2c1

>  <Name>  (592) 
nan

>  <Pocket>  (592) 
nan

>  <ATP_Site>  (592) 
nan

>  <Peripheral>  (592) 
nan

>  <Num_H_Atoms_ProtBoundConf>  (592) 
nan

>  <Num_Resolved_Atoms>  (592) 
nan

>  <Num_Not_Resolved_Atoms>  (592) 
nan

$$$$
CHEMBL3654559
     RDKit          3D

  0  0  0  0  0  0  0  0  0  0999 V3000
M  V30 BEGIN CTAB
M  V30 COUNTS 67 72 0 0 0
M  V30 BEGIN ATOM
M  V30 1 C 4.008158 -3.283347 -1.072076 0
M  V30 2 O 4.267186 -2.157324 -0.284888 0
M  V30 3 C 4.024716 -2.218722 1.070193 0
M  V30 4 C 3.544831 -3.310055 1.747122 0
M  V30 5 C 3.315688 -3.359058 3.099877 0
M  V30 6 C 3.615212 -2.184411 3.754975 0
M  V30 7 C 4.102781 -1.049796 3.119998 0
M  V30 8 F 4.324492 -0.017693 3.970968 0
M  V30 9 C 4.319401 -1.050869 1.727253 0
M  V30 10 C 4.768032 0.290721 1.301915 0
M  V30 11 N 3.787979 1.208493 0.952587 0
M  V30 12 C 2.946431 0.947494 -0.139275 0
M  V30 13 C 1.607820 1.634510 0.166970 0 CFG=2
M  V30 14 N 0.585268 1.232186 -0.747055 0
M  V30 15 C -0.523562 0.436837 -0.358473 0
M  V30 16 O -0.553835 0.100836 0.853714 0
M  V30 17 C -1.546685 0.054327 -1.344348 0
M  V30 18 C -1.550744 0.428340 -2.688412 0
M  V30 19 C -2.567010 0.007151 -3.523596 0
M  V30 20 C -3.585097 -0.786179 -3.035411 0
M  V30 21 N -4.668494 -1.316378 -3.630835 0
M  V30 22 N -5.334628 -2.000701 -2.719159 0
M  V30 23 C -4.709389 -1.935433 -1.517271 0
M  V30 24 C -5.182596 -2.578612 -0.296812 0
M  V30 25 C -4.206414 -3.261970 0.439002 0
M  V30 26 C -4.551220 -3.904945 1.614090 0
M  V30 27 C -5.869658 -3.884350 2.084574 0
M  V30 28 N -6.484452 -4.400972 3.158114 0
M  V30 29 C -7.776956 -4.053211 3.087640 0
M  V30 30 C -7.981668 -3.312621 1.964189 0
M  V30 31 N -6.786177 -3.206248 1.334674 0
M  V30 32 C -6.472290 -2.574148 0.188998 0
M  V30 33 C -3.581333 -1.159731 -1.694539 0
M  V30 34 C -2.577125 -0.748530 -0.850714 0
M  V30 35 C 1.832323 3.100505 0.235621 0
M  V30 36 C 2.979750 3.472101 1.099979 0 CFG=1
M  V30 37 C 2.627670 3.711030 2.554811 0
M  V30 38 F 2.077052 2.626710 3.175472 0
M  V30 39 F 1.771516 4.783709 2.713340 0
M  V30 40 F 3.823087 4.073578 3.193637 0
M  V30 41 C 4.179237 2.576838 0.991788 0
M  V30 42 H 4.433786 -4.191545 -0.573774 0
M  V30 43 H 4.395993 -3.208041 -2.110745 0
M  V30 44 H 2.912184 -3.497057 -1.179610 0
M  V30 45 H 3.339154 -4.183586 1.139490 0
M  V30 46 H 2.937038 -4.232500 3.604992 0
M  V30 47 H 3.433585 -2.221675 4.839646 0
M  V30 48 H 5.477142 0.741236 2.045065 0
M  V30 49 H 5.437737 0.067585 0.394544 0
M  V30 50 H 3.367443 1.452502 -1.055352 0
M  V30 51 H 2.761326 -0.106314 -0.410133 0
M  V30 52 H 1.337691 1.248288 1.173468 0
M  V30 53 H 0.731158 1.576634 -1.720883 0
M  V30 54 H -0.739214 1.043944 -3.017738 0
M  V30 55 H -2.496233 0.340618 -4.550325 0
M  V30 56 H -4.942762 -1.208612 -4.644873 0
M  V30 57 H -3.158745 -3.377664 0.223523 0
M  V30 58 H -3.875889 -4.456935 2.250273 0
M  V30 59 H -8.428175 -4.390449 3.882659 0
M  V30 60 H -8.937034 -2.908515 1.672939 0
M  V30 61 H -7.184756 -2.035149 -0.413639 0
M  V30 62 H -2.596409 -1.051830 0.187323 0
M  V30 63 H 1.970120 3.535652 -0.787349 0
M  V30 64 H 0.921448 3.593489 0.670604 0
M  V30 65 H 3.338633 4.480941 0.735935 0
M  V30 66 H 4.803779 2.823277 0.110564 0
M  V30 67 H 4.772464 2.735430 1.939531 0
M  V30 END ATOM
M  V30 BEGIN BOND
M  V30 1 1 1 2
M  V30 2 1 2 3
M  V30 3 2 3 4
M  V30 4 1 4 5
M  V30 5 2 5 6
M  V30 6 1 6 7
M  V30 7 1 7 8
M  V30 8 2 7 9
M  V30 9 1 9 10
M  V30 10 1 10 11
M  V30 11 1 11 12
M  V30 12 1 12 13
M  V30 13 1 13 14
M  V30 14 1 14 15
M  V30 15 2 15 16
M  V30 16 1 15 17
M  V30 17 2 17 18
M  V30 18 1 18 19
M  V30 19 2 19 20
M  V30 20 1 20 21
M  V30 21 1 21 22
M  V30 22 2 22 23
M  V30 23 1 23 24
M  V30 24 1 24 25
M  V30 25 2 25 26
M  V30 26 1 26 27
M  V30 27 2 27 28
M  V30 28 1 28 29
M  V30 29 2 29 30
M  V30 30 1 30 31
M  V30 31 1 31 32
M  V30 32 1 23 33
M  V30 33 2 33 34
M  V30 34 1 13 35
M  V30 35 1 35 36
M  V30 36 1 36 37
M  V30 37 1 37 38
M  V30 38 1 37 39
M  V30 39 1 37 40
M  V30 40 1 36 41
M  V30 41 1 9 3
M  V30 42 1 41 11
M  V30 43 1 34 17
M  V30 44 1 33 20
M  V30 45 2 32 24
M  V30 46 1 31 27
M  V30 47 1 1 42
M  V30 48 1 1 43
M  V30 49 1 1 44
M  V30 50 1 4 45
M  V30 51 1 5 46
M  V30 52 1 6 47
M  V30 53 1 10 48
M  V30 54 1 10 49
M  V30 55 1 12 50
M  V30 56 1 12 51
M  V30 57 1 13 52 CFG=1
M  V30 58 1 14 53
M  V30 59 1 18 54
M  V30 60 1 19 55
M  V30 61 1 21 56
M  V30 62 1 25 57
M  V30 63 1 26 58
M  V30 64 1 29 59
M  V30 65 1 30 60
M  V30 66 1 32 61
M  V30 67 1 34 62
M  V30 68 1 35 63
M  V30 69 1 35 64
M  V30 70 1 36 65 CFG=3
M  V30 71 1 41 66
M  V30 72 1 41 67
M  V30 END BOND
M  V30 END CTAB
M  END
>  <Dataset>  (593) 
ChEMBL_Kinases

>  <Ligand_Instance>  (593) 
nan

>  <PDB_ID>  (593) 
nan

>  <Standardized_SMILES>  (593) 
COc1cccc(F)c1CN1C[C@H](NC(=O)c2ccc3[nH]nc(-c4ccc5nccn5c4)c3c2)C[C@@H](C(F)(F)F)C1

>  <Name>  (593) 
nan

>  <Pocket>  (593) 
nan

>  <ATP_Site>  (593) 
nan

>  <Peripheral>  (593) 
nan

>  <Num_H_Atoms_ProtBoundConf>  (593) 
nan

>  <Num_Resolved_Atoms>  (593) 
nan

>  <Num_Not_Resolved_Atoms>  (593) 
nan

$$$$
CHEMBL3654560
     RDKit          3D

  0  0  0  0  0  0  0  0  0  0999 V3000
M  V30 BEGIN CTAB
M  V30 COUNTS 65 70 0 0 0
M  V30 BEGIN ATOM
M  V30 1 C 2.887525 -1.335877 3.008867 0
M  V30 2 O 2.543508 -0.127926 2.394621 0
M  V30 3 C 3.476673 0.611965 1.639749 0
M  V30 4 C 4.749876 0.108317 1.523007 0
M  V30 5 C 5.734301 0.756839 0.805736 0
M  V30 6 C 5.376672 1.943566 0.207924 0
M  V30 7 C 4.119162 2.472410 0.305055 0
M  V30 8 F 3.774561 3.634998 -0.285389 0
M  V30 9 C 3.130108 1.821291 1.025349 0
M  V30 10 C 1.723429 2.320266 1.218310 0
M  V30 11 N 1.347115 3.328814 0.262473 0
M  V30 12 C 0.073539 3.876588 0.656006 0
M  V30 13 C -0.861664 4.233728 -0.451875 0
M  V30 14 C -1.151710 3.093340 -1.415326 0
M  V30 15 O -2.456264 2.679872 -1.257536 0
M  V30 16 C -0.225997 1.979585 -0.890230 0
M  V30 17 N -0.289947 0.772593 -1.625071 0
M  V30 18 C -0.760033 -0.389419 -0.973183 0
M  V30 19 O -1.080661 -0.167092 0.252543 0
M  V30 20 C -0.907247 -1.735087 -1.518796 0
M  V30 21 C -0.557560 -2.162161 -2.773667 0
M  V30 22 C -0.749732 -3.468941 -3.167408 0
M  V30 23 C -1.297388 -4.417739 -2.337915 0
M  V30 24 N -1.627363 -5.727891 -2.337769 0
M  V30 25 N -2.142643 -6.105708 -1.189075 0
M  V30 26 C -2.211875 -5.105892 -0.318135 0
M  V30 27 C -2.645134 -4.890568 1.081310 0
M  V30 28 C -2.322631 -5.542765 2.237673 0
M  V30 29 C -2.908857 -5.087249 3.401027 0
M  V30 30 C -3.784463 -4.022593 3.407682 0
M  V30 31 N -4.440072 -3.437918 4.422836 0
M  V30 32 C -5.196216 -2.407247 3.970231 0
M  V30 33 C -4.978993 -2.377976 2.612678 0
M  V30 34 N -4.122827 -3.361980 2.288759 0
M  V30 35 C -3.547082 -3.809391 1.146843 0
M  V30 36 C -1.668677 -4.026330 -1.054406 0
M  V30 37 C -1.455700 -2.707934 -0.708027 0
M  V30 38 C 1.152269 2.608840 -0.999982 0
M  V30 39 H 1.935391 -1.807000 3.335818 0
M  V30 40 H 3.556007 -1.166085 3.883132 0
M  V30 41 H 3.313601 -2.033491 2.250879 0
M  V30 42 H 4.983470 -0.844902 2.019379 0
M  V30 43 H 6.697730 0.270126 0.783588 0
M  V30 44 H 6.154474 2.430247 -0.342085 0
M  V30 45 H 1.113472 1.370138 1.129205 0
M  V30 46 H 1.590944 2.637133 2.284367 0
M  V30 47 H -0.402041 3.334472 1.514775 0
M  V30 48 H 0.341060 4.877207 1.134225 0
M  V30 49 H -0.423163 5.123685 -0.966334 0
M  V30 50 H -1.813321 4.548701 0.030324 0
M  V30 51 H -0.880722 3.349449 -2.444797 0
M  V30 52 H -2.929486 3.274207 -0.647457 0
M  V30 53 H -0.552157 1.888358 0.170281 0
M  V30 54 H -0.020640 0.638364 -2.621170 0
M  V30 55 H -0.119643 -1.402116 -3.440632 0
M  V30 56 H -0.474676 -3.798646 -4.152117 0
M  V30 57 H -1.476468 -6.336527 -3.163207 0
M  V30 58 H -1.639432 -6.336815 2.063836 0
M  V30 59 H -2.613116 -5.649092 4.301562 0
M  V30 60 H -5.844548 -1.719927 4.482489 0
M  V30 61 H -5.408775 -1.693895 1.894480 0
M  V30 62 H -3.889489 -3.225235 0.272487 0
M  V30 63 H -1.723398 -2.377303 0.302678 0
M  V30 64 H 1.202379 3.356092 -1.845926 0
M  V30 65 H 1.943482 1.857721 -1.189884 0
M  V30 END ATOM
M  V30 BEGIN BOND
M  V30 1 1 1 2
M  V30 2 1 2 3
M  V30 3 2 3 4
M  V30 4 1 4 5
M  V30 5 2 5 6
M  V30 6 1 6 7
M  V30 7 1 7 8
M  V30 8 2 7 9
M  V30 9 1 9 10
M  V30 10 1 10 11
M  V30 11 1 11 12
M  V30 12 1 12 13
M  V30 13 1 13 14
M  V30 14 1 14 15
M  V30 15 1 14 16
M  V30 16 1 16 17
M  V30 17 1 17 18
M  V30 18 2 18 19
M  V30 19 1 18 20
M  V30 20 2 20 21
M  V30 21 1 21 22
M  V30 22 2 22 23
M  V30 23 1 23 24
M  V30 24 1 24 25
M  V30 25 2 25 26
M  V30 26 1 26 27
M  V30 27 1 27 28
M  V30 28 2 28 29
M  V30 29 1 29 30
M  V30 30 2 30 31
M  V30 31 1 31 32
M  V30 32 2 32 33
M  V30 33 1 33 34
M  V30 34 1 34 35
M  V30 35 1 26 36
M  V30 36 2 36 37
M  V30 37 1 16 38
M  V30 38 1 9 3
M  V30 39 1 38 11
M  V30 40 1 37 20
M  V30 41 1 36 23
M  V30 42 2 35 27
M  V30 43 1 34 30
M  V30 44 1 1 39
M  V30 45 1 1 40
M  V30 46 1 1 41
M  V30 47 1 4 42
M  V30 48 1 5 43
M  V30 49 1 6 44
M  V30 50 1 10 45
M  V30 51 1 10 46
M  V30 52 1 12 47
M  V30 53 1 12 48
M  V30 54 1 13 49
M  V30 55 1 13 50
M  V30 56 1 14 51
M  V30 57 1 15 52
M  V30 58 1 16 53
M  V30 59 1 17 54
M  V30 60 1 21 55
M  V30 61 1 22 56
M  V30 62 1 24 57
M  V30 63 1 28 58
M  V30 64 1 29 59
M  V30 65 1 32 60
M  V30 66 1 33 61
M  V30 67 1 35 62
M  V30 68 1 37 63
M  V30 69 1 38 64
M  V30 70 1 38 65
M  V30 END BOND
M  V30 END CTAB
M  END
>  <Dataset>  (594) 
ChEMBL_Kinases

>  <Ligand_Instance>  (594) 
nan

>  <PDB_ID>  (594) 
nan

>  <Standardized_SMILES>  (594) 
COc1cccc(F)c1CN1CCC(O)C(NC(=O)c2ccc3[nH]nc(-c4ccc5nccn5c4)c3c2)C1

>  <Name>  (594) 
nan

>  <Pocket>  (594) 
nan

>  <ATP_Site>  (594) 
nan

>  <Peripheral>  (594) 
nan

>  <Num_H_Atoms_ProtBoundConf>  (594) 
nan

>  <Num_Resolved_Atoms>  (594) 
nan

>  <Num_Not_Resolved_Atoms>  (594) 
nan

$$$$
CHEMBL3654561
     RDKit          3D

  0  0  0  0  0  0  0  0  0  0999 V3000
M  V30 BEGIN CTAB
M  V30 COUNTS 64 69 0 0 0
M  V30 BEGIN ATOM
M  V30 1 C 6.075734 0.326283 0.226816 0
M  V30 2 O 4.976641 0.965548 0.802478 0
M  V30 3 C 5.017737 2.041703 1.670729 0
M  V30 4 C 6.260409 2.534276 2.005606 0
M  V30 5 C 6.300588 3.602215 2.871697 0
M  V30 6 C 5.156792 4.192280 3.411674 0
M  V30 7 C 3.973581 3.597852 2.990238 0
M  V30 8 F 2.842531 4.175133 3.518471 0
M  V30 9 C 3.808395 2.518696 2.121256 0
M  V30 10 C 2.454372 2.081740 1.813520 0
M  V30 11 N 1.856341 2.497090 0.606864 0
M  V30 12 C 2.414888 2.123256 -0.611318 0
M  V30 13 C 1.649596 2.485289 -1.843755 0
M  V30 14 C 0.185607 2.660545 -1.634831 0
M  V30 15 F 0.015387 4.033055 -1.367635 0
M  V30 16 C -0.310274 1.983368 -0.429627 0
M  V30 17 N -0.452354 0.565811 -0.423434 0
M  V30 18 C -1.504630 -0.345566 -0.264439 0
M  V30 19 O -2.638903 0.153524 -0.076715 0
M  V30 20 C -1.296781 -1.787598 -0.313145 0
M  V30 21 C -0.095352 -2.401224 -0.523984 0
M  V30 22 C 0.088988 -3.767316 -0.563279 0
M  V30 23 C -1.003754 -4.584431 -0.378680 0
M  V30 24 N -1.094152 -5.926003 -0.368087 0
M  V30 25 N -2.366084 -6.212533 -0.148338 0
M  V30 26 C -3.081492 -5.062263 -0.019909 0
M  V30 27 C -4.517683 -5.025326 0.230139 0
M  V30 28 C -4.944629 -5.910544 1.228769 0
M  V30 29 C -6.280305 -6.007681 1.591939 0
M  V30 30 C -7.179220 -5.196538 0.930223 0
M  V30 31 N -8.520837 -5.083639 1.076451 0
M  V30 32 C -8.959289 -4.144757 0.191357 0
M  V30 33 C -7.849352 -3.688133 -0.498735 0
M  V30 34 N -6.765582 -4.340334 -0.036362 0
M  V30 35 C -5.462531 -4.240507 -0.395514 0
M  V30 36 C -2.217959 -3.993765 -0.165738 0
M  V30 37 C -2.386860 -2.607504 -0.129243 0
M  V30 38 C 0.435914 2.547590 0.757735 0
M  V30 39 H 5.806825 -0.700516 -0.118365 0
M  V30 40 H 6.941078 0.176176 0.904717 0
M  V30 41 H 6.446746 0.864710 -0.680741 0
M  V30 42 H 7.149413 2.083260 1.593143 0
M  V30 43 H 7.254929 4.022379 3.161779 0
M  V30 44 H 5.163379 5.020297 4.085020 0
M  V30 45 H 1.813274 2.328339 2.718577 0
M  V30 46 H 2.516611 0.944485 1.753639 0
M  V30 47 H 3.433328 2.609048 -0.720344 0
M  V30 48 H 2.686928 1.031426 -0.588082 0
M  V30 49 H 1.793943 1.630498 -2.566485 0
M  V30 50 H 2.138918 3.350240 -2.332110 0
M  V30 51 H -0.418677 2.528167 -2.552476 0
M  V30 52 H -1.372192 2.375526 -0.272647 0
M  V30 53 H 0.499927 0.174789 -0.584191 0
M  V30 54 H 0.794094 -1.809031 -0.674384 0
M  V30 55 H 1.084623 -4.192371 -0.738621 0
M  V30 56 H -0.275502 -6.573190 -0.513247 0
M  V30 57 H -4.242428 -6.564511 1.765960 0
M  V30 58 H -6.563744 -6.718539 2.383098 0
M  V30 59 H -10.006410 -3.841112 0.082456 0
M  V30 60 H -7.842226 -2.941966 -1.272379 0
M  V30 61 H -5.081163 -3.584569 -1.148661 0
M  V30 62 H -3.400805 -2.234941 0.047708 0
M  V30 63 H 0.170842 3.635729 0.842045 0
M  V30 64 H 0.133278 2.040707 1.705112 0
M  V30 END ATOM
M  V30 BEGIN BOND
M  V30 1 1 1 2
M  V30 2 1 2 3
M  V30 3 2 3 4
M  V30 4 1 4 5
M  V30 5 2 5 6
M  V30 6 1 6 7
M  V30 7 1 7 8
M  V30 8 2 7 9
M  V30 9 1 9 10
M  V30 10 1 10 11
M  V30 11 1 11 12
M  V30 12 1 12 13
M  V30 13 1 13 14
M  V30 14 1 14 15
M  V30 15 1 14 16
M  V30 16 1 16 17
M  V30 17 1 17 18
M  V30 18 2 18 19
M  V30 19 1 18 20
M  V30 20 2 20 21
M  V30 21 1 21 22
M  V30 22 2 22 23
M  V30 23 1 23 24
M  V30 24 1 24 25
M  V30 25 2 25 26
M  V30 26 1 26 27
M  V30 27 1 27 28
M  V30 28 2 28 29
M  V30 29 1 29 30
M  V30 30 2 30 31
M  V30 31 1 31 32
M  V30 32 2 32 33
M  V30 33 1 33 34
M  V30 34 1 34 35
M  V30 35 1 26 36
M  V30 36 2 36 37
M  V30 37 1 16 38
M  V30 38 1 9 3
M  V30 39 1 38 11
M  V30 40 1 37 20
M  V30 41 1 36 23
M  V30 42 2 35 27
M  V30 43 1 34 30
M  V30 44 1 1 39
M  V30 45 1 1 40
M  V30 46 1 1 41
M  V30 47 1 4 42
M  V30 48 1 5 43
M  V30 49 1 6 44
M  V30 50 1 10 45
M  V30 51 1 10 46
M  V30 52 1 12 47
M  V30 53 1 12 48
M  V30 54 1 13 49
M  V30 55 1 13 50
M  V30 56 1 14 51
M  V30 57 1 16 52
M  V30 58 1 17 53
M  V30 59 1 21 54
M  V30 60 1 22 55
M  V30 61 1 24 56
M  V30 62 1 28 57
M  V30 63 1 29 58
M  V30 64 1 32 59
M  V30 65 1 33 60
M  V30 66 1 35 61
M  V30 67 1 37 62
M  V30 68 1 38 63
M  V30 69 1 38 64
M  V30 END BOND
M  V30 END CTAB
M  END
>  <Dataset>  (595) 
ChEMBL_Kinases

>  <Ligand_Instance>  (595) 
nan

>  <PDB_ID>  (595) 
nan

>  <Standardized_SMILES>  (595) 
COc1cccc(F)c1CN1CCC(F)C(NC(=O)c2ccc3[nH]nc(-c4ccc5nccn5c4)c3c2)C1

>  <Name>  (595) 
nan

>  <Pocket>  (595) 
nan

>  <ATP_Site>  (595) 
nan

>  <Peripheral>  (595) 
nan

>  <Num_H_Atoms_ProtBoundConf>  (595) 
nan

>  <Num_Resolved_Atoms>  (595) 
nan

>  <Num_Not_Resolved_Atoms>  (595) 
nan

$$$$
CHEMBL3654562
     RDKit          3D

  0  0  0  0  0  0  0  0  0  0999 V3000
M  V30 BEGIN CTAB
M  V30 COUNTS 49 52 0 0 0
M  V30 BEGIN ATOM
M  V30 1 C 5.252132 -4.653697 3.509075 0
M  V30 2 O 4.808682 -4.536959 2.169458 0
M  V30 3 C 3.451618 -4.538873 1.892012 0
M  V30 4 O 2.684429 -4.649298 2.899283 0
M  V30 5 C 2.723900 -4.432512 0.599329 0 CFG=2
M  V30 6 C 3.200146 -3.320042 -0.237603 0
M  V30 7 C 2.334080 -2.098441 -0.284265 0
M  V30 8 C 1.415160 -2.083633 0.893663 0 CFG=1
M  V30 9 N 0.512389 -0.984919 0.944639 0
M  V30 10 C 0.305379 -0.114983 2.039720 0
M  V30 11 O 0.994073 -0.353418 3.052121 0
M  V30 12 C -0.636781 0.998786 2.035342 0
M  V30 13 C -0.717079 1.752573 3.189689 0
M  V30 14 C -1.584203 2.837808 3.290639 0
M  V30 15 C -2.370713 3.146957 2.198808 0
M  V30 16 N -3.299191 4.082080 1.908994 0
M  V30 17 N -3.760260 3.924882 0.675720 0
M  V30 18 C -3.150803 2.867778 0.089112 0
M  V30 19 C -3.441035 2.433661 -1.274287 0
M  V30 20 C -3.552603 3.309128 -2.352041 0
M  V30 21 C -3.827575 2.860156 -3.622393 0
M  V30 22 N -3.998717 1.533679 -3.856481 0
M  V30 23 C -3.901714 0.638572 -2.848264 0
M  V30 24 C -3.622643 1.076970 -1.549686 0
M  V30 25 C -2.283020 2.387653 1.050181 0
M  V30 26 C -1.416636 1.315566 0.970726 0
M  V30 27 C 0.553613 -3.330501 0.715884 0
M  V30 28 N 1.334721 -4.488946 0.896467 0
M  V30 29 H 5.756106 -3.714716 3.790864 0
M  V30 30 H 5.920373 -5.546525 3.540072 0
M  V30 31 H 4.380633 -4.794602 4.213060 0
M  V30 32 H 2.948348 -5.399152 0.064596 0
M  V30 33 H 4.224441 -3.033943 0.148738 0
M  V30 34 H 3.396387 -3.626450 -1.296556 0
M  V30 35 H 1.706697 -2.099388 -1.202003 0
M  V30 36 H 3.002512 -1.206026 -0.361657 0
M  V30 37 H 1.942294 -2.160219 1.855301 0
M  V30 38 H -0.036454 -0.835069 0.067116 0
M  V30 39 H -0.110566 1.520991 4.043608 0
M  V30 40 H -1.673026 3.448329 4.176276 0
M  V30 41 H -3.594502 4.820887 2.590277 0
M  V30 42 H -3.410820 4.351913 -2.128963 0
M  V30 43 H -3.910861 3.542728 -4.442892 0
M  V30 44 H -4.036334 -0.432994 -3.017470 0
M  V30 45 H -3.557151 0.314970 -0.785098 0
M  V30 46 H -1.353223 0.726880 0.070741 0
M  V30 47 H 0.106042 -3.317329 -0.319203 0
M  V30 48 H -0.268616 -3.245972 1.460429 0
M  V30 49 H 1.153271 -5.001788 1.782523 0
M  V30 END ATOM
M  V30 BEGIN BOND
M  V30 1 1 1 2
M  V30 2 1 2 3
M  V30 3 2 3 4
M  V30 4 1 3 5
M  V30 5 1 5 6
M  V30 6 1 6 7
M  V30 7 1 7 8
M  V30 8 1 8 9
M  V30 9 1 9 10
M  V30 10 2 10 11
M  V30 11 1 10 12
M  V30 12 2 12 13
M  V30 13 1 13 14
M  V30 14 2 14 15
M  V30 15 1 15 16
M  V30 16 1 16 17
M  V30 17 2 17 18
M  V30 18 1 18 19
M  V30 19 2 19 20
M  V30 20 1 20 21
M  V30 21 2 21 22
M  V30 22 1 22 23
M  V30 23 2 23 24
M  V30 24 1 18 25
M  V30 25 2 25 26
M  V30 26 1 8 27
M  V30 27 1 27 28
M  V30 28 1 28 5
M  V30 29 1 26 12
M  V30 30 1 25 15
M  V30 31 1 24 19
M  V30 32 1 1 29
M  V30 33 1 1 30
M  V30 34 1 1 31
M  V30 35 1 5 32 CFG=3
M  V30 36 1 6 33
M  V30 37 1 6 34
M  V30 38 1 7 35
M  V30 39 1 7 36
M  V30 40 1 8 37 CFG=1
M  V30 41 1 9 38
M  V30 42 1 13 39
M  V30 43 1 14 40
M  V30 44 1 16 41
M  V30 45 1 20 42
M  V30 46 1 21 43
M  V30 47 1 23 44
M  V30 48 1 24 45
M  V30 49 1 26 46
M  V30 50 1 27 47
M  V30 51 1 27 48
M  V30 52 1 28 49
M  V30 END BOND
M  V30 END CTAB
M  END
>  <Dataset>  (596) 
ChEMBL_Kinases

>  <Ligand_Instance>  (596) 
nan

>  <PDB_ID>  (596) 
nan

>  <Standardized_SMILES>  (596) 
COC(=O)[C@@H]1CC[C@@H](NC(=O)c2ccc3[nH]nc(-c4ccncc4)c3c2)CN1

>  <Name>  (596) 
nan

>  <Pocket>  (596) 
nan

>  <ATP_Site>  (596) 
nan

>  <Peripheral>  (596) 
nan

>  <Num_H_Atoms_ProtBoundConf>  (596) 
nan

>  <Num_Resolved_Atoms>  (596) 
nan

>  <Num_Not_Resolved_Atoms>  (596) 
nan

$$$$
CHEMBL3654563
     RDKit          3D

  0  0  0  0  0  0  0  0  0  0999 V3000
M  V30 BEGIN CTAB
M  V30 COUNTS 62 66 0 0 0
M  V30 BEGIN ATOM
M  V30 1 O 0.596624 -0.923398 4.534447 0
M  V30 2 C -0.151224 -1.183610 3.591409 0
M  V30 3 N 0.336626 -0.666875 2.336811 0
M  V30 4 C 1.531218 0.074236 2.083944 0
M  V30 5 C 1.280661 1.460827 1.548540 0
M  V30 6 C 2.526056 2.280348 1.698662 0
M  V30 7 C 3.804492 1.491774 1.510279 0
M  V30 8 C 3.880323 0.810475 0.157306 0
M  V30 9 N 2.687354 0.030283 -0.071923 0
M  V30 10 C 2.875572 -0.891631 -1.156885 0
M  V30 11 C 3.012773 -0.154252 -2.486114 0
M  V30 12 C 1.817238 0.647089 -2.789117 0
M  V30 13 C 1.751687 2.024947 -2.658526 0
M  V30 14 C 0.671015 2.817637 -2.925010 0
M  V30 15 C -0.471737 2.174020 -3.370399 0
M  V30 16 C -0.523851 0.800502 -3.539026 0
M  V30 17 C 0.630043 0.076082 -3.240993 0
M  V30 18 F 0.622884 -1.280154 -3.392869 0
M  V30 19 C 2.402870 -0.724012 1.136321 0
M  V30 20 C -1.398561 -1.924554 3.677722 0
M  V30 21 C -1.796397 -2.364120 4.927399 0
M  V30 22 C -2.984337 -3.084005 5.091330 0
M  V30 23 C -3.742763 -3.338422 3.957987 0
M  V30 24 N -4.904881 -3.990191 3.815161 0
M  V30 25 N -5.265896 -3.988889 2.542853 0
M  V30 26 C -4.341596 -3.326833 1.788379 0
M  V30 27 C -4.345937 -3.089754 0.346427 0
M  V30 28 C -3.114603 -3.363815 -0.262022 0
M  V30 29 C -2.992881 -3.174473 -1.628056 0
M  V30 30 N -4.016834 -2.737495 -2.384242 0
M  V30 31 C -5.206547 -2.472663 -1.797608 0
M  V30 32 C -5.391783 -2.641709 -0.437241 0
M  V30 33 C -3.382115 -2.918697 2.694333 0
M  V30 34 C -2.200886 -2.213449 2.598898 0
M  V30 35 H -0.188396 -0.806698 1.447153 0
M  V30 36 H 2.084175 0.184168 3.037998 0
M  V30 37 H 0.474990 1.922749 2.139585 0
M  V30 38 H 1.071558 1.377446 0.463748 0
M  V30 39 H 2.615310 2.753564 2.705583 0
M  V30 40 H 2.558674 3.119570 0.972896 0
M  V30 41 H 3.947995 0.791535 2.345488 0
M  V30 42 H 4.633262 2.227197 1.534089 0
M  V30 43 H 4.748559 0.137375 0.200080 0
M  V30 44 H 4.035240 1.576943 -0.628674 0
M  V30 45 H 1.942005 -1.497931 -1.234962 0
M  V30 46 H 3.704484 -1.599947 -1.036982 0
M  V30 47 H 3.909797 0.480853 -2.498636 0
M  V30 48 H 3.110345 -0.926809 -3.290211 0
M  V30 49 H 2.636945 2.560614 -2.310429 0
M  V30 50 H 0.686100 3.885480 -2.802210 0
M  V30 51 H -1.391060 2.729874 -3.610231 0
M  V30 52 H -1.382781 0.241777 -3.881625 0
M  V30 53 H 1.894217 -1.661696 0.816945 0
M  V30 54 H 3.378653 -1.009055 1.565388 0
M  V30 55 H -1.213247 -2.172776 5.820470 0
M  V30 56 H -3.275996 -3.417758 6.076427 0
M  V30 57 H -5.436381 -4.432058 4.613978 0
M  V30 58 H -2.182852 -3.720248 0.155426 0
M  V30 59 H -2.082400 -3.352884 -2.218855 0
M  V30 60 H -6.063072 -2.122326 -2.336353 0
M  V30 61 H -6.309664 -2.453463 0.111753 0
M  V30 62 H -1.902245 -1.872955 1.627688 0
M  V30 END ATOM
M  V30 BEGIN BOND
M  V30 1 2 1 2
M  V30 2 1 2 3
M  V30 3 1 3 4
M  V30 4 1 4 5
M  V30 5 1 5 6
M  V30 6 1 6 7
M  V30 7 1 7 8
M  V30 8 1 8 9
M  V30 9 1 9 10
M  V30 10 1 10 11
M  V30 11 1 11 12
M  V30 12 2 12 13
M  V30 13 1 13 14
M  V30 14 2 14 15
M  V30 15 1 15 16
M  V30 16 2 16 17
M  V30 17 1 17 18
M  V30 18 1 9 19
M  V30 19 1 2 20
M  V30 20 2 20 21
M  V30 21 1 21 22
M  V30 22 2 22 23
M  V30 23 1 23 24
M  V30 24 1 24 25
M  V30 25 2 25 26
M  V30 26 1 26 27
M  V30 27 2 27 28
M  V30 28 1 28 29
M  V30 29 2 29 30
M  V30 30 1 30 31
M  V30 31 2 31 32
M  V30 32 1 26 33
M  V30 33 2 33 34
M  V30 34 1 19 4
M  V30 35 1 34 20
M  V30 36 1 17 12
M  V30 37 1 33 23
M  V30 38 1 32 27
M  V30 39 1 3 35
M  V30 40 1 4 36
M  V30 41 1 5 37
M  V30 42 1 5 38
M  V30 43 1 6 39
M  V30 44 1 6 40
M  V30 45 1 7 41
M  V30 46 1 7 42
M  V30 47 1 8 43
M  V30 48 1 8 44
M  V30 49 1 10 45
M  V30 50 1 10 46
M  V30 51 1 11 47
M  V30 52 1 11 48
M  V30 53 1 13 49
M  V30 54 1 14 50
M  V30 55 1 15 51
M  V30 56 1 16 52
M  V30 57 1 19 53
M  V30 58 1 19 54
M  V30 59 1 21 55
M  V30 60 1 22 56
M  V30 61 1 24 57
M  V30 62 1 28 58
M  V30 63 1 29 59
M  V30 64 1 31 60
M  V30 65 1 32 61
M  V30 66 1 34 62
M  V30 END BOND
M  V30 END CTAB
M  END
>  <Dataset>  (597) 
ChEMBL_Kinases

>  <Ligand_Instance>  (597) 
nan

>  <PDB_ID>  (597) 
nan

>  <Standardized_SMILES>  (597) 
O=C(NC1CCCCN(CCc2ccccc2F)C1)c1ccc2[nH]nc(-c3ccncc3)c2c1

>  <Name>  (597) 
nan

>  <Pocket>  (597) 
nan

>  <ATP_Site>  (597) 
nan

>  <Peripheral>  (597) 
nan

>  <Num_H_Atoms_ProtBoundConf>  (597) 
nan

>  <Num_Resolved_Atoms>  (597) 
nan

>  <Num_Not_Resolved_Atoms>  (597) 
nan

$$$$
CHEMBL3654564
     RDKit          3D

  0  0  0  0  0  0  0  0  0  0999 V3000
M  V30 BEGIN CTAB
M  V30 COUNTS 62 66 0 0 0
M  V30 BEGIN ATOM
M  V30 1 C 6.082480 -0.646460 4.216006 0
M  V30 2 O 4.705483 -0.434568 4.003923 0
M  V30 3 C 3.953051 -1.312286 3.279755 0
M  V30 4 O 4.989801 -2.031431 3.093441 0
M  V30 5 C 2.818346 -1.966782 2.598820 0 CFG=2
M  V30 6 C 3.212399 -2.213670 1.193609 0
M  V30 7 C 2.172937 -2.056076 0.145713 0
M  V30 8 C 1.317377 -0.869059 0.494253 0 CFG=1
M  V30 9 N 0.355201 -0.541580 -0.527059 0
M  V30 10 C 0.258573 0.687214 -1.247491 0
M  V30 11 O 1.022593 1.658464 -1.073024 0
M  V30 12 C -0.780263 0.859349 -2.255370 0
M  V30 13 C -0.853807 2.057670 -2.957204 0
M  V30 14 C -1.801527 2.343042 -3.943292 0
M  V30 15 C -2.728897 1.365513 -4.239825 0
M  V30 16 N -3.766840 1.252273 -5.093379 0
M  V30 17 N -4.344708 0.058348 -4.967477 0
M  V30 18 C -3.698877 -0.669848 -4.011694 0
M  V30 19 C -4.092130 -2.024178 -3.637209 0
M  V30 20 C -4.393557 -2.974421 -4.612895 0
M  V30 21 C -4.766146 -4.255791 -4.249551 0
M  V30 22 N -4.852089 -4.633359 -2.957904 0
M  V30 23 C -4.564555 -3.730269 -1.988136 0
M  V30 24 C -4.187058 -2.435330 -2.308298 0
M  V30 25 C -2.692157 0.166329 -3.570054 0
M  V30 26 C -1.737818 -0.073643 -2.602408 0
M  V30 27 C 0.669310 -1.227979 1.808109 0
M  V30 28 N 1.635644 -1.205494 2.832143 0
M  V30 29 C 1.758675 -0.045315 3.631288 0
M  V30 30 C 0.458209 0.306323 4.300833 0
M  V30 31 C -0.464407 1.186367 3.763733 0
M  V30 32 C -1.641279 1.446003 4.446600 0
M  V30 33 C -1.927037 0.849888 5.658395 0
M  V30 34 C -1.034004 -0.029213 6.222191 0
M  V30 35 C 0.126752 -0.273941 5.530156 0
M  V30 36 H 6.321116 -1.624790 4.689131 0
M  V30 37 H 6.710983 -0.518634 3.329991 0
M  V30 38 H 6.373557 0.121060 4.978923 0
M  V30 39 H 2.668766 -2.940468 3.153973 0
M  V30 40 H 3.588128 -3.274445 1.123743 0
M  V30 41 H 4.116145 -1.608613 0.892906 0
M  V30 42 H 2.663931 -1.889221 -0.833547 0
M  V30 43 H 1.592008 -3.006695 0.115795 0
M  V30 44 H 1.981042 -0.004055 0.646419 0
M  V30 45 H -0.285395 -1.353166 -0.675970 0
M  V30 46 H -0.156929 2.860721 -2.771126 0
M  V30 47 H -1.825503 3.273717 -4.459316 0
M  V30 48 H -4.074948 2.000169 -5.762701 0
M  V30 49 H -4.339471 -2.722497 -5.654197 0
M  V30 50 H -5.004791 -5.005339 -5.013161 0
M  V30 51 H -4.632535 -4.029610 -0.950323 0
M  V30 52 H -3.951713 -1.695162 -1.551289 0
M  V30 53 H -1.712848 -1.009740 -2.084765 0
M  V30 54 H 0.189902 -2.249899 1.682806 0
M  V30 55 H -0.156762 -0.548081 1.987518 0
M  V30 56 H 2.456909 -0.311966 4.482191 0
M  V30 57 H 2.238926 0.832072 3.160048 0
M  V30 58 H -0.254766 1.662530 2.824552 0
M  V30 59 H -2.384696 2.124313 4.062248 0
M  V30 60 H -2.841774 1.025780 6.230751 0
M  V30 61 H -1.159351 -0.557771 7.177710 0
M  V30 62 H 0.869211 -0.958541 5.924704 0
M  V30 END ATOM
M  V30 BEGIN BOND
M  V30 1 1 1 2
M  V30 2 1 2 3
M  V30 3 2 3 4
M  V30 4 1 3 5
M  V30 5 1 5 6
M  V30 6 1 6 7
M  V30 7 1 7 8
M  V30 8 1 8 9
M  V30 9 1 9 10
M  V30 10 2 10 11
M  V30 11 1 10 12
M  V30 12 2 12 13
M  V30 13 1 13 14
M  V30 14 2 14 15
M  V30 15 1 15 16
M  V30 16 1 16 17
M  V30 17 2 17 18
M  V30 18 1 18 19
M  V30 19 2 19 20
M  V30 20 1 20 21
M  V30 21 2 21 22
M  V30 22 1 22 23
M  V30 23 2 23 24
M  V30 24 1 18 25
M  V30 25 2 25 26
M  V30 26 1 8 27
M  V30 27 1 27 28
M  V30 28 1 28 29
M  V30 29 1 29 30
M  V30 30 2 30 31
M  V30 31 1 31 32
M  V30 32 2 32 33
M  V30 33 1 33 34
M  V30 34 2 34 35
M  V30 35 1 28 5
M  V30 36 1 35 30
M  V30 37 1 26 12
M  V30 38 1 25 15
M  V30 39 1 24 19
M  V30 40 1 1 36
M  V30 41 1 1 37
M  V30 42 1 1 38
M  V30 43 1 5 39 CFG=1
M  V30 44 1 6 40
M  V30 45 1 6 41
M  V30 46 1 7 42
M  V30 47 1 7 43
M  V30 48 1 8 44 CFG=1
M  V30 49 1 9 45
M  V30 50 1 13 46
M  V30 51 1 14 47
M  V30 52 1 16 48
M  V30 53 1 20 49
M  V30 54 1 21 50
M  V30 55 1 23 51
M  V30 56 1 24 52
M  V30 57 1 26 53
M  V30 58 1 27 54
M  V30 59 1 27 55
M  V30 60 1 29 56
M  V30 61 1 29 57
M  V30 62 1 31 58
M  V30 63 1 32 59
M  V30 64 1 33 60
M  V30 65 1 34 61
M  V30 66 1 35 62
M  V30 END BOND
M  V30 END CTAB
M  END
>  <Dataset>  (598) 
ChEMBL_Kinases

>  <Ligand_Instance>  (598) 
nan

>  <PDB_ID>  (598) 
nan

>  <Standardized_SMILES>  (598) 
COC(=O)[C@@H]1CC[C@@H](NC(=O)c2ccc3[nH]nc(-c4ccncc4)c3c2)CN1Cc1ccccc1

>  <Name>  (598) 
nan

>  <Pocket>  (598) 
nan

>  <ATP_Site>  (598) 
nan

>  <Peripheral>  (598) 
nan

>  <Num_H_Atoms_ProtBoundConf>  (598) 
nan

>  <Num_Resolved_Atoms>  (598) 
nan

>  <Num_Not_Resolved_Atoms>  (598) 
nan

$$$$
CHEMBL3654565
     RDKit          3D

  0  0  0  0  0  0  0  0  0  0999 V3000
M  V30 BEGIN CTAB
M  V30 COUNTS 63 68 0 0 0
M  V30 BEGIN ATOM
M  V30 1 C 3.868859 3.183907 4.971367 0
M  V30 2 O 3.401727 2.665675 3.740673 0
M  V30 3 C 4.234279 2.704281 2.650659 0
M  V30 4 C 5.514869 3.236764 2.729705 0
M  V30 5 C 6.241883 3.209825 1.554335 0
M  V30 6 C 5.744287 2.693362 0.376167 0
M  V30 7 C 4.463423 2.170751 0.334513 0
M  V30 8 F 4.049632 1.675915 -0.866057 0
M  V30 9 C 3.696780 2.178669 1.496826 0
M  V30 10 C 2.319839 1.602749 1.432602 0
M  V30 11 N 1.275560 2.578061 1.443540 0
M  V30 12 C 1.414052 3.455579 0.325245 0
M  V30 13 C 0.596187 3.047441 -0.881079 0
M  V30 14 C -0.846361 2.797309 -0.501399 0
M  V30 15 C -0.859485 1.699434 0.509092 0 CFG=1
M  V30 16 N -0.555216 0.440155 -0.157722 0
M  V30 17 C -1.451387 -0.667180 -0.152951 0
M  V30 18 O -2.538939 -0.479472 0.476296 0
M  V30 19 C -1.181572 -1.941756 -0.808372 0
M  V30 20 C -0.052544 -2.221195 -1.512120 0
M  V30 21 C 0.204064 -3.436176 -2.133687 0
M  V30 22 C -0.743181 -4.424533 -2.033185 0
M  V30 23 N -0.756289 -5.662559 -2.522360 0
M  V30 24 N -1.893694 -6.227233 -2.151848 0
M  V30 25 C -2.618317 -5.336811 -1.415002 0
M  V30 26 C -3.930449 -5.620592 -0.837276 0
M  V30 27 C -3.979070 -6.863661 -0.215013 0
M  V30 28 C -5.168241 -7.260667 0.376851 0
M  V30 29 N -6.269185 -6.471084 0.360848 0
M  V30 30 N -7.493741 -6.634751 0.851222 0
M  V30 31 C -8.221589 -5.519562 0.551762 0
M  V30 32 N -7.391545 -4.698450 -0.126882 0
M  V30 33 C -6.180651 -5.275933 -0.251460 0
M  V30 34 C -5.039229 -4.800688 -0.865353 0
M  V30 35 C -1.905533 -4.158501 -1.317272 0
M  V30 36 C -2.130299 -2.944404 -0.712815 0
M  V30 37 C 0.014284 1.997081 1.680874 0
M  V30 38 H 3.037823 3.158011 5.717938 0
M  V30 39 H 4.726908 2.578787 5.365280 0
M  V30 40 H 4.244945 4.235123 4.883532 0
M  V30 41 H 5.852766 3.627582 3.679093 0
M  V30 42 H 7.247832 3.637996 1.655697 0
M  V30 43 H 6.412363 2.726751 -0.491071 0
M  V30 44 H 2.252399 0.917707 0.546733 0
M  V30 45 H 2.145949 0.936838 2.303391 0
M  V30 46 H 2.469457 3.608086 0.093140 0
M  V30 47 H 1.039903 4.465022 0.651020 0
M  V30 48 H 0.684486 3.798072 -1.670320 0
M  V30 49 H 1.012573 2.091792 -1.254776 0
M  V30 50 H -1.228089 3.722522 0.009367 0
M  V30 51 H -1.455985 2.578995 -1.381767 0
M  V30 52 H -1.907274 1.584089 0.937919 0
M  V30 53 H 0.329545 0.267744 -0.680476 0
M  V30 54 H 0.720911 -1.477030 -1.620165 0
M  V30 55 H 1.112481 -3.634941 -2.689760 0
M  V30 56 H -0.078594 -6.206810 -3.096081 0
M  V30 57 H -3.151372 -7.571829 -0.147125 0
M  V30 58 H -5.265528 -8.213928 0.874010 0
M  V30 59 H -9.257005 -5.374519 0.827116 0
M  V30 60 H -4.922652 -3.865184 -1.360407 0
M  V30 61 H -3.080319 -2.832636 -0.170176 0
M  V30 62 H 0.126525 1.001996 2.217356 0
M  V30 63 H -0.558722 2.615445 2.420099 0
M  V30 END ATOM
M  V30 BEGIN BOND
M  V30 1 1 1 2
M  V30 2 1 2 3
M  V30 3 2 3 4
M  V30 4 1 4 5
M  V30 5 2 5 6
M  V30 6 1 6 7
M  V30 7 1 7 8
M  V30 8 2 7 9
M  V30 9 1 9 10
M  V30 10 1 10 11
M  V30 11 1 11 12
M  V30 12 1 12 13
M  V30 13 1 13 14
M  V30 14 1 14 15
M  V30 15 1 15 16
M  V30 16 1 16 17
M  V30 17 2 17 18
M  V30 18 1 17 19
M  V30 19 2 19 20
M  V30 20 1 20 21
M  V30 21 2 21 22
M  V30 22 1 22 23
M  V30 23 1 23 24
M  V30 24 2 24 25
M  V30 25 1 25 26
M  V30 26 1 26 27
M  V30 27 2 27 28
M  V30 28 1 28 29
M  V30 29 1 29 30
M  V30 30 2 30 31
M  V30 31 1 31 32
M  V30 32 2 32 33
M  V30 33 1 33 34
M  V30 34 1 25 35
M  V30 35 2 35 36
M  V30 36 1 15 37
M  V30 37 1 9 3
M  V30 38 1 37 11
M  V30 39 1 36 19
M  V30 40 1 35 22
M  V30 41 2 34 26
M  V30 42 1 33 29
M  V30 43 1 1 38
M  V30 44 1 1 39
M  V30 45 1 1 40
M  V30 46 1 4 41
M  V30 47 1 5 42
M  V30 48 1 6 43
M  V30 49 1 10 44
M  V30 50 1 10 45
M  V30 51 1 12 46
M  V30 52 1 12 47
M  V30 53 1 13 48
M  V30 54 1 13 49
M  V30 55 1 14 50
M  V30 56 1 14 51
M  V30 57 1 15 52 CFG=1
M  V30 58 1 16 53
M  V30 59 1 20 54
M  V30 60 1 21 55
M  V30 61 1 23 56
M  V30 62 1 27 57
M  V30 63 1 28 58
M  V30 64 1 31 59
M  V30 65 1 34 60
M  V30 66 1 36 61
M  V30 67 1 37 62
M  V30 68 1 37 63
M  V30 END BOND
M  V30 END CTAB
M  END
>  <Dataset>  (599) 
ChEMBL_Kinases

>  <Ligand_Instance>  (599) 
nan

>  <PDB_ID>  (599) 
nan

>  <Standardized_SMILES>  (599) 
COc1cccc(F)c1CN1CCC[C@@H](NC(=O)c2ccc3[nH]nc(-c4ccn5ncnc5c4)c3c2)C1

>  <Name>  (599) 
nan

>  <Pocket>  (599) 
nan

>  <ATP_Site>  (599) 
nan

>  <Peripheral>  (599) 
nan

>  <Num_H_Atoms_ProtBoundConf>  (599) 
nan

>  <Num_Resolved_Atoms>  (599) 
nan

>  <Num_Not_Resolved_Atoms>  (599) 
nan

$$$$
CHEMBL3654575
     RDKit          3D

  0  0  0  0  0  0  0  0  0  0999 V3000
M  V30 BEGIN CTAB
M  V30 COUNTS 69 74 0 0 0
M  V30 BEGIN ATOM
M  V30 1 C 0.310515 -1.557897 3.039355 0
M  V30 2 C 0.843122 -0.706333 4.160824 0
M  V30 3 C 0.119829 0.573230 4.301285 0
M  V30 4 N -0.978153 0.798245 5.069125 0
M  V30 5 N -1.308988 2.072968 4.921053 0
M  V30 6 C -0.430401 2.653999 4.067350 0
M  V30 7 C -0.347783 3.943380 3.603082 0
M  V30 8 C 0.643127 4.329219 2.728800 0
M  V30 9 C 1.571231 3.382341 2.316962 0
M  V30 10 C 2.718831 3.509362 1.427391 0
M  V30 11 N 3.618174 4.500919 1.534127 0
M  V30 12 N 4.552506 4.372553 0.594789 0
M  V30 13 C 4.242871 3.263087 -0.138660 0
M  V30 14 C 4.843734 2.640955 -1.238794 0
M  V30 15 C 4.232828 1.509197 -1.735084 0
M  V30 16 C 3.098817 0.938589 -1.256074 0
M  V30 17 C 2.580185 -0.256115 -1.903865 0
M  V30 18 O 3.247422 -0.735948 -2.853976 0
M  V30 19 N 1.382311 -0.922475 -1.551696 0
M  V30 20 C 0.945117 -2.113933 -2.266452 0 CFG=2
M  V30 21 C -0.248870 -1.605891 -3.089530 0
M  V30 22 C -1.105342 -2.716717 -3.595408 0
M  V30 23 C -1.622432 -3.535589 -2.456630 0
M  V30 24 N -0.875680 -3.469568 -1.271260 0
M  V30 25 C -1.458795 -2.878867 -0.112802 0
M  V30 26 C -2.706457 -3.489968 0.373710 0
M  V30 27 C -2.652449 -4.698700 1.047317 0
M  V30 28 F -1.486935 -5.353702 1.278012 0
M  V30 29 C -3.859726 -5.209127 1.476905 0
M  V30 30 C -5.081692 -4.609491 1.283644 0
M  V30 31 C -5.086078 -3.407863 0.608416 0
M  V30 32 C -3.918213 -2.825862 0.143390 0
M  V30 33 O -3.887355 -1.601081 -0.548243 0
M  V30 34 C -5.143079 -0.975222 -0.749958 0
M  V30 35 C 0.527091 -3.243850 -1.403232 0
M  V30 36 C 2.521039 1.563402 -0.172573 0
M  V30 37 C 3.073068 2.698679 0.379558 0
M  V30 38 C 1.451546 2.084211 2.812222 0
M  V30 39 N 0.464636 1.714200 3.678880 0
M  V30 40 H 0.588114 -1.138559 2.045113 0
M  V30 41 H 0.658716 -2.611218 3.164046 0
M  V30 42 H -0.802649 -1.544085 3.118132 0
M  V30 43 H 0.757793 -1.277937 5.116671 0
M  V30 44 H 1.923930 -0.486986 3.950850 0
M  V30 45 H -1.032491 4.741669 3.875536 0
M  V30 46 H 0.837495 5.294640 2.280315 0
M  V30 47 H 5.381531 4.992069 0.426469 0
M  V30 48 H 5.747524 3.083777 -1.630809 0
M  V30 49 H 4.784947 1.106541 -2.590701 0
M  V30 50 H 0.813571 -0.543427 -0.766470 0
M  V30 51 H 1.692964 -2.411520 -3.039256 0
M  V30 52 H -0.831306 -0.965915 -2.426369 0
M  V30 53 H 0.125122 -0.942359 -3.905060 0
M  V30 54 H -1.973366 -2.257738 -4.109428 0
M  V30 55 H -0.514378 -3.297581 -4.338298 0
M  V30 56 H -1.573234 -4.607693 -2.817794 0
M  V30 57 H -2.684686 -3.360589 -2.270940 0
M  V30 58 H -0.666690 -2.947230 0.693409 0
M  V30 59 H -1.541710 -1.785533 -0.290523 0
M  V30 60 H -3.877433 -6.154451 2.011561 0
M  V30 61 H -6.018055 -5.028165 1.629378 0
M  V30 62 H -6.025872 -2.865951 0.413659 0
M  V30 63 H -5.897129 -1.648136 -1.219434 0
M  V30 64 H -5.078098 -0.079837 -1.378995 0
M  V30 65 H -5.568948 -0.717273 0.264326 0
M  V30 66 H 0.948556 -4.185498 -1.864326 0
M  V30 67 H 0.919000 -3.189635 -0.352954 0
M  V30 68 H 1.612657 1.142991 0.242005 0
M  V30 69 H 2.113386 1.245512 2.572251 0
M  V30 END ATOM
M  V30 BEGIN BOND
M  V30 1 1 1 2
M  V30 2 1 2 3
M  V30 3 2 3 4
M  V30 4 1 4 5
M  V30 5 2 5 6
M  V30 6 1 6 7
M  V30 7 2 7 8
M  V30 8 1 8 9
M  V30 9 1 9 10
M  V30 10 2 10 11
M  V30 11 1 11 12
M  V30 12 1 12 13
M  V30 13 2 13 14
M  V30 14 1 14 15
M  V30 15 2 15 16
M  V30 16 1 16 17
M  V30 17 2 17 18
M  V30 18 1 17 19
M  V30 19 1 19 20
M  V30 20 1 20 21
M  V30 21 1 21 22
M  V30 22 1 22 23
M  V30 23 1 23 24
M  V30 24 1 24 25
M  V30 25 1 25 26
M  V30 26 2 26 27
M  V30 27 1 27 28
M  V30 28 1 27 29
M  V30 29 2 29 30
M  V30 30 1 30 31
M  V30 31 2 31 32
M  V30 32 1 32 33
M  V30 33 1 33 34
M  V30 34 1 24 35
M  V30 35 1 16 36
M  V30 36 2 36 37
M  V30 37 2 9 38
M  V30 38 1 38 39
M  V30 39 1 39 3
M  V30 40 1 39 6
M  V30 41 1 37 10
M  V30 42 1 37 13
M  V30 43 1 35 20
M  V30 44 1 32 26
M  V30 45 1 1 40
M  V30 46 1 1 41
M  V30 47 1 1 42
M  V30 48 1 2 43
M  V30 49 1 2 44
M  V30 50 1 7 45
M  V30 51 1 8 46
M  V30 52 1 12 47
M  V30 53 1 14 48
M  V30 54 1 15 49
M  V30 55 1 19 50
M  V30 56 1 20 51 CFG=3
M  V30 57 1 21 52
M  V30 58 1 21 53
M  V30 59 1 22 54
M  V30 60 1 22 55
M  V30 61 1 23 56
M  V30 62 1 23 57
M  V30 63 1 25 58
M  V30 64 1 25 59
M  V30 65 1 29 60
M  V30 66 1 30 61
M  V30 67 1 31 62
M  V30 68 1 34 63
M  V30 69 1 34 64
M  V30 70 1 34 65
M  V30 71 1 35 66
M  V30 72 1 35 67
M  V30 73 1 36 68
M  V30 74 1 38 69
M  V30 END BOND
M  V30 END CTAB
M  END
>  <Dataset>  (600) 
ChEMBL_Kinases

>  <Ligand_Instance>  (600) 
nan

>  <PDB_ID>  (600) 
nan

>  <Standardized_SMILES>  (600) 
CCc1nnc2ccc(-c3n[nH]c4ccc(C(=O)N[C@@H]5CCCN(Cc6c(F)cccc6OC)C5)cc34)cn12

>  <Name>  (600) 
nan

>  <Pocket>  (600) 
nan

>  <ATP_Site>  (600) 
nan

>  <Peripheral>  (600) 
nan

>  <Num_H_Atoms_ProtBoundConf>  (600) 
nan

>  <Num_Resolved_Atoms>  (600) 
nan

>  <Num_Not_Resolved_Atoms>  (600) 
nan

$$$$
CHEMBL3654567
     RDKit          3D

  0  0  0  0  0  0  0  0  0  0999 V3000
M  V30 BEGIN CTAB
M  V30 COUNTS 63 68 0 0 0
M  V30 BEGIN ATOM
M  V30 1 C 1.067418 -0.890026 2.436984 0
M  V30 2 O 1.628098 0.169991 1.679807 0
M  V30 3 C 2.568141 1.018799 2.296560 0
M  V30 4 C 2.944790 0.822232 3.623336 0
M  V30 5 C 3.865540 1.639778 4.240628 0
M  V30 6 C 4.413866 2.669390 3.510860 0
M  V30 7 C 4.031403 2.853334 2.197546 0
M  V30 8 F 4.621537 3.897599 1.539235 0
M  V30 9 C 3.098578 2.038829 1.545450 0
M  V30 10 C 2.784638 2.400277 0.147233 0
M  V30 11 N 1.628696 3.182782 -0.063595 0
M  V30 12 C 1.383577 3.447032 -1.418905 0
M  V30 13 C -0.033676 3.574787 -1.834620 0
M  V30 14 C -1.063486 3.685978 -0.777956 0
M  V30 15 C -0.728141 2.748068 0.363824 0 CFG=1
M  V30 16 N -0.595436 1.430622 -0.201716 0
M  V30 17 C -1.219467 0.175890 0.039136 0
M  V30 18 O -2.093928 0.191579 0.960601 0
M  V30 19 C -0.870500 -1.007892 -0.716857 0
M  V30 20 C 0.009781 -1.108639 -1.739014 0
M  V30 21 C 0.309578 -2.267864 -2.423246 0
M  V30 22 C -0.342993 -3.439297 -2.037762 0
M  V30 23 N -0.228492 -4.680889 -2.535563 0
M  V30 24 N -1.063125 -5.429014 -1.816880 0
M  V30 25 C -1.681079 -4.665666 -0.893536 0
M  V30 26 C -2.658316 -5.191417 0.057032 0
M  V30 27 C -2.729707 -4.929136 1.411065 0
M  V30 28 C -3.714419 -5.506153 2.185865 0
M  V30 29 C -4.660106 -6.358968 1.657036 0
M  V30 30 N -5.713119 -7.065371 2.106431 0
M  V30 31 N -6.276861 -7.733236 1.111826 0
M  V30 32 C -5.547192 -7.428816 0.010748 0
M  V30 33 N -4.546354 -6.583683 0.324618 0
M  V30 34 C -3.607267 -6.048587 -0.480090 0
M  V30 35 C -1.244036 -3.359927 -0.998492 0
M  V30 36 C -1.522682 -2.187249 -0.334196 0
M  V30 37 C 0.617123 3.255007 0.882672 0
M  V30 38 H 0.462049 -1.527396 1.771643 0
M  V30 39 H 1.898356 -1.495183 2.881079 0
M  V30 40 H 0.471816 -0.470936 3.282570 0
M  V30 41 H 2.478046 -0.007735 4.149990 0
M  V30 42 H 4.102380 1.417709 5.274500 0
M  V30 43 H 5.138367 3.316872 3.987689 0
M  V30 44 H 3.714143 2.868586 -0.322452 0
M  V30 45 H 2.710801 1.434377 -0.455703 0
M  V30 46 H 1.973609 2.756261 -2.092917 0
M  V30 47 H 1.866025 4.446867 -1.644153 0
M  V30 48 H -0.194087 4.447865 -2.543092 0
M  V30 49 H -0.287217 2.668688 -2.462946 0
M  V30 50 H -1.224240 4.699552 -0.381359 0
M  V30 51 H -2.057545 3.311419 -1.162936 0
M  V30 52 H -1.459842 2.822475 1.165430 0
M  V30 53 H 0.127529 1.413990 -0.950753 0
M  V30 54 H 0.521166 -0.219513 -2.050460 0
M  V30 55 H 1.029365 -2.247672 -3.228345 0
M  V30 56 H 0.407586 -4.951576 -3.333094 0
M  V30 57 H -1.973529 -4.258859 1.790105 0
M  V30 58 H -3.754080 -5.288078 3.248049 0
M  V30 59 H -5.834228 -7.873665 -0.944521 0
M  V30 60 H -3.611178 -6.301944 -1.548095 0
M  V30 61 H -2.247628 -2.219608 0.472928 0
M  V30 62 H 0.840891 2.696110 1.801137 0
M  V30 63 H 0.413601 4.308685 1.259933 0
M  V30 END ATOM
M  V30 BEGIN BOND
M  V30 1 1 1 2
M  V30 2 1 2 3
M  V30 3 2 3 4
M  V30 4 1 4 5
M  V30 5 2 5 6
M  V30 6 1 6 7
M  V30 7 1 7 8
M  V30 8 2 7 9
M  V30 9 1 9 10
M  V30 10 1 10 11
M  V30 11 1 11 12
M  V30 12 1 12 13
M  V30 13 1 13 14
M  V30 14 1 14 15
M  V30 15 1 15 16
M  V30 16 1 16 17
M  V30 17 2 17 18
M  V30 18 1 17 19
M  V30 19 2 19 20
M  V30 20 1 20 21
M  V30 21 2 21 22
M  V30 22 1 22 23
M  V30 23 1 23 24
M  V30 24 2 24 25
M  V30 25 1 25 26
M  V30 26 1 26 27
M  V30 27 2 27 28
M  V30 28 1 28 29
M  V30 29 2 29 30
M  V30 30 1 30 31
M  V30 31 2 31 32
M  V30 32 1 32 33
M  V30 33 1 33 34
M  V30 34 1 25 35
M  V30 35 2 35 36
M  V30 36 1 15 37
M  V30 37 1 9 3
M  V30 38 1 37 11
M  V30 39 1 36 19
M  V30 40 1 35 22
M  V30 41 2 34 26
M  V30 42 1 33 29
M  V30 43 1 1 38
M  V30 44 1 1 39
M  V30 45 1 1 40
M  V30 46 1 4 41
M  V30 47 1 5 42
M  V30 48 1 6 43
M  V30 49 1 10 44
M  V30 50 1 10 45
M  V30 51 1 12 46
M  V30 52 1 12 47
M  V30 53 1 13 48
M  V30 54 1 13 49
M  V30 55 1 14 50
M  V30 56 1 14 51
M  V30 57 1 15 52 CFG=1
M  V30 58 1 16 53
M  V30 59 1 20 54
M  V30 60 1 21 55
M  V30 61 1 23 56
M  V30 62 1 27 57
M  V30 63 1 28 58
M  V30 64 1 32 59
M  V30 65 1 34 60
M  V30 66 1 36 61
M  V30 67 1 37 62
M  V30 68 1 37 63
M  V30 END BOND
M  V30 END CTAB
M  END
>  <Dataset>  (601) 
ChEMBL_Kinases

>  <Ligand_Instance>  (601) 
nan

>  <PDB_ID>  (601) 
nan

>  <Standardized_SMILES>  (601) 
COc1cccc(F)c1CN1CCC[C@@H](NC(=O)c2ccc3[nH]nc(-c4ccc5nncn5c4)c3c2)C1

>  <Name>  (601) 
nan

>  <Pocket>  (601) 
nan

>  <ATP_Site>  (601) 
nan

>  <Peripheral>  (601) 
nan

>  <Num_H_Atoms_ProtBoundConf>  (601) 
nan

>  <Num_Resolved_Atoms>  (601) 
nan

>  <Num_Not_Resolved_Atoms>  (601) 
nan

$$$$
CHEMBL3654568
     RDKit          3D

  0  0  0  0  0  0  0  0  0  0999 V3000
M  V30 BEGIN CTAB
M  V30 COUNTS 66 70 0 0 0
M  V30 BEGIN ATOM
M  V30 1 C 1.043431 -1.490733 3.397205 0
M  V30 2 O 1.443374 -0.840812 2.223090 0
M  V30 3 C 2.779714 -0.637066 1.960681 0
M  V30 4 C 3.734176 -1.069888 2.840226 0
M  V30 5 C 5.065241 -0.887564 2.604290 0
M  V30 6 C 5.422745 -0.247935 1.441272 0
M  V30 7 C 4.441991 0.172221 0.585681 0
M  V30 8 F 4.880711 0.792547 -0.538838 0
M  V30 9 C 3.062620 0.012382 0.778025 0
M  V30 10 C 2.172060 0.581185 -0.247700 0
M  V30 11 N 1.692427 1.886420 -0.059422 0
M  V30 12 C 0.936441 2.278528 1.039506 0
M  V30 13 C -0.546331 2.384274 0.803898 0
M  V30 14 N -1.228162 1.122972 0.682424 0
M  V30 15 C -2.382900 0.890178 1.512813 0
M  V30 16 O -2.756880 1.784758 2.310857 0
M  V30 17 C -3.149548 -0.346901 1.472162 0
M  V30 18 C -4.286972 -0.401406 2.260254 0
M  V30 19 C -5.104430 -1.532262 2.299968 0
M  V30 20 C -4.807476 -2.649357 1.547611 0
M  V30 21 N -5.377107 -3.854594 1.370763 0
M  V30 22 N -4.619649 -4.531043 0.501603 0
M  V30 23 C -3.564232 -3.778054 0.111367 0
M  V30 24 C -2.569764 -4.268099 -0.834485 0
M  V30 25 C -2.801428 -4.922206 -2.026791 0
M  V30 26 C -1.785100 -5.356674 -2.844384 0
M  V30 27 N -0.501015 -5.134149 -2.465089 0
M  V30 28 C -0.226717 -4.493099 -1.298031 0
M  V30 29 C 1.197830 -4.262779 -0.901169 0
M  V30 30 C -1.239767 -4.056463 -0.476277 0
M  V30 31 C -3.658470 -2.567297 0.765035 0
M  V30 32 C -2.855054 -1.464779 0.721733 0
M  V30 33 C -0.828335 3.214034 -0.441967 0
M  V30 34 C -0.110883 2.569553 -1.579501 0
M  V30 35 C 1.371670 2.575483 -1.297017 0
M  V30 36 C 1.910436 3.986390 -1.325835 0
M  V30 37 H 1.359169 -2.552312 3.291008 0
M  V30 38 H -0.058618 -1.440902 3.517476 0
M  V30 39 H 1.493877 -1.017635 4.302243 0
M  V30 40 H 3.385804 -1.570147 3.743435 0
M  V30 41 H 5.804161 -1.223404 3.290296 0
M  V30 42 H 6.471024 -0.092975 1.232631 0
M  V30 43 H 2.757296 0.575836 -1.219692 0
M  V30 44 H 1.332896 -0.148655 -0.429786 0
M  V30 45 H 1.246714 3.353712 1.287207 0
M  V30 46 H 1.155167 1.729348 1.945162 0
M  V30 47 H -0.990750 2.932292 1.654879 0
M  V30 48 H -0.957695 0.347151 0.034238 0
M  V30 49 H -4.657930 0.403956 2.913075 0
M  V30 50 H -5.996995 -1.602281 2.904958 0
M  V30 51 H -6.242265 -4.194522 1.823247 0
M  V30 52 H -3.853276 -5.065559 -2.264519 0
M  V30 53 H -2.007892 -5.861916 -3.766115 0
M  V30 54 H 1.608754 -5.180622 -0.401509 0
M  V30 55 H 1.331105 -3.363768 -0.296494 0
M  V30 56 H 1.772775 -4.158275 -1.843430 0
M  V30 57 H -0.960370 -3.563684 0.425570 0
M  V30 58 H -1.980425 -1.423746 0.110566 0
M  V30 59 H -0.655923 4.277382 -0.294699 0
M  V30 60 H -1.928591 3.102174 -0.635907 0
M  V30 61 H -0.408993 1.491697 -1.578735 0
M  V30 62 H -0.276394 3.056114 -2.549896 0
M  V30 63 H 1.862888 2.015765 -2.115897 0
M  V30 64 H 2.488376 4.190516 -2.258819 0
M  V30 65 H 1.116358 4.756738 -1.312891 0
M  V30 66 H 2.591889 4.195656 -0.484324 0
M  V30 END ATOM
M  V30 BEGIN BOND
M  V30 1 1 1 2
M  V30 2 1 2 3
M  V30 3 2 3 4
M  V30 4 1 4 5
M  V30 5 2 5 6
M  V30 6 1 6 7
M  V30 7 1 7 8
M  V30 8 2 7 9
M  V30 9 1 9 10
M  V30 10 1 10 11
M  V30 11 1 11 12
M  V30 12 1 12 13
M  V30 13 1 13 14
M  V30 14 1 14 15
M  V30 15 2 15 16
M  V30 16 1 15 17
M  V30 17 2 17 18
M  V30 18 1 18 19
M  V30 19 2 19 20
M  V30 20 1 20 21
M  V30 21 1 21 22
M  V30 22 2 22 23
M  V30 23 1 23 24
M  V30 24 2 24 25
M  V30 25 1 25 26
M  V30 26 2 26 27
M  V30 27 1 27 28
M  V30 28 1 28 29
M  V30 29 2 28 30
M  V30 30 1 23 31
M  V30 31 2 31 32
M  V30 32 1 13 33
M  V30 33 1 33 34
M  V30 34 1 34 35
M  V30 35 1 35 36
M  V30 36 1 9 3
M  V30 37 1 35 11
M  V30 38 1 32 17
M  V30 39 1 31 20
M  V30 40 1 30 24
M  V30 41 1 1 37
M  V30 42 1 1 38
M  V30 43 1 1 39
M  V30 44 1 4 40
M  V30 45 1 5 41
M  V30 46 1 6 42
M  V30 47 1 10 43
M  V30 48 1 10 44
M  V30 49 1 12 45
M  V30 50 1 12 46
M  V30 51 1 13 47
M  V30 52 1 14 48
M  V30 53 1 18 49
M  V30 54 1 19 50
M  V30 55 1 21 51
M  V30 56 1 25 52
M  V30 57 1 26 53
M  V30 58 1 29 54
M  V30 59 1 29 55
M  V30 60 1 29 56
M  V30 61 1 30 57
M  V30 62 1 32 58
M  V30 63 1 33 59
M  V30 64 1 33 60
M  V30 65 1 34 61
M  V30 66 1 34 62
M  V30 67 1 35 63
M  V30 68 1 36 64
M  V30 69 1 36 65
M  V30 70 1 36 66
M  V30 END BOND
M  V30 END CTAB
M  END
>  <Dataset>  (602) 
ChEMBL_Kinases

>  <Ligand_Instance>  (602) 
nan

>  <PDB_ID>  (602) 
nan

>  <Standardized_SMILES>  (602) 
COc1cccc(F)c1CN1CC(NC(=O)c2ccc3[nH]nc(-c4ccnc(C)c4)c3c2)CCC1C

>  <Name>  (602) 
nan

>  <Pocket>  (602) 
nan

>  <ATP_Site>  (602) 
nan

>  <Peripheral>  (602) 
nan

>  <Num_H_Atoms_ProtBoundConf>  (602) 
nan

>  <Num_Resolved_Atoms>  (602) 
nan

>  <Num_Not_Resolved_Atoms>  (602) 
nan

$$$$
CHEMBL3654569
     RDKit          3D

  0  0  0  0  0  0  0  0  0  0999 V3000
M  V30 BEGIN CTAB
M  V30 COUNTS 66 70 0 0 0
M  V30 BEGIN ATOM
M  V30 1 C 3.720610 -0.991263 4.779838 0
M  V30 2 O 3.572301 0.124568 3.929890 0
M  V30 3 C 4.386528 0.300478 2.820857 0
M  V30 4 C 5.374879 -0.647024 2.542674 0
M  V30 5 C 6.241117 -0.571373 1.465190 0
M  V30 6 C 6.106760 0.512003 0.624440 0
M  V30 7 C 5.137644 1.450307 0.888770 0
M  V30 8 F 4.949504 2.551740 0.098085 0
M  V30 9 C 4.262520 1.400327 1.953255 0
M  V30 10 C 3.198173 2.322624 2.348809 0
M  V30 11 N 1.857163 1.919656 2.074950 0
M  V30 12 C 0.987828 2.911687 2.686885 0
M  V30 13 C 0.416100 3.896042 1.689028 0
M  V30 14 C -0.509816 3.191207 0.714418 0
M  V30 15 C 0.004030 1.775502 0.586498 0
M  V30 16 N -0.497179 1.085310 -0.553249 0
M  V30 17 C -1.309581 -0.081674 -0.486086 0
M  V30 18 O -1.564325 -0.480168 0.698498 0
M  V30 19 C -1.816956 -0.776781 -1.660284 0
M  V30 20 C -1.603337 -0.413351 -2.991780 0
M  V30 21 C -2.147897 -1.163556 -3.996541 0
M  V30 22 C -2.906703 -2.273777 -3.773272 0
M  V30 23 N -3.568034 -3.204394 -4.516024 0
M  V30 24 N -4.164958 -4.101085 -3.739641 0
M  V30 25 C -3.917388 -3.793093 -2.438447 0
M  V30 26 C -4.411396 -4.556691 -1.299731 0
M  V30 27 C -4.297965 -5.949104 -1.384661 0
M  V30 28 C -4.745732 -6.745660 -0.342196 0
M  V30 29 N -5.283201 -6.152014 0.735179 0
M  V30 30 C -5.413806 -4.820139 0.862434 0
M  V30 31 C -6.025069 -4.259264 2.097852 0
M  V30 32 C -4.973074 -4.022155 -0.165803 0
M  V30 33 C -3.136227 -2.657876 -2.472007 0
M  V30 34 C -2.587957 -1.902741 -1.455496 0
M  V30 35 C 1.513648 1.831690 0.672941 0
M  V30 36 C 2.165239 0.702285 -0.054663 0
M  V30 37 H 3.811716 -1.961916 4.224109 0
M  V30 38 H 2.825590 -1.120444 5.442684 0
M  V30 39 H 4.609885 -0.894021 5.436800 0
M  V30 40 H 5.518494 -1.529220 3.185316 0
M  V30 41 H 6.988169 -1.331825 1.293297 0
M  V30 42 H 6.740643 0.647600 -0.239555 0
M  V30 43 H 3.367464 3.268070 1.750668 0
M  V30 44 H 3.342896 2.645778 3.400955 0
M  V30 45 H 1.564536 3.485878 3.422040 0
M  V30 46 H 0.136504 2.451742 3.234768 0
M  V30 47 H -0.202568 4.602459 2.275826 0
M  V30 48 H 1.234199 4.450059 1.196771 0
M  V30 49 H -0.386853 3.681321 -0.268868 0
M  V30 50 H -1.562833 3.219215 1.068100 0
M  V30 51 H -0.373159 1.232897 1.494851 0
M  V30 52 H -0.259022 1.446848 -1.499960 0
M  V30 53 H -0.998636 0.471160 -3.136532 0
M  V30 54 H -1.976076 -0.873630 -5.025804 0
M  V30 55 H -3.564530 -3.159628 -5.557552 0
M  V30 56 H -3.873861 -6.509429 -2.224232 0
M  V30 57 H -4.674295 -7.826855 -0.375135 0
M  V30 58 H -7.100126 -4.071322 1.910578 0
M  V30 59 H -5.558546 -3.263119 2.258734 0
M  V30 60 H -5.880040 -4.927340 2.970666 0
M  V30 61 H -5.062075 -2.964079 -0.099531 0
M  V30 62 H -2.788862 -2.232186 -0.425470 0
M  V30 63 H 1.809053 2.784964 0.197807 0
M  V30 64 H 1.352598 0.217343 -0.688349 0
M  V30 65 H 2.656315 -0.052234 0.574279 0
M  V30 66 H 2.846762 1.125373 -0.820635 0
M  V30 END ATOM
M  V30 BEGIN BOND
M  V30 1 1 1 2
M  V30 2 1 2 3
M  V30 3 2 3 4
M  V30 4 1 4 5
M  V30 5 2 5 6
M  V30 6 1 6 7
M  V30 7 1 7 8
M  V30 8 2 7 9
M  V30 9 1 9 10
M  V30 10 1 10 11
M  V30 11 1 11 12
M  V30 12 1 12 13
M  V30 13 1 13 14
M  V30 14 1 14 15
M  V30 15 1 15 16
M  V30 16 1 16 17
M  V30 17 2 17 18
M  V30 18 1 17 19
M  V30 19 2 19 20
M  V30 20 1 20 21
M  V30 21 2 21 22
M  V30 22 1 22 23
M  V30 23 1 23 24
M  V30 24 2 24 25
M  V30 25 1 25 26
M  V30 26 2 26 27
M  V30 27 1 27 28
M  V30 28 2 28 29
M  V30 29 1 29 30
M  V30 30 1 30 31
M  V30 31 2 30 32
M  V30 32 1 25 33
M  V30 33 2 33 34
M  V30 34 1 15 35
M  V30 35 1 35 36
M  V30 36 1 9 3
M  V30 37 1 35 11
M  V30 38 1 34 19
M  V30 39 1 33 22
M  V30 40 1 32 26
M  V30 41 1 1 37
M  V30 42 1 1 38
M  V30 43 1 1 39
M  V30 44 1 4 40
M  V30 45 1 5 41
M  V30 46 1 6 42
M  V30 47 1 10 43
M  V30 48 1 10 44
M  V30 49 1 12 45
M  V30 50 1 12 46
M  V30 51 1 13 47
M  V30 52 1 13 48
M  V30 53 1 14 49
M  V30 54 1 14 50
M  V30 55 1 15 51
M  V30 56 1 16 52
M  V30 57 1 20 53
M  V30 58 1 21 54
M  V30 59 1 23 55
M  V30 60 1 27 56
M  V30 61 1 28 57
M  V30 62 1 31 58
M  V30 63 1 31 59
M  V30 64 1 31 60
M  V30 65 1 32 61
M  V30 66 1 34 62
M  V30 67 1 35 63
M  V30 68 1 36 64
M  V30 69 1 36 65
M  V30 70 1 36 66
M  V30 END BOND
M  V30 END CTAB
M  END
>  <Dataset>  (603) 
ChEMBL_Kinases

>  <Ligand_Instance>  (603) 
nan

>  <PDB_ID>  (603) 
nan

>  <Standardized_SMILES>  (603) 
COc1cccc(F)c1CN1CCCC(NC(=O)c2ccc3[nH]nc(-c4ccnc(C)c4)c3c2)C1C

>  <Name>  (603) 
nan

>  <Pocket>  (603) 
nan

>  <ATP_Site>  (603) 
nan

>  <Peripheral>  (603) 
nan

>  <Num_H_Atoms_ProtBoundConf>  (603) 
nan

>  <Num_Resolved_Atoms>  (603) 
nan

>  <Num_Not_Resolved_Atoms>  (603) 
nan

$$$$
CHEMBL3654570
     RDKit          3D

  0  0  0  0  0  0  0  0  0  0999 V3000
M  V30 BEGIN CTAB
M  V30 COUNTS 62 66 0 0 0
M  V30 BEGIN ATOM
M  V30 1 C 1.355634 -0.865983 5.109473 0
M  V30 2 C 2.178163 0.349106 4.802530 0
M  V30 3 C 2.676025 0.569523 3.550801 0
M  V30 4 C 3.445840 1.688354 3.225344 0
M  V30 5 C 3.953461 1.874982 1.869881 0
M  V30 6 N 5.211791 2.250974 1.564249 0
M  V30 7 N 5.389372 2.339976 0.255817 0
M  V30 8 C 4.244151 2.023694 -0.378225 0
M  V30 9 C 3.823766 1.938277 -1.691109 0
M  V30 10 C 2.501451 1.559671 -1.950553 0
M  V30 11 C 1.590550 1.265559 -0.957012 0
M  V30 12 C 0.235911 0.881398 -1.348373 0
M  V30 13 O -0.004314 0.846248 -2.569108 0
M  V30 14 N -0.756434 0.564022 -0.379760 0
M  V30 15 C -2.103733 0.178348 -0.641617 0 CFG=2
M  V30 16 C -3.141577 1.038235 0.037806 0
M  V30 17 C -4.483964 0.442348 -0.293485 0
M  V30 18 C -4.426571 -0.782795 -1.143441 0
M  V30 19 N -3.464813 -1.770320 -0.731184 0
M  V30 20 C -4.034389 -2.913890 -0.097745 0
M  V30 21 C -2.964774 -3.926217 0.317189 0
M  V30 22 F -3.639504 -4.991534 0.920610 0
M  V30 23 F -2.148691 -3.356517 1.275240 0
M  V30 24 C -2.201282 -4.450294 -0.825051 0
M  V30 25 C -2.320060 -4.159865 -2.161344 0
M  V30 26 C -1.506959 -4.757347 -3.092713 0
M  V30 27 C -0.534570 -5.672017 -2.756167 0
M  V30 28 C -0.412117 -5.969274 -1.394233 0
M  V30 29 C -1.228428 -5.371410 -0.444763 0
M  V30 30 F -0.995540 -5.757961 0.849667 0
M  V30 31 C -2.319654 -1.231425 -0.072795 0
M  V30 32 C 2.045934 1.361607 0.341175 0
M  V30 33 C 3.345785 1.732884 0.627902 0
M  V30 34 C 3.671811 2.566276 4.266941 0
M  V30 35 C 3.161109 2.334473 5.539186 0
M  V30 36 N 2.417214 1.216382 5.777260 0
M  V30 37 H 1.284229 -1.556590 4.258079 0
M  V30 38 H 0.315139 -0.518280 5.364852 0
M  V30 39 H 1.738149 -1.349753 6.027099 0
M  V30 40 H 2.435388 -0.185056 2.814675 0
M  V30 41 H 6.260287 2.608685 -0.254467 0
M  V30 42 H 4.520372 2.164129 -2.484638 0
M  V30 43 H 2.248700 1.515962 -3.008658 0
M  V30 44 H -0.551760 0.594394 0.644537 0
M  V30 45 H -2.379031 0.128119 -1.695874 0
M  V30 46 H -2.993063 2.064453 -0.312107 0
M  V30 47 H -3.011790 0.987543 1.144104 0
M  V30 48 H -5.021185 1.227918 -0.888772 0
M  V30 49 H -5.112839 0.241155 0.607089 0
M  V30 50 H -5.417761 -1.266302 -1.108062 0
M  V30 51 H -4.269426 -0.514257 -2.217280 0
M  V30 52 H -4.805740 -3.364432 -0.718124 0
M  V30 53 H -4.470049 -2.560383 0.874793 0
M  V30 54 H -3.090180 -3.441659 -2.383156 0
M  V30 55 H -1.628497 -4.504762 -4.136769 0
M  V30 56 H 0.114202 -6.154704 -3.456293 0
M  V30 57 H 0.352866 -6.692749 -1.101086 0
M  V30 58 H -2.447254 -1.095487 1.019473 0
M  V30 59 H -1.388951 -1.802775 -0.248745 0
M  V30 60 H 1.353354 1.137054 1.128809 0
M  V30 61 H 4.265353 3.448373 4.056356 0
M  V30 62 H 3.337711 3.021677 6.355478 0
M  V30 END ATOM
M  V30 BEGIN BOND
M  V30 1 1 1 2
M  V30 2 2 2 3
M  V30 3 1 3 4
M  V30 4 1 4 5
M  V30 5 2 5 6
M  V30 6 1 6 7
M  V30 7 1 7 8
M  V30 8 2 8 9
M  V30 9 1 9 10
M  V30 10 2 10 11
M  V30 11 1 11 12
M  V30 12 2 12 13
M  V30 13 1 12 14
M  V30 14 1 14 15
M  V30 15 1 15 16
M  V30 16 1 16 17
M  V30 17 1 17 18
M  V30 18 1 18 19
M  V30 19 1 19 20
M  V30 20 1 20 21
M  V30 21 1 21 22
M  V30 22 1 21 23
M  V30 23 1 21 24
M  V30 24 2 24 25
M  V30 25 1 25 26
M  V30 26 2 26 27
M  V30 27 1 27 28
M  V30 28 2 28 29
M  V30 29 1 29 30
M  V30 30 1 19 31
M  V30 31 1 11 32
M  V30 32 2 32 33
M  V30 33 2 4 34
M  V30 34 1 34 35
M  V30 35 2 35 36
M  V30 36 1 36 2
M  V30 37 1 33 5
M  V30 38 1 33 8
M  V30 39 1 31 15
M  V30 40 1 29 24
M  V30 41 1 1 37
M  V30 42 1 1 38
M  V30 43 1 1 39
M  V30 44 1 3 40
M  V30 45 1 7 41
M  V30 46 1 9 42
M  V30 47 1 10 43
M  V30 48 1 14 44
M  V30 49 1 15 45 CFG=3
M  V30 50 1 16 46
M  V30 51 1 16 47
M  V30 52 1 17 48
M  V30 53 1 17 49
M  V30 54 1 18 50
M  V30 55 1 18 51
M  V30 56 1 20 52
M  V30 57 1 20 53
M  V30 58 1 25 54
M  V30 59 1 26 55
M  V30 60 1 27 56
M  V30 61 1 28 57
M  V30 62 1 31 58
M  V30 63 1 31 59
M  V30 64 1 32 60
M  V30 65 1 34 61
M  V30 66 1 35 62
M  V30 END BOND
M  V30 END CTAB
M  END
>  <Dataset>  (604) 
ChEMBL_Kinases

>  <Ligand_Instance>  (604) 
nan

>  <PDB_ID>  (604) 
nan

>  <Standardized_SMILES>  (604) 
Cc1cc(-c2n[nH]c3ccc(C(=O)N[C@@H]4CCCN(CC(F)(F)c5ccccc5F)C4)cc23)ccn1

>  <Name>  (604) 
nan

>  <Pocket>  (604) 
nan

>  <ATP_Site>  (604) 
nan

>  <Peripheral>  (604) 
nan

>  <Num_H_Atoms_ProtBoundConf>  (604) 
nan

>  <Num_Resolved_Atoms>  (604) 
nan

>  <Num_Not_Resolved_Atoms>  (604) 
nan

$$$$
CHEMBL3654571
     RDKit          3D

  0  0  0  0  0  0  0  0  0  0999 V3000
M  V30 BEGIN CTAB
M  V30 COUNTS 62 66 0 0 0
M  V30 BEGIN ATOM
M  V30 1 C -5.607831 1.670560 0.747970 0
M  V30 2 C -5.837046 0.663649 -0.334130 0
M  V30 3 C -5.417516 -0.614295 -0.103578 0
M  V30 4 C -5.549658 -1.677245 -0.997270 0
M  V30 5 C -5.073499 -3.011718 -0.673275 0
M  V30 6 N -5.794112 -4.149535 -0.889918 0
M  V30 7 N -5.083129 -5.196242 -0.488372 0
M  V30 8 C -3.905134 -4.786897 -0.008808 0
M  V30 9 C -2.789594 -5.421292 0.533893 0
M  V30 10 C -1.664398 -4.722352 0.965417 0
M  V30 11 C -1.678949 -3.341082 0.839440 0
M  V30 12 C -0.497337 -2.633650 1.302237 0
M  V30 13 O 0.453058 -3.307370 1.796667 0
M  V30 14 N -0.287947 -1.240401 1.260410 0
M  V30 15 C 0.872467 -0.519889 1.717874 0 CFG=2
M  V30 16 C 0.482155 0.368027 2.876933 0
M  V30 17 C 0.728031 1.819424 2.560449 0
M  V30 18 C 2.085397 2.091282 2.027079 0
M  V30 19 N 2.640147 1.043118 1.183752 0
M  V30 20 C 3.672180 0.401749 1.900949 0
M  V30 21 C 4.467155 -0.650707 1.232574 0
M  V30 22 F 5.395585 -1.097739 2.185288 0
M  V30 23 F 3.826773 -1.726663 0.741138 0
M  V30 24 C 5.306649 -0.095633 0.106146 0
M  V30 25 C 4.908921 0.005251 -1.210838 0
M  V30 26 C 5.757213 0.532445 -2.159538 0
M  V30 27 C 7.010441 0.974434 -1.855712 0
M  V30 28 C 7.448910 0.896167 -0.571301 0
M  V30 29 C 6.599890 0.369430 0.372781 0
M  V30 30 C 1.559333 0.277568 0.688092 0
M  V30 31 C -2.773853 -2.704401 0.305409 0
M  V30 32 C -3.883393 -3.413986 -0.118080 0
M  V30 33 C -6.167184 -1.348861 -2.206273 0
M  V30 34 C -6.588568 -0.033733 -2.420074 0
M  V30 35 N -6.421677 0.937491 -1.499349 0
M  V30 36 H -4.557088 1.685780 1.070584 0
M  V30 37 H -6.306973 1.414434 1.584633 0
M  V30 38 H -5.916364 2.652386 0.374797 0
M  V30 39 H -4.943702 -0.868175 0.826507 0
M  V30 40 H -5.388924 -6.203603 -0.534475 0
M  V30 41 H -2.873261 -6.497854 0.590843 0
M  V30 42 H -0.888268 -5.336857 1.358017 0
M  V30 43 H -1.075730 -0.660038 0.844519 0
M  V30 44 H 1.566600 -1.309215 2.104861 0
M  V30 45 H 0.955125 0.050769 3.843020 0
M  V30 46 H -0.622772 0.274299 3.064529 0
M  V30 47 H 0.638976 2.357021 3.542496 0
M  V30 48 H -0.110106 2.196568 1.945104 0
M  V30 49 H 2.053839 2.999894 1.367016 0
M  V30 50 H 2.821029 2.375408 2.829154 0
M  V30 51 H 4.410752 1.220691 2.159546 0
M  V30 52 H 3.292521 0.097359 2.903811 0
M  V30 53 H 3.920385 -0.347228 -1.433127 0
M  V30 54 H 5.436388 0.607843 -3.189764 0
M  V30 55 H 7.734872 1.403514 -2.556671 0
M  V30 56 H 8.437974 1.222955 -0.217398 0
M  V30 57 H 6.932569 0.297878 1.407793 0
M  V30 58 H 0.807174 1.039020 0.317643 0
M  V30 59 H 1.804034 -0.288053 -0.246282 0
M  V30 60 H -2.760961 -1.638181 0.217030 0
M  V30 61 H -6.295742 -2.130293 -2.932639 0
M  V30 62 H -7.067008 0.204533 -3.365824 0
M  V30 END ATOM
M  V30 BEGIN BOND
M  V30 1 1 1 2
M  V30 2 2 2 3
M  V30 3 1 3 4
M  V30 4 1 4 5
M  V30 5 2 5 6
M  V30 6 1 6 7
M  V30 7 1 7 8
M  V30 8 2 8 9
M  V30 9 1 9 10
M  V30 10 2 10 11
M  V30 11 1 11 12
M  V30 12 2 12 13
M  V30 13 1 12 14
M  V30 14 1 14 15
M  V30 15 1 15 16
M  V30 16 1 16 17
M  V30 17 1 17 18
M  V30 18 1 18 19
M  V30 19 1 19 20
M  V30 20 1 20 21
M  V30 21 1 21 22
M  V30 22 1 21 23
M  V30 23 1 21 24
M  V30 24 2 24 25
M  V30 25 1 25 26
M  V30 26 2 26 27
M  V30 27 1 27 28
M  V30 28 2 28 29
M  V30 29 1 19 30
M  V30 30 1 11 31
M  V30 31 2 31 32
M  V30 32 2 4 33
M  V30 33 1 33 34
M  V30 34 2 34 35
M  V30 35 1 35 2
M  V30 36 1 32 5
M  V30 37 1 32 8
M  V30 38 1 30 15
M  V30 39 1 29 24
M  V30 40 1 1 36
M  V30 41 1 1 37
M  V30 42 1 1 38
M  V30 43 1 3 39
M  V30 44 1 7 40
M  V30 45 1 9 41
M  V30 46 1 10 42
M  V30 47 1 14 43
M  V30 48 1 15 44 CFG=1
M  V30 49 1 16 45
M  V30 50 1 16 46
M  V30 51 1 17 47
M  V30 52 1 17 48
M  V30 53 1 18 49
M  V30 54 1 18 50
M  V30 55 1 20 51
M  V30 56 1 20 52
M  V30 57 1 25 53
M  V30 58 1 26 54
M  V30 59 1 27 55
M  V30 60 1 28 56
M  V30 61 1 29 57
M  V30 62 1 30 58
M  V30 63 1 30 59
M  V30 64 1 31 60
M  V30 65 1 33 61
M  V30 66 1 34 62
M  V30 END BOND
M  V30 END CTAB
M  END
>  <Dataset>  (605) 
ChEMBL_Kinases

>  <Ligand_Instance>  (605) 
nan

>  <PDB_ID>  (605) 
nan

>  <Standardized_SMILES>  (605) 
Cc1cc(-c2n[nH]c3ccc(C(=O)N[C@@H]4CCCN(CC(F)(F)c5ccccc5)C4)cc23)ccn1

>  <Name>  (605) 
nan

>  <Pocket>  (605) 
nan

>  <ATP_Site>  (605) 
nan

>  <Peripheral>  (605) 
nan

>  <Num_H_Atoms_ProtBoundConf>  (605) 
nan

>  <Num_Resolved_Atoms>  (605) 
nan

>  <Num_Not_Resolved_Atoms>  (605) 
nan

$$$$
CHEMBL3654572
     RDKit          3D

  0  0  0  0  0  0  0  0  0  0999 V3000
M  V30 BEGIN CTAB
M  V30 COUNTS 68 73 0 0 0
M  V30 BEGIN ATOM
M  V30 1 O -2.103585 -3.397940 3.240727 0
M  V30 2 C -1.181559 -3.256321 2.365802 0
M  V30 3 N -0.760285 -2.011599 1.850756 0
M  V30 4 C -1.228135 -0.670676 2.163103 0
M  V30 5 C -0.132721 0.253217 2.555334 0
M  V30 6 C -0.636378 1.571282 3.069699 0
M  V30 7 C -2.112985 1.620377 3.340015 0
M  V30 8 C -2.949744 1.564747 2.111155 0
M  V30 9 N -2.153844 1.264933 0.890453 0
M  V30 10 C -3.110172 1.447322 -0.182366 0
M  V30 11 C -2.412641 1.585541 -1.506003 0
M  V30 12 C -1.632037 2.798067 -1.529685 0
M  V30 13 C -2.371706 3.921711 -1.968608 0
M  V30 14 C -1.908918 5.219776 -2.020334 0
M  V30 15 C -0.619283 5.475129 -1.616722 0
M  V30 16 C 0.157809 4.431817 -1.180220 0
M  V30 17 C 1.468895 4.605745 -0.781331 0
M  V30 18 C 2.275661 3.543579 -0.358675 0
M  V30 19 C 1.697803 2.266384 -0.353299 0
M  V30 20 C 0.404321 2.138267 -0.752498 0
M  V30 21 C -0.369153 3.183063 -1.159076 0
M  V30 22 C -1.876951 -0.172594 0.910695 0
M  V30 23 C -0.568320 -4.504002 1.915165 0
M  V30 24 C -1.061852 -5.698796 2.379552 0
M  V30 25 C -0.483432 -6.905751 1.965757 0
M  V30 26 C 0.583616 -6.957244 1.093769 0
M  V30 27 N 1.340811 -7.907641 0.520067 0
M  V30 28 N 2.243678 -7.334501 -0.248151 0
M  V30 29 C 2.148516 -5.995777 -0.236069 0
M  V30 30 C 2.986048 -5.056578 -0.968522 0
M  V30 31 C 3.354154 -5.147273 -2.310805 0
M  V30 32 C 4.172889 -4.163311 -2.863443 0
M  V30 33 N 4.614388 -3.119172 -2.107485 0
M  V30 34 C 4.260333 -3.023670 -0.799334 0
M  V30 35 C 3.457140 -3.982838 -0.244083 0
M  V30 36 C 1.085543 -5.747987 0.622170 0
M  V30 37 C 0.501565 -4.572881 1.041713 0
M  V30 38 H -0.009578 -1.907318 1.134195 0
M  V30 39 H -1.958977 -0.824992 2.991471 0
M  V30 40 H 0.596870 -0.219067 3.255485 0
M  V30 41 H 0.424662 0.489710 1.599884 0
M  V30 42 H -0.126812 1.748982 4.064105 0
M  V30 43 H -0.299038 2.437691 2.456729 0
M  V30 44 H -2.367507 0.832670 4.069499 0
M  V30 45 H -2.270670 2.581872 3.914716 0
M  V30 46 H -3.837496 0.907549 2.182152 0
M  V30 47 H -3.340897 2.586519 1.921865 0
M  V30 48 H -3.790510 2.308655 0.022337 0
M  V30 49 H -3.738007 0.525519 -0.264173 0
M  V30 50 H -1.866017 0.638763 -1.647383 0
M  V30 51 H -3.195055 1.617462 -2.300374 0
M  V30 52 H -3.412548 3.854613 -2.317852 0
M  V30 53 H -2.486623 6.052740 -2.355939 0
M  V30 54 H -0.212270 6.465628 -1.635813 0
M  V30 55 H 1.813284 5.638670 -0.825286 0
M  V30 56 H 3.301183 3.760855 -0.059074 0
M  V30 57 H 2.334484 1.481065 -0.029183 0
M  V30 58 H 0.059873 1.137095 -0.741136 0
M  V30 59 H -1.332457 -0.459575 0.019419 0
M  V30 60 H -2.890361 -0.680246 0.785160 0
M  V30 61 H -1.902237 -5.777184 3.072134 0
M  V30 62 H -0.864739 -7.864211 2.326195 0
M  V30 63 H 1.209060 -8.944330 0.679347 0
M  V30 64 H 2.963199 -6.002594 -2.838181 0
M  V30 65 H 4.422933 -4.290955 -3.912935 0
M  V30 66 H 4.694246 -2.144362 -0.357211 0
M  V30 67 H 3.282897 -3.740429 0.810770 0
M  V30 68 H 0.902419 -3.656059 0.664620 0
M  V30 END ATOM
M  V30 BEGIN BOND
M  V30 1 2 1 2
M  V30 2 1 2 3
M  V30 3 1 3 4
M  V30 4 1 4 5
M  V30 5 1 5 6
M  V30 6 1 6 7
M  V30 7 1 7 8
M  V30 8 1 8 9
M  V30 9 1 9 10
M  V30 10 1 10 11
M  V30 11 1 11 12
M  V30 12 2 12 13
M  V30 13 1 13 14
M  V30 14 2 14 15
M  V30 15 1 15 16
M  V30 16 2 16 17
M  V30 17 1 17 18
M  V30 18 2 18 19
M  V30 19 1 19 20
M  V30 20 2 20 21
M  V30 21 1 9 22
M  V30 22 1 2 23
M  V30 23 2 23 24
M  V30 24 1 24 25
M  V30 25 2 25 26
M  V30 26 1 26 27
M  V30 27 1 27 28
M  V30 28 2 28 29
M  V30 29 1 29 30
M  V30 30 2 30 31
M  V30 31 1 31 32
M  V30 32 2 32 33
M  V30 33 1 33 34
M  V30 34 2 34 35
M  V30 35 1 29 36
M  V30 36 2 36 37
M  V30 37 1 22 4
M  V30 38 1 37 23
M  V30 39 1 21 12
M  V30 40 1 36 26
M  V30 41 1 21 16
M  V30 42 1 35 30
M  V30 43 1 3 38
M  V30 44 1 4 39
M  V30 45 1 5 40
M  V30 46 1 5 41
M  V30 47 1 6 42
M  V30 48 1 6 43
M  V30 49 1 7 44
M  V30 50 1 7 45
M  V30 51 1 8 46
M  V30 52 1 8 47
M  V30 53 1 10 48
M  V30 54 1 10 49
M  V30 55 1 11 50
M  V30 56 1 11 51
M  V30 57 1 13 52
M  V30 58 1 14 53
M  V30 59 1 15 54
M  V30 60 1 17 55
M  V30 61 1 18 56
M  V30 62 1 19 57
M  V30 63 1 20 58
M  V30 64 1 22 59
M  V30 65 1 22 60
M  V30 66 1 24 61
M  V30 67 1 25 62
M  V30 68 1 27 63
M  V30 69 1 31 64
M  V30 70 1 32 65
M  V30 71 1 34 66
M  V30 72 1 35 67
M  V30 73 1 37 68
M  V30 END BOND
M  V30 END CTAB
M  END
>  <Dataset>  (606) 
ChEMBL_Kinases

>  <Ligand_Instance>  (606) 
nan

>  <PDB_ID>  (606) 
nan

>  <Standardized_SMILES>  (606) 
O=C(NC1CCCCN(CCc2cccc3ccccc23)C1)c1ccc2[nH]nc(-c3ccncc3)c2c1

>  <Name>  (606) 
nan

>  <Pocket>  (606) 
nan

>  <ATP_Site>  (606) 
nan

>  <Peripheral>  (606) 
nan

>  <Num_H_Atoms_ProtBoundConf>  (606) 
nan

>  <Num_Resolved_Atoms>  (606) 
nan

>  <Num_Not_Resolved_Atoms>  (606) 
nan

$$$$
CHEMBL3654573
     RDKit          3D

  0  0  0  0  0  0  0  0  0  0999 V3000
M  V30 BEGIN CTAB
M  V30 COUNTS 62 66 0 0 0
M  V30 BEGIN ATOM
M  V30 1 O 0.553023 -2.853634 1.811938 0
M  V30 2 C 0.045102 -1.798726 1.299049 0
M  V30 3 N 0.928742 -0.714923 1.048541 0
M  V30 4 C 2.337676 -0.727483 1.331519 0
M  V30 5 C 2.691172 0.467746 2.158616 0
M  V30 6 C 4.145512 0.853630 1.975298 0
M  V30 7 C 4.362460 1.838150 0.866808 0
M  V30 8 C 4.128268 1.291707 -0.510758 0
M  V30 9 N 2.853829 0.613928 -0.581775 0
M  V30 10 C 2.290438 0.533918 -1.890921 0
M  V30 11 C 1.842458 1.830120 -2.474262 0
M  V30 12 C 0.811373 2.517984 -1.697022 0
M  V30 13 C 1.092411 3.440554 -0.696105 0
M  V30 14 C 0.131615 4.100144 0.048703 0
M  V30 15 C -1.200100 3.823256 -0.220526 0
M  V30 16 C -1.527133 2.915643 -1.203671 0
M  V30 17 F -2.853225 2.746769 -1.354275 0
M  V30 18 C -0.526378 2.275540 -1.928186 0
M  V30 19 C 3.088193 -0.712884 -0.007758 0
M  V30 20 C -1.383220 -1.751620 0.999592 0
M  V30 21 C -2.029532 -0.644423 0.450279 0
M  V30 22 C -3.375614 -0.630496 0.178764 0
M  V30 23 C -4.111674 -1.779973 0.470649 0
M  V30 24 N -5.429808 -2.109207 0.335959 0
M  V30 25 N -5.641689 -3.338201 0.761784 0
M  V30 26 C -4.486288 -3.894954 1.201442 0
M  V30 27 C -4.300617 -5.232983 1.748080 0
M  V30 28 C -3.219032 -5.981271 1.290446 0
M  V30 29 C -2.971730 -7.259015 1.760152 0
M  V30 30 N -3.770642 -7.821062 2.676664 0
M  V30 31 C -4.841759 -7.119280 3.150197 0
M  V30 32 C -5.113980 -5.826907 2.692476 0
M  V30 33 C -3.521165 -2.923357 1.022362 0
M  V30 34 C -2.166118 -2.854460 1.264385 0
M  V30 35 H 0.562657 0.168317 0.629958 0
M  V30 36 H 2.666415 -1.695638 1.797466 0
M  V30 37 H 2.443294 0.251037 3.213215 0
M  V30 38 H 2.068080 1.318310 1.809903 0
M  V30 39 H 4.416616 1.401244 2.925140 0
M  V30 40 H 4.815517 -0.025794 1.941841 0
M  V30 41 H 5.450244 2.122679 0.913293 0
M  V30 42 H 3.701807 2.686872 1.041588 0
M  V30 43 H 4.116079 2.130521 -1.209094 0
M  V30 44 H 4.961001 0.628529 -0.829229 0
M  V30 45 H 3.022472 -0.004236 -2.525208 0
M  V30 46 H 1.389424 -0.146148 -1.874456 0
M  V30 47 H 2.743494 2.468145 -2.656948 0
M  V30 48 H 1.420145 1.684461 -3.512765 0
M  V30 49 H 2.160882 3.609696 -0.539780 0
M  V30 50 H 0.540268 4.788717 0.791013 0
M  V30 51 H -1.876282 4.387784 0.412466 0
M  V30 52 H -0.887299 1.583820 -2.674852 0
M  V30 53 H 2.625516 -1.506245 -0.609659 0
M  V30 54 H 4.143214 -0.947880 0.131447 0
M  V30 55 H -1.435756 0.233768 0.233782 0
M  V30 56 H -3.866662 0.234105 -0.246709 0
M  V30 57 H -6.085461 -1.395184 -0.064465 0
M  V30 58 H -2.496690 -5.651487 0.552461 0
M  V30 59 H -2.131479 -7.862639 1.416386 0
M  V30 60 H -5.477726 -7.584582 3.889166 0
M  V30 61 H -5.957917 -5.252647 3.054935 0
M  V30 62 H -1.665599 -3.721993 1.694371 0
M  V30 END ATOM
M  V30 BEGIN BOND
M  V30 1 2 1 2
M  V30 2 1 2 3
M  V30 3 1 3 4
M  V30 4 1 4 5
M  V30 5 1 5 6
M  V30 6 1 6 7
M  V30 7 1 7 8
M  V30 8 1 8 9
M  V30 9 1 9 10
M  V30 10 1 10 11
M  V30 11 1 11 12
M  V30 12 2 12 13
M  V30 13 1 13 14
M  V30 14 2 14 15
M  V30 15 1 15 16
M  V30 16 1 16 17
M  V30 17 2 16 18
M  V30 18 1 9 19
M  V30 19 1 2 20
M  V30 20 2 20 21
M  V30 21 1 21 22
M  V30 22 2 22 23
M  V30 23 1 23 24
M  V30 24 1 24 25
M  V30 25 2 25 26
M  V30 26 1 26 27
M  V30 27 2 27 28
M  V30 28 1 28 29
M  V30 29 2 29 30
M  V30 30 1 30 31
M  V30 31 2 31 32
M  V30 32 1 26 33
M  V30 33 2 33 34
M  V30 34 1 19 4
M  V30 35 1 34 20
M  V30 36 1 18 12
M  V30 37 1 33 23
M  V30 38 1 32 27
M  V30 39 1 3 35
M  V30 40 1 4 36
M  V30 41 1 5 37
M  V30 42 1 5 38
M  V30 43 1 6 39
M  V30 44 1 6 40
M  V30 45 1 7 41
M  V30 46 1 7 42
M  V30 47 1 8 43
M  V30 48 1 8 44
M  V30 49 1 10 45
M  V30 50 1 10 46
M  V30 51 1 11 47
M  V30 52 1 11 48
M  V30 53 1 13 49
M  V30 54 1 14 50
M  V30 55 1 15 51
M  V30 56 1 18 52
M  V30 57 1 19 53
M  V30 58 1 19 54
M  V30 59 1 21 55
M  V30 60 1 22 56
M  V30 61 1 24 57
M  V30 62 1 28 58
M  V30 63 1 29 59
M  V30 64 1 31 60
M  V30 65 1 32 61
M  V30 66 1 34 62
M  V30 END BOND
M  V30 END CTAB
M  END
>  <Dataset>  (607) 
ChEMBL_Kinases

>  <Ligand_Instance>  (607) 
nan

>  <PDB_ID>  (607) 
nan

>  <Standardized_SMILES>  (607) 
O=C(NC1CCCCN(CCc2cccc(F)c2)C1)c1ccc2[nH]nc(-c3ccncc3)c2c1

>  <Name>  (607) 
nan

>  <Pocket>  (607) 
nan

>  <ATP_Site>  (607) 
nan

>  <Peripheral>  (607) 
nan

>  <Num_H_Atoms_ProtBoundConf>  (607) 
nan

>  <Num_Resolved_Atoms>  (607) 
nan

>  <Num_Not_Resolved_Atoms>  (607) 
nan

$$$$
CHEMBL3654574
     RDKit          3D

  0  0  0  0  0  0  0  0  0  0999 V3000
M  V30 BEGIN CTAB
M  V30 COUNTS 63 68 0 0 0
M  V30 BEGIN ATOM
M  V30 1 C 0.573960 0.790328 6.949848 0
M  V30 2 O 0.787956 1.185905 5.636120 0
M  V30 3 C 1.735764 2.037836 5.149114 0
M  V30 4 C 2.628897 2.611202 6.025403 0
M  V30 5 C 3.602569 3.471975 5.577860 0
M  V30 6 C 3.668877 3.751791 4.230563 0
M  V30 7 C 2.750385 3.151477 3.395912 0
M  V30 8 F 2.863722 3.465898 2.065212 0
M  V30 9 C 1.737014 2.268025 3.792838 0
M  V30 10 C 0.834662 1.756865 2.741222 0
M  V30 11 N -0.398118 2.417711 2.573054 0
M  V30 12 C -1.342382 2.430379 3.613392 0
M  V30 13 C -2.059215 1.107622 3.810794 0
M  V30 14 C -2.689390 0.628949 2.518672 0
M  V30 15 C -1.671906 0.749691 1.439019 0 CFG=1
M  V30 16 N -2.116758 0.359427 0.123527 0
M  V30 17 C -1.539813 -0.676550 -0.656652 0
M  V30 18 O -0.576488 -1.259078 -0.106886 0
M  V30 19 C -2.016767 -1.042809 -1.986900 0
M  V30 20 C -3.080527 -0.450560 -2.671677 0
M  V30 21 C -3.427127 -0.892520 -3.927885 0
M  V30 22 C -2.759071 -1.919844 -4.563957 0
M  V30 23 N -2.866774 -2.548872 -5.753221 0
M  V30 24 N -1.942997 -3.504062 -5.875192 0
M  V30 25 C -1.195393 -3.515871 -4.736975 0
M  V30 26 C -0.074463 -4.394908 -4.428710 0
M  V30 27 C 1.152209 -4.081012 -3.889204 0
M  V30 28 C 2.128125 -5.019808 -3.643678 0
M  V30 29 C 1.928211 -6.353819 -3.929929 0
M  V30 30 N 2.889592 -7.232121 -3.680405 0
M  V30 31 C 2.631019 -8.491380 -3.977862 0
M  V30 32 S 0.847148 -8.499259 -4.693628 0
M  V30 33 C 0.596397 -6.639606 -4.507328 0
M  V30 34 C -0.352081 -5.700215 -4.741719 0
M  V30 35 C -1.705888 -2.515975 -3.901942 0
M  V30 36 C -1.370399 -2.062540 -2.644392 0
M  V30 37 C -1.056871 2.131857 1.315706 0
M  V30 38 H -0.076771 -0.104478 6.957630 0
M  V30 39 H 1.492036 0.593044 7.523817 0
M  V30 40 H 0.030400 1.641555 7.454027 0
M  V30 41 H 2.553142 2.374591 7.070138 0
M  V30 42 H 4.280867 3.898999 6.293910 0
M  V30 43 H 4.418575 4.422310 3.837246 0
M  V30 44 H 1.414734 1.784630 1.767600 0
M  V30 45 H 0.718107 0.644266 2.919010 0
M  V30 46 H -1.031607 2.811925 4.579020 0
M  V30 47 H -2.163327 3.159351 3.285890 0
M  V30 48 H -1.399234 0.346733 4.257949 0
M  V30 49 H -2.882280 1.292290 4.532557 0
M  V30 50 H -2.934857 -0.437902 2.642838 0
M  V30 51 H -3.597949 1.225640 2.369873 0
M  V30 52 H -0.821716 0.078804 1.694192 0
M  V30 53 H -2.939411 0.891797 -0.287303 0
M  V30 54 H -3.582363 0.351164 -2.145442 0
M  V30 55 H -4.259645 -0.411516 -4.435946 0
M  V30 56 H -3.619606 -2.256331 -6.443240 0
M  V30 57 H 1.241666 -3.011185 -3.689441 0
M  V30 58 H 3.004238 -4.549202 -3.220431 0
M  V30 59 H 3.234341 -9.359851 -3.869994 0
M  V30 60 H -1.185640 -6.235375 -5.157768 0
M  V30 61 H -0.537089 -2.556214 -2.153697 0
M  V30 62 H -1.803519 2.912684 1.119437 0
M  V30 63 H -0.322636 2.043572 0.478306 0
M  V30 END ATOM
M  V30 BEGIN BOND
M  V30 1 1 1 2
M  V30 2 1 2 3
M  V30 3 2 3 4
M  V30 4 1 4 5
M  V30 5 2 5 6
M  V30 6 1 6 7
M  V30 7 1 7 8
M  V30 8 2 7 9
M  V30 9 1 9 10
M  V30 10 1 10 11
M  V30 11 1 11 12
M  V30 12 1 12 13
M  V30 13 1 13 14
M  V30 14 1 14 15
M  V30 15 1 15 16
M  V30 16 1 16 17
M  V30 17 2 17 18
M  V30 18 1 17 19
M  V30 19 2 19 20
M  V30 20 1 20 21
M  V30 21 2 21 22
M  V30 22 1 22 23
M  V30 23 1 23 24
M  V30 24 2 24 25
M  V30 25 1 25 26
M  V30 26 2 26 27
M  V30 27 1 27 28
M  V30 28 2 28 29
M  V30 29 1 29 30
M  V30 30 2 30 31
M  V30 31 1 31 32
M  V30 32 1 32 33
M  V30 33 2 33 34
M  V30 34 1 25 35
M  V30 35 2 35 36
M  V30 36 1 15 37
M  V30 37 1 9 3
M  V30 38 1 37 11
M  V30 39 1 36 19
M  V30 40 1 35 22
M  V30 41 1 34 26
M  V30 42 1 33 29
M  V30 43 1 1 38
M  V30 44 1 1 39
M  V30 45 1 1 40
M  V30 46 1 4 41
M  V30 47 1 5 42
M  V30 48 1 6 43
M  V30 49 1 10 44
M  V30 50 1 10 45
M  V30 51 1 12 46
M  V30 52 1 12 47
M  V30 53 1 13 48
M  V30 54 1 13 49
M  V30 55 1 14 50
M  V30 56 1 14 51
M  V30 57 1 15 52 CFG=1
M  V30 58 1 16 53
M  V30 59 1 20 54
M  V30 60 1 21 55
M  V30 61 1 23 56
M  V30 62 1 27 57
M  V30 63 1 28 58
M  V30 64 1 31 59
M  V30 65 1 34 60
M  V30 66 1 36 61
M  V30 67 1 37 62
M  V30 68 1 37 63
M  V30 END BOND
M  V30 END CTAB
M  END
>  <Dataset>  (608) 
ChEMBL_Kinases

>  <Ligand_Instance>  (608) 
nan

>  <PDB_ID>  (608) 
nan

>  <Standardized_SMILES>  (608) 
COc1cccc(F)c1CN1CCC[C@@H](NC(=O)c2ccc3[nH]nc(-c4ccc5ncsc5c4)c3c2)C1

>  <Name>  (608) 
nan

>  <Pocket>  (608) 
nan

>  <ATP_Site>  (608) 
nan

>  <Peripheral>  (608) 
nan

>  <Num_H_Atoms_ProtBoundConf>  (608) 
nan

>  <Num_Resolved_Atoms>  (608) 
nan

>  <Num_Not_Resolved_Atoms>  (608) 
nan

$$$$
CHEMBL3654566
     RDKit          3D

  0  0  0  0  0  0  0  0  0  0999 V3000
M  V30 BEGIN CTAB
M  V30 COUNTS 66 71 0 0 0
M  V30 BEGIN ATOM
M  V30 1 C 1.816474 0.571647 4.977482 0
M  V30 2 O 1.803255 1.710340 4.143212 0
M  V30 3 C 2.853639 1.940959 3.277593 0
M  V30 4 C 3.946542 1.074982 3.196060 0
M  V30 5 C 4.978488 1.324843 2.328368 0
M  V30 6 C 4.980122 2.422600 1.514300 0
M  V30 7 C 3.895797 3.254159 1.615879 0
M  V30 8 F 3.843994 4.369945 0.823815 0
M  V30 9 C 2.818700 3.063424 2.469534 0
M  V30 10 C 1.692608 4.029307 2.499340 0
M  V30 11 N 0.530267 3.548538 1.831901 0
M  V30 12 C -0.572109 4.451829 1.846558 0
M  V30 13 C -1.072415 4.694256 0.454041 0
M  V30 14 C -1.473612 3.459154 -0.290747 0
M  V30 15 C -0.542307 2.341417 0.072341 0 CFG=1
M  V30 16 N -0.378500 1.362464 -0.973144 0
M  V30 17 C -0.699667 0.005982 -0.875042 0
M  V30 18 O -1.169481 -0.317267 0.260364 0
M  V30 19 C -0.519228 -0.959987 -1.961726 0
M  V30 20 C -0.032786 -0.633402 -3.210263 0
M  V30 21 C 0.102855 -1.615002 -4.169319 0
M  V30 22 C -0.229572 -2.935186 -3.940637 0
M  V30 23 N -0.202359 -4.084298 -4.674599 0
M  V30 24 N -0.654894 -5.051270 -3.890318 0
M  V30 25 C -0.978867 -4.586266 -2.670063 0
M  V30 26 C -1.509644 -5.418651 -1.573352 0
M  V30 27 C -0.879044 -6.635760 -1.346072 0
M  V30 28 C -1.373078 -7.428036 -0.311148 0
M  V30 29 C -2.444867 -7.019109 0.455708 0
M  V30 30 N -3.111863 -7.559566 1.485607 0
M  V30 31 C -4.098351 -6.712190 1.864465 0
M  V30 32 C -5.160954 -6.718090 2.911299 0
M  V30 33 N -4.021326 -5.644016 1.046530 0
M  V30 34 N -3.026952 -5.816832 0.191191 0
M  V30 35 C -2.580299 -5.017096 -0.802403 0
M  V30 36 C -0.713958 -3.227764 -2.678581 0
M  V30 37 C -0.864393 -2.272629 -1.691239 0
M  V30 38 C 0.753623 2.903112 0.569796 0
M  V30 39 H 0.822731 0.457209 5.462595 0
M  V30 40 H 2.639440 0.624754 5.723421 0
M  V30 41 H 2.051871 -0.315237 4.324359 0
M  V30 42 H 3.990371 0.188880 3.822815 0
M  V30 43 H 5.815755 0.627548 2.290363 0
M  V30 44 H 5.777599 2.664083 0.807727 0
M  V30 45 H 2.020524 4.970714 2.012066 0
M  V30 46 H 1.417137 4.232073 3.557768 0
M  V30 47 H -0.151945 5.443373 2.187959 0
M  V30 48 H -1.359495 4.227246 2.575415 0
M  V30 49 H -0.233051 5.186605 -0.120199 0
M  V30 50 H -1.893324 5.446005 0.510869 0
M  V30 51 H -2.514342 3.147194 -0.011505 0
M  V30 52 H -1.443715 3.594604 -1.394444 0
M  V30 53 H -0.990668 1.783529 0.926437 0
M  V30 54 H 0.020559 1.741067 -1.874249 0
M  V30 55 H 0.232786 0.392157 -3.410307 0
M  V30 56 H 0.486818 -1.358753 -5.155969 0
M  V30 57 H 0.122590 -4.139193 -5.664764 0
M  V30 58 H -0.033333 -7.009248 -1.915823 0
M  V30 59 H -0.956050 -8.409368 -0.038063 0
M  V30 60 H -6.169849 -6.635545 2.469054 0
M  V30 61 H -5.082704 -7.620115 3.564584 0
M  V30 62 H -5.037087 -5.836316 3.563769 0
M  V30 63 H -3.064425 -4.079879 -0.979307 0
M  V30 64 H -1.245171 -2.539096 -0.719271 0
M  V30 65 H 1.500751 2.092300 0.760458 0
M  V30 66 H 1.127172 3.672564 -0.135253 0
M  V30 END ATOM
M  V30 BEGIN BOND
M  V30 1 1 1 2
M  V30 2 1 2 3
M  V30 3 2 3 4
M  V30 4 1 4 5
M  V30 5 2 5 6
M  V30 6 1 6 7
M  V30 7 1 7 8
M  V30 8 2 7 9
M  V30 9 1 9 10
M  V30 10 1 10 11
M  V30 11 1 11 12
M  V30 12 1 12 13
M  V30 13 1 13 14
M  V30 14 1 14 15
M  V30 15 1 15 16
M  V30 16 1 16 17
M  V30 17 2 17 18
M  V30 18 1 17 19
M  V30 19 2 19 20
M  V30 20 1 20 21
M  V30 21 2 21 22
M  V30 22 1 22 23
M  V30 23 1 23 24
M  V30 24 2 24 25
M  V30 25 1 25 26
M  V30 26 1 26 27
M  V30 27 2 27 28
M  V30 28 1 28 29
M  V30 29 2 29 30
M  V30 30 1 30 31
M  V30 31 1 31 32
M  V30 32 2 31 33
M  V30 33 1 33 34
M  V30 34 1 34 35
M  V30 35 1 25 36
M  V30 36 2 36 37
M  V30 37 1 15 38
M  V30 38 1 9 3
M  V30 39 1 38 11
M  V30 40 1 37 19
M  V30 41 1 36 22
M  V30 42 2 35 26
M  V30 43 1 34 29
M  V30 44 1 1 39
M  V30 45 1 1 40
M  V30 46 1 1 41
M  V30 47 1 4 42
M  V30 48 1 5 43
M  V30 49 1 6 44
M  V30 50 1 10 45
M  V30 51 1 10 46
M  V30 52 1 12 47
M  V30 53 1 12 48
M  V30 54 1 13 49
M  V30 55 1 13 50
M  V30 56 1 14 51
M  V30 57 1 14 52
M  V30 58 1 15 53 CFG=1
M  V30 59 1 16 54
M  V30 60 1 20 55
M  V30 61 1 21 56
M  V30 62 1 23 57
M  V30 63 1 27 58
M  V30 64 1 28 59
M  V30 65 1 32 60
M  V30 66 1 32 61
M  V30 67 1 32 62
M  V30 68 1 35 63
M  V30 69 1 37 64
M  V30 70 1 38 65
M  V30 71 1 38 66
M  V30 END BOND
M  V30 END CTAB
M  END
>  <Dataset>  (609) 
ChEMBL_Kinases

>  <Ligand_Instance>  (609) 
nan

>  <PDB_ID>  (609) 
nan

>  <Standardized_SMILES>  (609) 
COc1cccc(F)c1CN1CCC[C@@H](NC(=O)c2ccc3[nH]nc(-c4ccc5nc(C)nn5c4)c3c2)C1

>  <Name>  (609) 
nan

>  <Pocket>  (609) 
nan

>  <ATP_Site>  (609) 
nan

>  <Peripheral>  (609) 
nan

>  <Num_H_Atoms_ProtBoundConf>  (609) 
nan

>  <Num_Resolved_Atoms>  (609) 
nan

>  <Num_Not_Resolved_Atoms>  (609) 
nan

$$$$
CHEMBL3654623
     RDKit          3D

  0  0  0  0  0  0  0  0  0  0999 V3000
M  V30 BEGIN CTAB
M  V30 COUNTS 65 69 0 0 0
M  V30 BEGIN ATOM
M  V30 1 C 1.830503 -0.977512 5.005685 0
M  V30 2 C 2.748877 -0.649568 3.870552 0
M  V30 3 O 2.006729 -0.388766 2.682024 0
M  V30 4 C 2.713971 -0.068985 1.537815 0
M  V30 5 O 3.913231 -0.113292 1.947537 0
M  V30 6 C 2.107348 0.231661 0.215810 0
M  V30 7 C 1.189553 1.398372 0.233962 0
M  V30 8 C 0.298054 1.344843 -1.016624 0
M  V30 9 N 1.143869 0.795052 -2.025384 0
M  V30 10 C 0.943002 1.212498 -3.357760 0
M  V30 11 C 1.114489 2.675478 -3.492571 0
M  V30 12 C 2.405608 3.126592 -3.706938 0
M  V30 13 C 2.772981 4.446328 -3.867470 0
M  V30 14 C 1.775030 5.405823 -3.811077 0
M  V30 15 C 0.474641 4.980515 -3.597779 0
M  V30 16 C 0.142943 3.652225 -3.441585 0
M  V30 17 C 1.124894 -0.642041 -1.855420 0
M  V30 18 C 1.676959 -0.988706 -0.490736 0
M  V30 19 N 0.809496 -1.904198 0.119987 0
M  V30 20 C 0.851702 -3.241199 0.487056 0
M  V30 21 O 1.888700 -3.878891 0.254364 0
M  V30 22 C -0.256049 -3.940216 1.132048 0
M  V30 23 C -0.080537 -5.264069 1.440424 0
M  V30 24 C -1.103679 -5.985156 2.057957 0
M  V30 25 C -2.315100 -5.390649 2.374605 0
M  V30 26 N -3.481151 -5.741665 2.943722 0
M  V30 27 N -4.318671 -4.720448 2.988032 0
M  V30 28 C -3.732329 -3.624789 2.438762 0
M  V30 29 C -4.385754 -2.328384 2.330451 0
M  V30 30 C -5.110470 -1.729169 3.363042 0
M  V30 31 C -5.702993 -0.498088 3.188336 0
M  V30 32 N -5.607323 0.172328 2.021607 0
M  V30 33 C -4.918059 -0.349086 0.972858 0
M  V30 34 C -4.336024 -1.576720 1.169684 0
M  V30 35 C -2.477470 -4.058150 2.058466 0
M  V30 36 C -1.460729 -3.351498 1.447641 0
M  V30 37 H 1.682741 -2.078368 5.083572 0
M  V30 38 H 0.854637 -0.493698 4.962679 0
M  V30 39 H 2.379746 -0.706254 5.945264 0
M  V30 40 H 3.399195 0.236057 4.123810 0
M  V30 41 H 3.467502 -1.487021 3.749473 0
M  V30 42 H 3.007351 0.609506 -0.359708 0
M  V30 43 H 0.583197 1.506354 1.149441 0
M  V30 44 H 1.705123 2.381309 0.150486 0
M  V30 45 H -0.015952 2.351103 -1.304013 0
M  V30 46 H -0.600192 0.708704 -0.809399 0
M  V30 47 H 1.708850 0.691694 -3.984185 0
M  V30 48 H -0.036453 0.923213 -3.790931 0
M  V30 49 H 3.242033 2.415464 -3.761971 0
M  V30 50 H 3.801578 4.734739 -4.032304 0
M  V30 51 H 1.983770 6.460734 -3.927632 0
M  V30 52 H -0.350160 5.704136 -3.545344 0
M  V30 53 H -0.864194 3.313696 -3.282794 0
M  V30 54 H 0.067146 -0.963994 -1.988817 0
M  V30 55 H 1.680431 -1.081036 -2.691626 0
M  V30 56 H 2.602144 -1.581927 -0.689492 0
M  V30 57 H -0.055142 -1.344564 0.305984 0
M  V30 58 H 0.810623 -5.859176 1.252618 0
M  V30 59 H -0.991436 -7.043289 2.315713 0
M  V30 60 H -3.673915 -6.709558 3.298188 0
M  V30 61 H -5.189005 -2.259461 4.293277 0
M  V30 62 H -6.262774 -0.016234 3.959790 0
M  V30 63 H -4.857653 0.200163 0.062981 0
M  V30 64 H -3.796996 -1.942612 0.291878 0
M  V30 65 H -1.609501 -2.307955 1.208773 0
M  V30 END ATOM
M  V30 BEGIN BOND
M  V30 1 1 1 2
M  V30 2 1 2 3
M  V30 3 1 3 4
M  V30 4 2 4 5
M  V30 5 1 4 6
M  V30 6 1 6 7
M  V30 7 1 7 8
M  V30 8 1 8 9
M  V30 9 1 9 10
M  V30 10 1 10 11
M  V30 11 2 11 12
M  V30 12 1 12 13
M  V30 13 2 13 14
M  V30 14 1 14 15
M  V30 15 2 15 16
M  V30 16 1 9 17
M  V30 17 1 17 18
M  V30 18 1 18 19
M  V30 19 1 19 20
M  V30 20 2 20 21
M  V30 21 1 20 22
M  V30 22 2 22 23
M  V30 23 1 23 24
M  V30 24 2 24 25
M  V30 25 1 25 26
M  V30 26 1 26 27
M  V30 27 2 27 28
M  V30 28 1 28 29
M  V30 29 2 29 30
M  V30 30 1 30 31
M  V30 31 2 31 32
M  V30 32 1 32 33
M  V30 33 2 33 34
M  V30 34 1 28 35
M  V30 35 2 35 36
M  V30 36 1 18 6
M  V30 37 1 36 22
M  V30 38 1 16 11
M  V30 39 1 35 25
M  V30 40 1 34 29
M  V30 41 1 1 37
M  V30 42 1 1 38
M  V30 43 1 1 39
M  V30 44 1 2 40
M  V30 45 1 2 41
M  V30 46 1 6 42
M  V30 47 1 7 43
M  V30 48 1 7 44
M  V30 49 1 8 45
M  V30 50 1 8 46
M  V30 51 1 10 47
M  V30 52 1 10 48
M  V30 53 1 12 49
M  V30 54 1 13 50
M  V30 55 1 14 51
M  V30 56 1 15 52
M  V30 57 1 16 53
M  V30 58 1 17 54
M  V30 59 1 17 55
M  V30 60 1 18 56
M  V30 61 1 19 57
M  V30 62 1 23 58
M  V30 63 1 24 59
M  V30 64 1 26 60
M  V30 65 1 30 61
M  V30 66 1 31 62
M  V30 67 1 33 63
M  V30 68 1 34 64
M  V30 69 1 36 65
M  V30 END BOND
M  V30 END CTAB
M  END
>  <Dataset>  (610) 
ChEMBL_Kinases

>  <Ligand_Instance>  (610) 
nan

>  <PDB_ID>  (610) 
nan

>  <Standardized_SMILES>  (610) 
CCOC(=O)C1CCN(Cc2ccccc2)CC1NC(=O)c1ccc2[nH]nc(-c3ccncc3)c2c1

>  <Name>  (610) 
nan

>  <Pocket>  (610) 
nan

>  <ATP_Site>  (610) 
nan

>  <Peripheral>  (610) 
nan

>  <Num_H_Atoms_ProtBoundConf>  (610) 
nan

>  <Num_Resolved_Atoms>  (610) 
nan

>  <Num_Not_Resolved_Atoms>  (610) 
nan

$$$$
CHEMBL3654622
     RDKit          3D

  0  0  0  0  0  0  0  0  0  0999 V3000
M  V30 BEGIN CTAB
M  V30 COUNTS 67 71 0 0 0
M  V30 BEGIN ATOM
M  V30 1 C 4.545373 -3.351652 5.258387 0
M  V30 2 N 3.487605 -3.454804 4.243164 0
M  V30 3 C 3.070019 -2.206963 3.661437 0
M  V30 4 O 3.767102 -1.294446 4.211813 0
M  V30 5 C 1.993351 -2.370654 2.636528 0 CFG=2
M  V30 6 C 2.464577 -3.333689 1.608058 0
M  V30 7 C 1.988364 -3.079580 0.207858 0
M  V30 8 C 2.091913 -1.654476 -0.223573 0 CFG=1
M  V30 9 N 0.980882 -1.342647 -1.068374 0
M  V30 10 C 1.144754 -0.918116 -2.415599 0
M  V30 11 O 2.319807 -0.819771 -2.857320 0
M  V30 12 C 0.045277 -0.590019 -3.317294 0
M  V30 13 C 0.390778 -0.183476 -4.588524 0
M  V30 14 C -0.558872 0.161443 -5.558303 0
M  V30 15 C -1.912221 0.087395 -5.214684 0
M  V30 16 N -3.090774 0.320085 -5.825338 0
M  V30 17 N -4.084721 0.072831 -4.987339 0
M  V30 18 C -3.589976 -0.328897 -3.802993 0
M  V30 19 C -4.451103 -0.675429 -2.680522 0
M  V30 20 C -5.567845 -1.485874 -2.911060 0
M  V30 21 C -6.481780 -1.906499 -1.964336 0
M  V30 22 N -6.270252 -1.487949 -0.681903 0
M  V30 23 C -5.197454 -0.695673 -0.395961 0
M  V30 24 C -4.296709 -0.286118 -1.351382 0
M  V30 25 C -2.213990 -0.323460 -3.934728 0
M  V30 26 C -1.275761 -0.662195 -2.981995 0
M  V30 27 C 2.298747 -0.707951 0.938083 0
M  V30 28 N 1.651806 -1.054436 2.131244 0
M  V30 29 C 0.335954 -0.654458 2.398943 0
M  V30 30 C 0.119414 0.802330 2.398142 0
M  V30 31 C -0.119454 1.699064 1.394612 0
M  V30 32 F -0.265193 1.185052 0.162622 0
M  V30 33 C -0.254452 3.046035 1.564249 0
M  V30 34 C -0.152303 3.595077 2.821768 0
M  V30 35 C 0.086191 2.725652 3.858855 0
M  V30 36 C 0.223940 1.355430 3.685677 0
M  V30 37 O 0.462611 0.596374 4.821986 0
M  V30 38 C 0.561706 1.168075 6.100406 0
M  V30 39 H 4.172469 -2.687112 6.064710 0
M  V30 40 H 5.442548 -3.000380 4.745745 0
M  V30 41 H 4.731611 -4.329549 5.727888 0
M  V30 42 H 3.117912 -4.415315 4.018543 0
M  V30 43 H 1.083718 -2.740714 3.182435 0
M  V30 44 H 2.040521 -4.339553 1.906360 0
M  V30 45 H 3.562012 -3.499565 1.603767 0
M  V30 46 H 0.929418 -3.415767 0.140149 0
M  V30 47 H 2.575075 -3.707163 -0.481273 0
M  V30 48 H 3.022669 -1.538278 -0.854923 0
M  V30 49 H -0.019338 -1.400178 -0.778455 0
M  V30 50 H 1.402781 -0.078419 -5.000071 0
M  V30 51 H -0.338838 0.480016 -6.552162 0
M  V30 52 H -3.111737 0.645783 -6.818073 0
M  V30 53 H -5.732353 -1.818343 -3.941051 0
M  V30 54 H -7.305694 -2.537346 -2.278285 0
M  V30 55 H -5.048619 -0.373377 0.637100 0
M  V30 56 H -3.438111 0.339924 -1.157091 0
M  V30 57 H -1.569135 -0.974503 -2.003234 0
M  V30 58 H 3.426901 -0.679785 1.185225 0
M  V30 59 H 2.105298 0.341768 0.670875 0
M  V30 60 H -0.308897 -1.052060 1.551350 0
M  V30 61 H -0.112800 -1.137603 3.303083 0
M  V30 62 H -0.440734 3.666570 0.702130 0
M  V30 63 H -0.254380 4.656975 2.978733 0
M  V30 64 H 0.160457 3.205417 4.841034 0
M  V30 65 H -0.317589 1.837166 6.267749 0
M  V30 66 H 1.521016 1.706820 6.192126 0
M  V30 67 H 0.467266 0.398744 6.907789 0
M  V30 END ATOM
M  V30 BEGIN BOND
M  V30 1 1 1 2
M  V30 2 1 2 3
M  V30 3 2 3 4
M  V30 4 1 3 5
M  V30 5 1 5 6
M  V30 6 1 6 7
M  V30 7 1 7 8
M  V30 8 1 8 9
M  V30 9 1 9 10
M  V30 10 2 10 11
M  V30 11 1 10 12
M  V30 12 2 12 13
M  V30 13 1 13 14
M  V30 14 2 14 15
M  V30 15 1 15 16
M  V30 16 1 16 17
M  V30 17 2 17 18
M  V30 18 1 18 19
M  V30 19 2 19 20
M  V30 20 1 20 21
M  V30 21 2 21 22
M  V30 22 1 22 23
M  V30 23 2 23 24
M  V30 24 1 18 25
M  V30 25 2 25 26
M  V30 26 1 8 27
M  V30 27 1 27 28
M  V30 28 1 28 29
M  V30 29 1 29 30
M  V30 30 2 30 31
M  V30 31 1 31 32
M  V30 32 1 31 33
M  V30 33 2 33 34
M  V30 34 1 34 35
M  V30 35 2 35 36
M  V30 36 1 36 37
M  V30 37 1 37 38
M  V30 38 1 28 5
M  V30 39 1 36 30
M  V30 40 1 26 12
M  V30 41 1 25 15
M  V30 42 1 24 19
M  V30 43 1 1 39
M  V30 44 1 1 40
M  V30 45 1 1 41
M  V30 46 1 2 42
M  V30 47 1 5 43 CFG=1
M  V30 48 1 6 44
M  V30 49 1 6 45
M  V30 50 1 7 46
M  V30 51 1 7 47
M  V30 52 1 8 48 CFG=3
M  V30 53 1 9 49
M  V30 54 1 13 50
M  V30 55 1 14 51
M  V30 56 1 16 52
M  V30 57 1 20 53
M  V30 58 1 21 54
M  V30 59 1 23 55
M  V30 60 1 24 56
M  V30 61 1 26 57
M  V30 62 1 27 58
M  V30 63 1 27 59
M  V30 64 1 29 60
M  V30 65 1 29 61
M  V30 66 1 33 62
M  V30 67 1 34 63
M  V30 68 1 35 64
M  V30 69 1 38 65
M  V30 70 1 38 66
M  V30 71 1 38 67
M  V30 END BOND
M  V30 END CTAB
M  END
>  <Dataset>  (611) 
ChEMBL_Kinases

>  <Ligand_Instance>  (611) 
nan

>  <PDB_ID>  (611) 
nan

>  <Standardized_SMILES>  (611) 
CNC(=O)[C@@H]1CC[C@@H](NC(=O)c2ccc3[nH]nc(-c4ccncc4)c3c2)CN1Cc1c(F)cccc1OC

>  <Name>  (611) 
nan

>  <Pocket>  (611) 
nan

>  <ATP_Site>  (611) 
nan

>  <Peripheral>  (611) 
nan

>  <Num_H_Atoms_ProtBoundConf>  (611) 
nan

>  <Num_Resolved_Atoms>  (611) 
nan

>  <Num_Not_Resolved_Atoms>  (611) 
nan

$$$$
CHEMBL3654621
     RDKit          3D

  0  0  0  0  0  0  0  0  0  0999 V3000
M  V30 BEGIN CTAB
M  V30 COUNTS 67 71 0 0 0
M  V30 BEGIN ATOM
M  V30 1 C 3.968585 0.848249 3.172905 0
M  V30 2 O 3.021928 0.083419 2.468499 0
M  V30 3 C 3.584025 -0.614748 1.437925 0
M  V30 4 C 4.187104 0.244322 0.355227 0
M  V30 5 O 3.340639 1.058182 -0.282724 0
M  V30 6 C 2.484056 2.058657 -0.204780 0
M  V30 7 C 1.998433 2.858400 0.781734 0
M  V30 8 C 1.083080 3.880931 0.674923 0
M  V30 9 C 0.623484 4.093481 -0.599192 0
M  V30 10 C 1.027398 3.364776 -1.678495 0
M  V30 11 F 0.509568 3.653445 -2.915120 0
M  V30 12 C 1.963022 2.340150 -1.485777 0
M  V30 13 C 2.353267 1.583348 -2.721692 0
M  V30 14 N 1.701574 0.295470 -2.762195 0
M  V30 15 C 2.046279 -0.500123 -3.907441 0
M  V30 16 C 0.836665 -1.064780 -4.617441 0
M  V30 17 C 0.061607 -1.877776 -3.602343 0
M  V30 18 C -0.404294 -0.944608 -2.529751 0 CFG=1
M  V30 19 N -0.363097 -1.539386 -1.190741 0
M  V30 20 C -1.487732 -1.752459 -0.345838 0
M  V30 21 O -2.585975 -1.383458 -0.833516 0
M  V30 22 C -1.292465 -2.356623 0.966585 0
M  V30 23 C -0.088000 -2.778489 1.488185 0
M  V30 24 C 0.013319 -3.339331 2.742878 0
M  V30 25 C -1.122167 -3.489554 3.514324 0
M  V30 26 N -1.379572 -3.979306 4.740557 0
M  V30 27 N -2.668725 -3.889789 5.017865 0
M  V30 28 C -3.327137 -3.332851 3.980400 0
M  V30 29 C -4.744091 -3.072422 3.914386 0
M  V30 30 C -5.272093 -2.499754 5.057068 0
M  V30 31 C -6.620467 -2.177313 5.175912 0
M  V30 32 N -7.432955 -2.445681 4.111411 0
M  V30 33 C -6.951082 -3.004631 2.979609 0
M  V30 34 C -5.616187 -3.327119 2.853875 0
M  V30 35 C -2.350892 -3.071799 3.011781 0
M  V30 36 C -2.429923 -2.513008 1.753027 0
M  V30 37 C 0.278416 0.396899 -2.547852 0
M  V30 38 H 4.464201 1.588406 2.540790 0
M  V30 39 H 3.447434 1.383648 3.994684 0
M  V30 40 H 4.734827 0.127882 3.565156 0
M  V30 41 H 4.370712 -1.270316 1.881064 0
M  V30 42 H 2.841882 -1.318937 0.995863 0
M  V30 43 H 5.091170 0.759280 0.807182 0
M  V30 44 H 4.642892 -0.517207 -0.368255 0
M  V30 45 H 2.386054 2.656198 1.748156 0
M  V30 46 H 0.787624 4.434693 1.549680 0
M  V30 47 H -0.094859 4.874669 -0.771042 0
M  V30 48 H 3.440052 1.523004 -2.701977 0
M  V30 49 H 2.051431 2.163183 -3.609630 0
M  V30 50 H 2.711179 0.065775 -4.590046 0
M  V30 51 H 2.593880 -1.401119 -3.508677 0
M  V30 52 H 1.182640 -1.686177 -5.466916 0
M  V30 53 H 0.171745 -0.231741 -4.958462 0
M  V30 54 H -0.798718 -2.415565 -4.079975 0
M  V30 55 H 0.740127 -2.631515 -3.137189 0
M  V30 56 H -1.489959 -0.728520 -2.721229 0
M  V30 57 H 0.619635 -1.786332 -0.945013 0
M  V30 58 H 0.777595 -2.658447 0.887004 0
M  V30 59 H 0.969460 -3.652688 3.107005 0
M  V30 60 H -0.607289 -4.367835 5.347263 0
M  V30 61 H -4.725162 -2.237579 5.976339 0
M  V30 62 H -7.067048 -1.729014 6.052836 0
M  V30 63 H -7.599003 -3.218987 2.129169 0
M  V30 64 H -5.143800 -3.774698 1.990750 0
M  V30 65 H -3.396751 -2.199483 1.392034 0
M  V30 66 H 0.101651 0.923011 -1.608768 0
M  V30 67 H -0.138435 1.021473 -3.367199 0
M  V30 END ATOM
M  V30 BEGIN BOND
M  V30 1 1 1 2
M  V30 2 1 2 3
M  V30 3 1 3 4
M  V30 4 1 4 5
M  V30 5 1 5 6
M  V30 6 2 6 7
M  V30 7 1 7 8
M  V30 8 2 8 9
M  V30 9 1 9 10
M  V30 10 1 10 11
M  V30 11 2 10 12
M  V30 12 1 12 13
M  V30 13 1 13 14
M  V30 14 1 14 15
M  V30 15 1 15 16
M  V30 16 1 16 17
M  V30 17 1 17 18
M  V30 18 1 18 19
M  V30 19 1 19 20
M  V30 20 2 20 21
M  V30 21 1 20 22
M  V30 22 2 22 23
M  V30 23 1 23 24
M  V30 24 2 24 25
M  V30 25 1 25 26
M  V30 26 1 26 27
M  V30 27 2 27 28
M  V30 28 1 28 29
M  V30 29 2 29 30
M  V30 30 1 30 31
M  V30 31 2 31 32
M  V30 32 1 32 33
M  V30 33 2 33 34
M  V30 34 1 28 35
M  V30 35 2 35 36
M  V30 36 1 18 37
M  V30 37 1 12 6
M  V30 38 1 37 14
M  V30 39 1 36 22
M  V30 40 1 35 25
M  V30 41 1 34 29
M  V30 42 1 1 38
M  V30 43 1 1 39
M  V30 44 1 1 40
M  V30 45 1 3 41
M  V30 46 1 3 42
M  V30 47 1 4 43
M  V30 48 1 4 44
M  V30 49 1 7 45
M  V30 50 1 8 46
M  V30 51 1 9 47
M  V30 52 1 13 48
M  V30 53 1 13 49
M  V30 54 1 15 50
M  V30 55 1 15 51
M  V30 56 1 16 52
M  V30 57 1 16 53
M  V30 58 1 17 54
M  V30 59 1 17 55
M  V30 60 1 18 56 CFG=3
M  V30 61 1 19 57
M  V30 62 1 23 58
M  V30 63 1 24 59
M  V30 64 1 26 60
M  V30 65 1 30 61
M  V30 66 1 31 62
M  V30 67 1 33 63
M  V30 68 1 34 64
M  V30 69 1 36 65
M  V30 70 1 37 66
M  V30 71 1 37 67
M  V30 END BOND
M  V30 END CTAB
M  END
>  <Dataset>  (612) 
ChEMBL_Kinases

>  <Ligand_Instance>  (612) 
nan

>  <PDB_ID>  (612) 
nan

>  <Standardized_SMILES>  (612) 
COCCOc1cccc(F)c1CN1CCC[C@@H](NC(=O)c2ccc3[nH]nc(-c4ccncc4)c3c2)C1

>  <Name>  (612) 
nan

>  <Pocket>  (612) 
nan

>  <ATP_Site>  (612) 
nan

>  <Peripheral>  (612) 
nan

>  <Num_H_Atoms_ProtBoundConf>  (612) 
nan

>  <Num_Resolved_Atoms>  (612) 
nan

>  <Num_Not_Resolved_Atoms>  (612) 
nan

$$$$
CHEMBL3654620
     RDKit          3D

  0  0  0  0  0  0  0  0  0  0999 V3000
M  V30 BEGIN CTAB
M  V30 COUNTS 55 59 0 0 0
M  V30 BEGIN ATOM
M  V30 1 C 3.028141 -0.393212 4.644391 0
M  V30 2 N 3.790334 -0.822924 3.505180 0
M  V30 3 C 5.004430 -1.382524 3.628535 0
M  V30 4 N 5.416590 -1.655605 2.381634 0
M  V30 5 N 4.474251 -1.269089 1.543737 0
M  V30 6 C 3.426348 -0.736509 2.206348 0
M  V30 7 C 2.145784 -0.171628 1.683683 0
M  V30 8 N 2.354042 1.223898 1.453823 0
M  V30 9 C 3.374261 1.540863 0.521106 0
M  V30 10 C 2.914349 2.490326 -0.572109 0
M  V30 11 C 1.530360 2.068264 -0.997950 0
M  V30 12 C 0.517871 2.208978 0.117466 0 CFG=1
M  V30 13 N -0.475357 1.168722 -0.118138 0
M  V30 14 C -1.819670 1.512641 -0.434590 0
M  V30 15 O -2.093943 2.723772 -0.497517 0
M  V30 16 C -2.871267 0.538414 -0.683919 0
M  V30 17 C -4.122436 1.038718 -0.977812 0
M  V30 18 C -5.187714 0.171159 -1.230294 0
M  V30 19 C -5.012803 -1.198260 -1.191479 0
M  V30 20 N -5.768331 -2.286880 -1.371396 0
M  V30 21 N -5.052341 -3.380071 -1.204632 0
M  V30 22 C -3.764298 -3.052019 -0.900592 0
M  V30 23 C -2.743542 -4.041640 -0.661861 0
M  V30 24 C -1.459475 -4.008533 -1.180777 0
M  V30 25 C -0.539803 -5.019438 -0.889213 0
M  V30 26 N -0.874845 -6.063961 -0.089778 0
M  V30 27 C -2.106827 -6.117959 0.422346 0
M  V30 28 C -3.028050 -5.128310 0.145007 0
M  V30 29 C -3.750182 -1.668243 -0.894831 0
M  V30 30 C -2.692091 -0.818712 -0.644064 0
M  V30 31 C 1.192526 2.044137 1.454942 0
M  V30 32 H 1.963124 -0.585610 4.450205 0
M  V30 33 H 3.294562 -0.987098 5.564985 0
M  V30 34 H 3.168513 0.707515 4.851392 0
M  V30 35 H 5.550903 -1.578158 4.556570 0
M  V30 36 H 1.806018 -0.754977 0.813907 0
M  V30 37 H 1.400701 -0.297254 2.493005 0
M  V30 38 H 4.198704 2.064298 1.058465 0
M  V30 39 H 3.795125 0.604408 0.094311 0
M  V30 40 H 3.577393 2.349522 -1.444635 0
M  V30 41 H 2.972764 3.537903 -0.277784 0
M  V30 42 H 1.592751 1.009709 -1.332569 0
M  V30 43 H 1.168485 2.639312 -1.860905 0
M  V30 44 H 0.013820 3.170326 -0.000821 0
M  V30 45 H -0.234571 0.153992 -0.062775 0
M  V30 46 H -4.363869 2.094373 -1.032850 0
M  V30 47 H -6.188586 0.558612 -1.465388 0
M  V30 48 H -6.766206 -2.279541 -1.606499 0
M  V30 49 H -1.200140 -3.164450 -1.822417 0
M  V30 50 H 0.455327 -4.965512 -1.309472 0
M  V30 51 H -2.320308 -6.977229 1.055937 0
M  V30 52 H -4.020065 -5.246443 0.605254 0
M  V30 53 H -1.712051 -1.214249 -0.413861 0
M  V30 54 H 1.473312 3.066939 1.793431 0
M  V30 55 H 0.513062 1.638302 2.232514 0
M  V30 END ATOM
M  V30 BEGIN BOND
M  V30 1 1 1 2
M  V30 2 1 2 3
M  V30 3 2 3 4
M  V30 4 1 4 5
M  V30 5 2 5 6
M  V30 6 1 6 7
M  V30 7 1 7 8
M  V30 8 1 8 9
M  V30 9 1 9 10
M  V30 10 1 10 11
M  V30 11 1 11 12
M  V30 12 1 12 13
M  V30 13 1 13 14
M  V30 14 2 14 15
M  V30 15 1 14 16
M  V30 16 2 16 17
M  V30 17 1 17 18
M  V30 18 2 18 19
M  V30 19 1 19 20
M  V30 20 1 20 21
M  V30 21 2 21 22
M  V30 22 1 22 23
M  V30 23 2 23 24
M  V30 24 1 24 25
M  V30 25 2 25 26
M  V30 26 1 26 27
M  V30 27 2 27 28
M  V30 28 1 22 29
M  V30 29 2 29 30
M  V30 30 1 12 31
M  V30 31 1 6 2
M  V30 32 1 31 8
M  V30 33 1 30 16
M  V30 34 1 29 19
M  V30 35 1 28 23
M  V30 36 1 1 32
M  V30 37 1 1 33
M  V30 38 1 1 34
M  V30 39 1 3 35
M  V30 40 1 7 36
M  V30 41 1 7 37
M  V30 42 1 9 38
M  V30 43 1 9 39
M  V30 44 1 10 40
M  V30 45 1 10 41
M  V30 46 1 11 42
M  V30 47 1 11 43
M  V30 48 1 12 44 CFG=1
M  V30 49 1 13 45
M  V30 50 1 17 46
M  V30 51 1 18 47
M  V30 52 1 20 48
M  V30 53 1 24 49
M  V30 54 1 25 50
M  V30 55 1 27 51
M  V30 56 1 28 52
M  V30 57 1 30 53
M  V30 58 1 31 54
M  V30 59 1 31 55
M  V30 END BOND
M  V30 END CTAB
M  END
>  <Dataset>  (613) 
ChEMBL_Kinases

>  <Ligand_Instance>  (613) 
nan

>  <PDB_ID>  (613) 
nan

>  <Standardized_SMILES>  (613) 
Cn1cnnc1CN1CCC[C@@H](NC(=O)c2ccc3[nH]nc(-c4ccncc4)c3c2)C1

>  <Name>  (613) 
nan

>  <Pocket>  (613) 
nan

>  <ATP_Site>  (613) 
nan

>  <Peripheral>  (613) 
nan

>  <Num_H_Atoms_ProtBoundConf>  (613) 
nan

>  <Num_Resolved_Atoms>  (613) 
nan

>  <Num_Not_Resolved_Atoms>  (613) 
nan

$$$$
CHEMBL3654619
     RDKit          3D

  0  0  0  0  0  0  0  0  0  0999 V3000
M  V30 BEGIN CTAB
M  V30 COUNTS 66 71 0 0 0
M  V30 BEGIN ATOM
M  V30 1 C 5.524392 0.309512 4.356815 0
M  V30 2 O 4.841220 1.072499 3.388345 0
M  V30 3 C 5.424823 1.836298 2.414393 0
M  V30 4 C 6.814732 1.871812 2.363905 0
M  V30 5 C 7.481858 2.607268 1.425552 0
M  V30 6 C 6.811920 3.343689 0.490829 0
M  V30 7 C 5.427747 3.316472 0.530754 0
M  V30 8 F 4.738976 4.039222 -0.381749 0
M  V30 9 C 4.738257 2.583191 1.466687 0
M  V30 10 C 3.239345 2.523503 1.547399 0
M  V30 11 N 2.723565 1.273973 1.039909 0
M  V30 12 C 3.044167 1.069094 -0.323527 0
M  V30 13 C 2.114382 1.813929 -1.230323 0 CFG=1
M  V30 14 C 2.304547 1.412264 -2.680014 0
M  V30 15 C 0.681127 1.767394 -0.858987 0
M  V30 16 C 0.357228 0.965941 0.381446 0 CFG=1
M  V30 17 N -0.048800 -0.384402 0.061328 0
M  V30 18 C -1.312973 -1.002419 0.151317 0
M  V30 19 O -2.218627 -0.240156 0.579802 0
M  V30 20 C -1.560254 -2.369767 -0.207884 0
M  V30 21 C -0.557785 -3.230305 -0.640911 0
M  V30 22 C -0.785647 -4.536976 -0.988844 0
M  V30 23 C -2.080523 -5.003516 -0.898484 0
M  V30 24 N -2.557853 -6.241065 -1.182133 0
M  V30 25 N -3.856001 -6.189774 -0.937330 0
M  V30 26 C -4.193200 -4.981819 -0.518569 0
M  V30 27 C -5.527036 -4.413181 -0.115869 0
M  V30 28 N -6.050141 -3.482199 0.251565 0
M  V30 29 C -7.311070 -3.264666 0.536408 0
M  V30 30 C -7.960936 -2.138146 0.983018 0
M  V30 31 C -9.308096 -2.131912 1.219232 0
M  V30 32 C -10.139575 -3.242830 1.034897 0
M  V30 33 C -9.574221 -4.415999 0.589368 0
M  V30 34 C -8.174603 -4.326069 0.372688 0
M  V30 35 S -6.965408 -5.650269 -0.231456 0
M  V30 36 C -3.099180 -4.154548 -0.465831 0
M  V30 37 C -2.871253 -2.846808 -0.117347 0
M  V30 38 C 1.384561 1.090999 1.447222 0
M  V30 39 H 4.863041 0.070825 5.213795 0
M  V30 40 H 6.399565 0.892224 4.683364 0
M  V30 41 H 5.819017 -0.639198 3.878959 0
M  V30 42 H 7.497688 1.343627 3.033433 0
M  V30 43 H 8.574825 2.668067 1.344039 0
M  V30 44 H 7.337433 3.940187 -0.269915 0
M  V30 45 H 2.923265 2.718487 2.591391 0
M  V30 46 H 2.861218 3.352206 0.881970 0
M  V30 47 H 4.099928 1.316861 -0.568121 0
M  V30 48 H 2.949715 -0.025908 -0.554267 0
M  V30 49 H 2.455484 2.887520 -1.192929 0
M  V30 50 H 2.092388 2.265080 -3.362805 0
M  V30 51 H 1.577023 0.620342 -2.978528 0
M  V30 52 H 3.321807 1.067533 -2.903718 0
M  V30 53 H 0.296986 2.817591 -0.755108 0
M  V30 54 H 0.104741 1.312981 -1.706473 0
M  V30 55 H -0.582366 1.440258 0.772825 0
M  V30 56 H 0.763589 -0.939635 -0.286016 0
M  V30 57 H 0.461137 -2.895598 -0.720931 0
M  V30 58 H 0.015701 -5.181124 -1.322112 0
M  V30 59 H -2.035653 -7.074821 -1.522338 0
M  V30 60 H -7.465283 -1.177766 1.180187 0
M  V30 61 H -9.829013 -1.225248 1.577597 0
M  V30 62 H -11.199943 -3.309449 1.199233 0
M  V30 63 H -10.008838 -5.373507 0.381758 0
M  V30 64 H -3.686336 -2.223554 0.211458 0
M  V30 65 H 1.107157 1.933887 2.150848 0
M  V30 66 H 1.342841 0.193599 2.106018 0
M  V30 END ATOM
M  V30 BEGIN BOND
M  V30 1 1 1 2
M  V30 2 1 2 3
M  V30 3 2 3 4
M  V30 4 1 4 5
M  V30 5 2 5 6
M  V30 6 1 6 7
M  V30 7 1 7 8
M  V30 8 2 7 9
M  V30 9 1 9 10
M  V30 10 1 10 11
M  V30 11 1 11 12
M  V30 12 1 12 13
M  V30 13 1 13 14
M  V30 14 1 13 15
M  V30 15 1 15 16
M  V30 16 1 16 17
M  V30 17 1 17 18
M  V30 18 2 18 19
M  V30 19 1 18 20
M  V30 20 2 20 21
M  V30 21 1 21 22
M  V30 22 2 22 23
M  V30 23 1 23 24
M  V30 24 1 24 25
M  V30 25 2 25 26
M  V30 26 1 26 27
M  V30 27 2 27 28
M  V30 28 1 28 29
M  V30 29 2 29 30
M  V30 30 1 30 31
M  V30 31 2 31 32
M  V30 32 1 32 33
M  V30 33 2 33 34
M  V30 34 1 34 35
M  V30 35 1 26 36
M  V30 36 2 36 37
M  V30 37 1 16 38
M  V30 38 1 9 3
M  V30 39 1 38 11
M  V30 40 1 37 20
M  V30 41 1 36 23
M  V30 42 1 35 27
M  V30 43 1 34 29
M  V30 44 1 1 39
M  V30 45 1 1 40
M  V30 46 1 1 41
M  V30 47 1 4 42
M  V30 48 1 5 43
M  V30 49 1 6 44
M  V30 50 1 10 45
M  V30 51 1 10 46
M  V30 52 1 12 47
M  V30 53 1 12 48
M  V30 54 1 13 49 CFG=3
M  V30 55 1 14 50
M  V30 56 1 14 51
M  V30 57 1 14 52
M  V30 58 1 15 53
M  V30 59 1 15 54
M  V30 60 1 16 55 CFG=1
M  V30 61 1 17 56
M  V30 62 1 21 57
M  V30 63 1 22 58
M  V30 64 1 24 59
M  V30 65 1 30 60
M  V30 66 1 31 61
M  V30 67 1 32 62
M  V30 68 1 33 63
M  V30 69 1 37 64
M  V30 70 1 38 65
M  V30 71 1 38 66
M  V30 END BOND
M  V30 END CTAB
M  END
>  <Dataset>  (614) 
ChEMBL_Kinases

>  <Ligand_Instance>  (614) 
nan

>  <PDB_ID>  (614) 
nan

>  <Standardized_SMILES>  (614) 
COc1cccc(F)c1CN1C[C@@H](C)C[C@@H](NC(=O)c2ccc3[nH]nc(-c4nc5ccccc5s4)c3c2)C1

>  <Name>  (614) 
nan

>  <Pocket>  (614) 
nan

>  <ATP_Site>  (614) 
nan

>  <Peripheral>  (614) 
nan

>  <Num_H_Atoms_ProtBoundConf>  (614) 
nan

>  <Num_Resolved_Atoms>  (614) 
nan

>  <Num_Not_Resolved_Atoms>  (614) 
nan

$$$$
CHEMBL3654618
     RDKit          3D

  0  0  0  0  0  0  0  0  0  0999 V3000
M  V30 BEGIN CTAB
M  V30 COUNTS 65 70 0 0 0
M  V30 BEGIN ATOM
M  V30 1 C 3.805044 -1.352078 0.280881 0
M  V30 2 O 3.633688 -0.003053 -0.108467 0
M  V30 3 C 4.150515 0.969228 0.737033 0
M  V30 4 C 4.806297 0.655691 1.911019 0
M  V30 5 C 5.318421 1.639751 2.741674 0
M  V30 6 C 5.159278 2.959554 2.369598 0
M  V30 7 C 4.500456 3.242091 1.193017 0
M  V30 8 F 4.389497 4.573491 0.904307 0
M  V30 9 C 3.973436 2.271544 0.335628 0
M  V30 10 C 3.291659 2.782718 -0.852736 0
M  V30 11 N 1.896985 2.884640 -0.844382 0
M  V30 12 C 1.235793 3.299109 -2.032747 0
M  V30 13 C 1.002090 2.155134 -3.001343 0 CFG=1
M  V30 14 C 2.138053 2.004083 -3.986740 0
M  V30 15 C 0.862516 0.838731 -2.270795 0
M  V30 16 C 0.305263 1.030837 -0.878978 0 CFG=1
M  V30 17 N 0.149659 -0.242899 -0.217703 0
M  V30 18 C -1.132178 -0.807749 0.135019 0
M  V30 19 O -2.109152 -0.081268 -0.189878 0
M  V30 20 C -1.219498 -2.104362 0.804509 0
M  V30 21 C -0.207024 -2.927057 1.185700 0
M  V30 22 C -0.425146 -4.133052 1.811567 0
M  V30 23 C -1.708463 -4.534688 2.067197 0
M  V30 24 N -2.177395 -5.644990 2.652468 0
M  V30 25 N -3.512853 -5.564659 2.662590 0
M  V30 26 C -3.900736 -4.413992 2.089670 0
M  V30 27 C -5.282408 -3.978884 1.916904 0
M  V30 28 C -5.843168 -3.422807 0.785160 0
M  V30 29 C -7.180002 -3.068335 0.790103 0
M  V30 30 C -8.015307 -3.236666 1.878286 0
M  V30 31 N -9.296903 -2.989853 2.140438 0
M  V30 32 O -9.497272 -3.376808 3.365442 0
M  V30 33 N -8.429364 -3.855427 3.906267 0
M  V30 34 C -7.437502 -3.796860 3.008953 0
M  V30 35 C -6.104327 -4.152845 3.010760 0
M  V30 36 C -2.751810 -3.721173 1.691789 0
M  V30 37 C -2.529761 -2.516251 1.066696 0
M  V30 38 C 1.099568 2.018621 -0.072417 0
M  V30 39 H 3.142626 -2.035928 -0.303924 0
M  V30 40 H 3.511733 -1.502052 1.357525 0
M  V30 41 H 4.867427 -1.662772 0.211664 0
M  V30 42 H 4.943893 -0.349984 2.222935 0
M  V30 43 H 5.836907 1.432593 3.668164 0
M  V30 44 H 5.554082 3.733948 3.007737 0
M  V30 45 H 3.697946 3.801876 -1.148337 0
M  V30 46 H 3.586688 2.137294 -1.727357 0
M  V30 47 H 1.729796 4.108250 -2.605184 0
M  V30 48 H 0.240681 3.711875 -1.717284 0
M  V30 49 H 0.078902 2.358228 -3.575983 0
M  V30 50 H 1.789537 2.049561 -5.038468 0
M  V30 51 H 2.781839 2.921459 -3.852147 0
M  V30 52 H 2.743575 1.110969 -3.758295 0
M  V30 53 H 1.801840 0.274978 -2.178151 0
M  V30 54 H 0.160700 0.214836 -2.856395 0
M  V30 55 H -0.740946 1.431241 -1.015860 0
M  V30 56 H 0.994269 -0.781994 0.017557 0
M  V30 57 H 0.786573 -2.569989 0.963924 0
M  V30 58 H 0.416718 -4.743258 2.090529 0
M  V30 59 H -1.622678 -6.440421 3.037756 0
M  V30 60 H -5.173416 -3.299481 -0.053580 0
M  V30 61 H -7.592077 -2.627346 -0.130581 0
M  V30 62 H -5.746201 -4.584145 3.944128 0
M  V30 63 H -3.397981 -1.930736 0.800793 0
M  V30 64 H 0.336547 2.682518 0.456701 0
M  V30 65 H 1.632013 1.551206 0.800436 0
M  V30 END ATOM
M  V30 BEGIN BOND
M  V30 1 1 1 2
M  V30 2 1 2 3
M  V30 3 2 3 4
M  V30 4 1 4 5
M  V30 5 2 5 6
M  V30 6 1 6 7
M  V30 7 1 7 8
M  V30 8 2 7 9
M  V30 9 1 9 10
M  V30 10 1 10 11
M  V30 11 1 11 12
M  V30 12 1 12 13
M  V30 13 1 13 14
M  V30 14 1 13 15
M  V30 15 1 15 16
M  V30 16 1 16 17
M  V30 17 1 17 18
M  V30 18 2 18 19
M  V30 19 1 18 20
M  V30 20 2 20 21
M  V30 21 1 21 22
M  V30 22 2 22 23
M  V30 23 1 23 24
M  V30 24 1 24 25
M  V30 25 2 25 26
M  V30 26 1 26 27
M  V30 27 1 27 28
M  V30 28 2 28 29
M  V30 29 1 29 30
M  V30 30 2 30 31
M  V30 31 1 31 32
M  V30 32 1 32 33
M  V30 33 2 33 34
M  V30 34 1 34 35
M  V30 35 1 26 36
M  V30 36 2 36 37
M  V30 37 1 16 38
M  V30 38 1 9 3
M  V30 39 1 38 11
M  V30 40 1 37 20
M  V30 41 1 36 23
M  V30 42 2 35 27
M  V30 43 1 34 30
M  V30 44 1 1 39
M  V30 45 1 1 40
M  V30 46 1 1 41
M  V30 47 1 4 42
M  V30 48 1 5 43
M  V30 49 1 6 44
M  V30 50 1 10 45
M  V30 51 1 10 46
M  V30 52 1 12 47
M  V30 53 1 12 48
M  V30 54 1 13 49 CFG=3
M  V30 55 1 14 50
M  V30 56 1 14 51
M  V30 57 1 14 52
M  V30 58 1 15 53
M  V30 59 1 15 54
M  V30 60 1 16 55 CFG=3
M  V30 61 1 17 56
M  V30 62 1 21 57
M  V30 63 1 22 58
M  V30 64 1 24 59
M  V30 65 1 28 60
M  V30 66 1 29 61
M  V30 67 1 35 62
M  V30 68 1 37 63
M  V30 69 1 38 64
M  V30 70 1 38 65
M  V30 END BOND
M  V30 END CTAB
M  END
>  <Dataset>  (615) 
ChEMBL_Kinases

>  <Ligand_Instance>  (615) 
nan

>  <PDB_ID>  (615) 
nan

>  <Standardized_SMILES>  (615) 
COc1cccc(F)c1CN1C[C@@H](C)C[C@@H](NC(=O)c2ccc3[nH]nc(-c4ccc5nonc5c4)c3c2)C1

>  <Name>  (615) 
nan

>  <Pocket>  (615) 
nan

>  <ATP_Site>  (615) 
nan

>  <Peripheral>  (615) 
nan

>  <Num_H_Atoms_ProtBoundConf>  (615) 
nan

>  <Num_Resolved_Atoms>  (615) 
nan

>  <Num_Not_Resolved_Atoms>  (615) 
nan

$$$$
CHEMBL3654617
     RDKit          3D

  0  0  0  0  0  0  0  0  0  0999 V3000
M  V30 BEGIN CTAB
M  V30 COUNTS 66 71 0 0 0
M  V30 BEGIN ATOM
M  V30 1 C 1.429450 -1.638323 4.019073 0
M  V30 2 O 1.612234 -0.265813 3.822965 0
M  V30 3 C 2.798890 0.405705 4.058723 0
M  V30 4 C 3.885572 -0.327372 4.521613 0
M  V30 5 C 5.099990 0.291679 4.775473 0
M  V30 6 C 5.196398 1.647739 4.556208 0
M  V30 7 C 4.095414 2.339720 4.096458 0
M  V30 8 F 4.217071 3.672853 3.890428 0
M  V30 9 C 2.876366 1.772033 3.831798 0
M  V30 10 C 1.681616 2.451833 3.347430 0
M  V30 11 N 1.330511 2.288133 1.993317 0
M  V30 12 C 2.242625 2.697149 0.999478 0
M  V30 13 C 1.641002 3.624128 -0.019068 0 CFG=1
M  V30 14 C 2.590514 3.739220 -1.217094 0
M  V30 15 C 0.283355 3.177322 -0.536040 0
M  V30 16 C -0.372461 2.123488 0.230800 0 CFG=1
M  V30 17 N -0.154174 0.767901 -0.113939 0
M  V30 18 C -1.082540 -0.223276 -0.482768 0
M  V30 19 O -2.274991 0.159152 -0.506947 0
M  V30 20 C -0.703855 -1.592946 -0.814198 0
M  V30 21 C 0.597053 -2.061543 -0.800023 0
M  V30 22 C 0.937430 -3.361346 -1.116701 0
M  V30 23 C -0.066106 -4.250090 -1.467889 0
M  V30 24 N -0.123848 -5.547924 -1.828089 0
M  V30 25 N -1.377997 -5.886272 -2.057031 0
M  V30 26 C -2.214440 -4.831010 -1.860562 0
M  V30 27 C -3.664853 -4.881320 -2.032592 0
M  V30 28 C -4.422642 -5.925555 -1.535462 0
M  V30 29 C -5.782972 -5.874183 -1.753673 0
M  V30 30 N -6.450127 -4.905074 -2.405018 0
M  V30 31 N -7.732801 -4.734832 -2.680901 0
M  V30 32 C -7.827637 -3.573575 -3.363590 0
M  V30 33 N -6.577636 -3.044137 -3.495611 0
M  V30 34 C -5.703381 -3.893290 -2.884914 0
M  V30 35 C -4.332165 -3.877444 -2.703880 0
M  V30 36 C -1.383538 -3.790009 -1.486128 0
M  V30 37 C -1.709040 -2.478702 -1.164724 0
M  V30 38 C -0.056793 2.323324 1.696249 0
M  V30 39 H 0.381974 -1.884869 3.723601 0
M  V30 40 H 1.496199 -1.919373 5.097962 0
M  V30 41 H 2.089890 -2.281969 3.386198 0
M  V30 42 H 3.761602 -1.398865 4.680657 0
M  V30 43 H 5.953883 -0.262800 5.134857 0
M  V30 44 H 6.150281 2.152038 4.752389 0
M  V30 45 H 0.782650 2.194542 3.967353 0
M  V30 46 H 1.819929 3.551975 3.537238 0
M  V30 47 H 3.066831 3.267820 1.486905 0
M  V30 48 H 2.794030 1.843264 0.513276 0
M  V30 49 H 1.623812 4.636750 0.436690 0
M  V30 50 H 3.258171 2.860809 -1.212751 0
M  V30 51 H 1.999992 3.663246 -2.174573 0
M  V30 52 H 3.166241 4.685962 -1.208361 0
M  V30 53 H -0.352664 4.098643 -0.504236 0
M  V30 54 H 0.327367 2.997681 -1.650923 0
M  V30 55 H -1.492779 2.270693 0.153978 0
M  V30 56 H 0.865684 0.537928 -0.067103 0
M  V30 57 H 1.390364 -1.377980 -0.527445 0
M  V30 58 H 1.962118 -3.701413 -1.097813 0
M  V30 59 H 0.733620 -6.125435 -1.891898 0
M  V30 60 H -3.960451 -6.743424 -0.999758 0
M  V30 61 H -6.360417 -6.716452 -1.348529 0
M  V30 62 H -8.741080 -3.118211 -3.752700 0
M  V30 63 H -3.827665 -3.029579 -3.122330 0
M  V30 64 H -2.735297 -2.132015 -1.182040 0
M  V30 65 H -0.479084 3.314712 2.020852 0
M  V30 66 H -0.619910 1.524677 2.252569 0
M  V30 END ATOM
M  V30 BEGIN BOND
M  V30 1 1 1 2
M  V30 2 1 2 3
M  V30 3 2 3 4
M  V30 4 1 4 5
M  V30 5 2 5 6
M  V30 6 1 6 7
M  V30 7 1 7 8
M  V30 8 2 7 9
M  V30 9 1 9 10
M  V30 10 1 10 11
M  V30 11 1 11 12
M  V30 12 1 12 13
M  V30 13 1 13 14
M  V30 14 1 13 15
M  V30 15 1 15 16
M  V30 16 1 16 17
M  V30 17 1 17 18
M  V30 18 2 18 19
M  V30 19 1 18 20
M  V30 20 2 20 21
M  V30 21 1 21 22
M  V30 22 2 22 23
M  V30 23 1 23 24
M  V30 24 1 24 25
M  V30 25 2 25 26
M  V30 26 1 26 27
M  V30 27 1 27 28
M  V30 28 2 28 29
M  V30 29 1 29 30
M  V30 30 1 30 31
M  V30 31 2 31 32
M  V30 32 1 32 33
M  V30 33 2 33 34
M  V30 34 1 34 35
M  V30 35 1 26 36
M  V30 36 2 36 37
M  V30 37 1 16 38
M  V30 38 1 9 3
M  V30 39 1 38 11
M  V30 40 1 37 20
M  V30 41 1 36 23
M  V30 42 2 35 27
M  V30 43 1 34 30
M  V30 44 1 1 39
M  V30 45 1 1 40
M  V30 46 1 1 41
M  V30 47 1 4 42
M  V30 48 1 5 43
M  V30 49 1 6 44
M  V30 50 1 10 45
M  V30 51 1 10 46
M  V30 52 1 12 47
M  V30 53 1 12 48
M  V30 54 1 13 49 CFG=1
M  V30 55 1 14 50
M  V30 56 1 14 51
M  V30 57 1 14 52
M  V30 58 1 15 53
M  V30 59 1 15 54
M  V30 60 1 16 55 CFG=1
M  V30 61 1 17 56
M  V30 62 1 21 57
M  V30 63 1 22 58
M  V30 64 1 24 59
M  V30 65 1 28 60
M  V30 66 1 29 61
M  V30 67 1 32 62
M  V30 68 1 35 63
M  V30 69 1 37 64
M  V30 70 1 38 65
M  V30 71 1 38 66
M  V30 END BOND
M  V30 END CTAB
M  END
>  <Dataset>  (616) 
ChEMBL_Kinases

>  <Ligand_Instance>  (616) 
nan

>  <PDB_ID>  (616) 
nan

>  <Standardized_SMILES>  (616) 
COc1cccc(F)c1CN1C[C@@H](C)C[C@@H](NC(=O)c2ccc3[nH]nc(-c4ccn5ncnc5c4)c3c2)C1

>  <Name>  (616) 
nan

>  <Pocket>  (616) 
nan

>  <ATP_Site>  (616) 
nan

>  <Peripheral>  (616) 
nan

>  <Num_H_Atoms_ProtBoundConf>  (616) 
nan

>  <Num_Resolved_Atoms>  (616) 
nan

>  <Num_Not_Resolved_Atoms>  (616) 
nan

$$$$
CHEMBL3654616
     RDKit          3D

  0  0  0  0  0  0  0  0  0  0999 V3000
M  V30 BEGIN CTAB
M  V30 COUNTS 71 76 0 0 0
M  V30 BEGIN ATOM
M  V30 1 C 2.561445 -4.529678 4.360420 0
M  V30 2 O 2.227129 -4.221296 3.030612 0
M  V30 3 C 2.939350 -4.614669 1.928817 0
M  V30 4 C 4.076918 -5.372426 2.065892 0
M  V30 5 C 4.781829 -5.764007 0.947948 0
M  V30 6 C 4.311806 -5.374661 -0.284622 0
M  V30 7 C 3.164975 -4.614295 -0.360528 0
M  V30 8 F 2.824604 -4.306894 -1.645594 0
M  V30 9 C 2.405595 -4.185506 0.743951 0
M  V30 10 C 1.251229 -3.371955 0.378794 0
M  V30 11 C 1.403676 -1.893232 0.478352 0
M  V30 12 C 2.555585 -1.431721 -0.415169 0
M  V30 13 C 2.681066 0.064331 -0.279949 0 CFG=1
M  V30 14 N 1.423389 0.662419 -0.713700 0
M  V30 15 C 1.414227 1.501125 -1.857038 0
M  V30 16 O 2.520058 1.701850 -2.467851 0
M  V30 17 C 0.244385 2.161234 -2.403827 0
M  V30 18 C 0.388414 2.936132 -3.522748 0
M  V30 19 C -0.707029 3.589171 -4.085427 0
M  V30 20 C -1.970887 3.485480 -3.546649 0
M  V30 21 N -3.202636 3.960386 -3.822033 0
M  V30 22 N -4.099561 3.532209 -2.949500 0
M  V30 23 C -3.476921 2.733371 -2.035419 0
M  V30 24 C -4.076725 2.037561 -0.888344 0
M  V30 25 C -3.575317 1.992589 0.398045 0
M  V30 26 C -4.258284 1.287896 1.369302 0
M  V30 27 C -5.439023 0.620932 1.088278 0
M  V30 28 N -6.286147 -0.125033 1.834131 0
M  V30 29 N -7.278949 -0.534377 1.056860 0
M  V30 30 C -8.425342 -1.361653 1.415416 0
M  V30 31 C -7.115126 -0.077051 -0.199030 0
M  V30 32 C -5.944845 0.666917 -0.211629 0
M  V30 33 C -5.254657 1.380398 -1.197903 0
M  V30 34 C -2.129641 2.704674 -2.414658 0
M  V30 35 C -1.008906 2.067693 -1.882231 0
M  V30 36 C 3.079711 0.399535 1.111153 0
M  V30 37 C 2.760398 -0.678321 2.126825 0 CFG=1
M  V30 38 C 2.743187 -0.048797 3.481104 0
M  V30 39 F 1.768285 0.934047 3.480035 0
M  V30 40 F 3.977182 0.582391 3.676241 0
M  V30 41 F 2.600578 -0.959914 4.484579 0
M  V30 42 C 1.380306 -1.271769 1.816787 0
M  V30 43 H 3.615717 -4.263047 4.531204 0
M  V30 44 H 2.479936 -5.638856 4.444730 0
M  V30 45 H 1.849820 -4.043074 5.036392 0
M  V30 46 H 4.371041 -5.631329 3.072923 0
M  V30 47 H 5.660990 -6.352979 1.108141 0
M  V30 48 H 4.881969 -5.696143 -1.120504 0
M  V30 49 H 0.395456 -3.744028 1.022299 0
M  V30 50 H 0.891348 -3.626317 -0.661617 0
M  V30 51 H 0.488412 -1.469008 -0.072089 0
M  V30 52 H 3.485927 -1.970517 -0.211166 0
M  V30 53 H 2.242241 -1.617745 -1.483934 0
M  V30 54 H 3.507982 0.380509 -0.971961 0
M  V30 55 H 0.478761 0.566555 -0.297199 0
M  V30 56 H 1.322751 3.108071 -4.053145 0
M  V30 57 H -0.617420 4.203333 -4.964590 0
M  V30 58 H -3.393459 4.599331 -4.648701 0
M  V30 59 H -2.651998 2.531395 0.561569 0
M  V30 60 H -3.829481 1.279831 2.361452 0
M  V30 61 H -8.329590 -2.389458 0.976716 0
M  V30 62 H -8.543468 -1.460794 2.520063 0
M  V30 63 H -9.380744 -0.937294 1.027855 0
M  V30 64 H -7.733300 -0.224590 -1.063562 0
M  V30 65 H -5.706533 1.376645 -2.199302 0
M  V30 66 H -1.188089 1.476840 -1.009081 0
M  V30 67 H 2.664991 1.360368 1.479529 0
M  V30 68 H 4.180978 0.525959 1.154036 0
M  V30 69 H 3.490889 -1.485792 2.101264 0
M  V30 70 H 0.679407 -0.374140 1.869184 0
M  V30 71 H 1.087408 -1.878240 2.669400 0
M  V30 END ATOM
M  V30 BEGIN BOND
M  V30 1 1 1 2
M  V30 2 1 2 3
M  V30 3 2 3 4
M  V30 4 1 4 5
M  V30 5 2 5 6
M  V30 6 1 6 7
M  V30 7 1 7 8
M  V30 8 2 7 9
M  V30 9 1 9 10
M  V30 10 1 10 11
M  V30 11 1 11 12
M  V30 12 1 12 13
M  V30 13 1 13 14
M  V30 14 1 14 15
M  V30 15 2 15 16
M  V30 16 1 15 17
M  V30 17 2 17 18
M  V30 18 1 18 19
M  V30 19 2 19 20
M  V30 20 1 20 21
M  V30 21 1 21 22
M  V30 22 2 22 23
M  V30 23 1 23 24
M  V30 24 1 24 25
M  V30 25 2 25 26
M  V30 26 1 26 27
M  V30 27 2 27 28
M  V30 28 1 28 29
M  V30 29 1 29 30
M  V30 30 1 29 31
M  V30 31 2 31 32
M  V30 32 1 32 33
M  V30 33 1 23 34
M  V30 34 2 34 35
M  V30 35 1 13 36
M  V30 36 1 36 37
M  V30 37 1 37 38
M  V30 38 1 38 39
M  V30 39 1 38 40
M  V30 40 1 38 41
M  V30 41 1 37 42
M  V30 42 1 9 3
M  V30 43 1 42 11
M  V30 44 1 35 17
M  V30 45 1 34 20
M  V30 46 2 33 24
M  V30 47 1 32 27
M  V30 48 1 1 43
M  V30 49 1 1 44
M  V30 50 1 1 45
M  V30 51 1 4 46
M  V30 52 1 5 47
M  V30 53 1 6 48
M  V30 54 1 10 49
M  V30 55 1 10 50
M  V30 56 1 11 51
M  V30 57 1 12 52
M  V30 58 1 12 53
M  V30 59 1 13 54 CFG=3
M  V30 60 1 14 55
M  V30 61 1 18 56
M  V30 62 1 19 57
M  V30 63 1 21 58
M  V30 64 1 25 59
M  V30 65 1 26 60
M  V30 66 1 30 61
M  V30 67 1 30 62
M  V30 68 1 30 63
M  V30 69 1 31 64
M  V30 70 1 33 65
M  V30 71 1 35 66
M  V30 72 1 36 67
M  V30 73 1 36 68
M  V30 74 1 37 69 CFG=1
M  V30 75 1 42 70
M  V30 76 1 42 71
M  V30 END BOND
M  V30 END CTAB
M  END
>  <Dataset>  (617) 
ChEMBL_Kinases

>  <Ligand_Instance>  (617) 
nan

>  <PDB_ID>  (617) 
nan

>  <Standardized_SMILES>  (617) 
COc1cccc(F)c1CC1C[C@@H](NC(=O)c2ccc3[nH]nc(-c4ccc5nn(C)cc5c4)c3c2)C[C@@H](C(F)(F)F)C1

>  <Name>  (617) 
nan

>  <Pocket>  (617) 
nan

>  <ATP_Site>  (617) 
nan

>  <Peripheral>  (617) 
nan

>  <Num_H_Atoms_ProtBoundConf>  (617) 
nan

>  <Num_Resolved_Atoms>  (617) 
nan

>  <Num_Not_Resolved_Atoms>  (617) 
nan

$$$$
CHEMBL3654615
     RDKit          3D

  0  0  0  0  0  0  0  0  0  0999 V3000
M  V30 BEGIN CTAB
M  V30 COUNTS 65 70 0 0 0
M  V30 BEGIN ATOM
M  V30 1 C 1.456536 -1.587499 2.563948 0
M  V30 2 O 1.122121 -0.263498 2.130524 0
M  V30 3 C 2.119883 0.705301 2.141951 0
M  V30 4 C 3.399764 0.413126 2.556337 0
M  V30 5 C 4.434567 1.342377 2.587842 0
M  V30 6 C 4.116349 2.631234 2.168112 0
M  V30 7 C 2.836035 2.946405 1.747608 0
M  V30 8 F 2.672785 4.218982 1.373062 0
M  V30 9 C 1.836367 1.990779 1.732170 0
M  V30 10 C 0.474537 2.388628 1.265718 0
M  V30 11 N 0.274376 1.886890 -0.073998 0
M  V30 12 C -0.982960 2.199010 -0.641111 0
M  V30 13 C -1.063631 2.273230 -2.110120 0 CFG=2
M  V30 14 C -2.271861 1.474098 -2.604444 0
M  V30 15 C 0.110944 1.763925 -2.887838 0
M  V30 16 C 1.139450 1.067386 -2.092929 0 CFG=2
M  V30 17 N 0.793619 -0.173879 -1.503529 0
M  V30 18 C 1.461379 -1.417921 -1.454921 0
M  V30 19 O 2.581192 -1.505949 -2.022562 0
M  V30 20 C 0.952232 -2.596316 -0.800858 0
M  V30 21 C 1.733441 -3.739784 -0.814541 0
M  V30 22 C 1.344333 -4.939781 -0.217372 0
M  V30 23 C 0.133479 -4.989548 0.411675 0
M  V30 24 N -0.603181 -5.910948 1.091543 0
M  V30 25 N -1.752541 -5.399005 1.501750 0
M  V30 26 C -1.830720 -4.119655 1.114484 0
M  V30 27 C -3.002918 -3.325795 1.440805 0
M  V30 28 C -3.527215 -2.559039 0.445588 0
M  V30 29 C -4.632220 -1.801426 0.719767 0
M  V30 30 C -5.213167 -1.791536 1.937329 0
M  V30 31 N -6.386983 -1.038551 2.370790 0
M  V30 32 S -6.624290 -1.439509 3.986424 0
M  V30 33 N -5.247763 -2.610253 4.273647 0
M  V30 34 C -4.700011 -2.543609 2.916256 0
M  V30 35 C -3.597399 -3.313062 2.679879 0
M  V30 36 C -0.674246 -3.867755 0.445967 0
M  V30 37 C -0.259245 -2.698073 -0.154182 0
M  V30 38 C 1.419282 2.011796 -0.913582 0
M  V30 39 H 0.574406 -2.226210 2.626409 0
M  V30 40 H 1.953513 -1.455601 3.547206 0
M  V30 41 H 2.232846 -1.980019 1.874527 0
M  V30 42 H 3.676265 -0.585596 2.889246 0
M  V30 43 H 5.436982 1.066405 2.924675 0
M  V30 44 H 4.953870 3.335979 2.206035 0
M  V30 45 H -0.257423 1.904088 1.918864 0
M  V30 46 H 0.367751 3.486795 1.265071 0
M  V30 47 H -1.318775 3.159244 -0.146684 0
M  V30 48 H -1.738450 1.456302 -0.247532 0
M  V30 49 H -1.317449 3.339209 -2.391947 0
M  V30 50 H -3.163855 2.104451 -2.769634 0
M  V30 51 H -2.577278 0.756995 -1.799674 0
M  V30 52 H -2.067086 0.957758 -3.565546 0
M  V30 53 H -0.189841 1.233489 -3.823672 0
M  V30 54 H 0.630498 2.673173 -3.307568 0
M  V30 55 H 2.107688 0.999977 -2.632178 0
M  V30 56 H -0.131108 -0.146180 -1.019101 0
M  V30 57 H 2.717862 -3.778535 -1.299613 0
M  V30 58 H 1.952442 -5.827729 -0.228695 0
M  V30 59 H -0.256517 -6.892194 1.243842 0
M  V30 60 H -3.148087 -2.490345 -0.556192 0
M  V30 61 H -5.086327 -1.180976 -0.022911 0
M  V30 62 H -3.096253 -3.956503 3.383908 0
M  V30 63 H -0.882546 -1.820928 -0.131459 0
M  V30 64 H 2.285394 1.550761 -0.397365 0
M  V30 65 H 1.618093 3.027608 -1.246409 0
M  V30 END ATOM
M  V30 BEGIN BOND
M  V30 1 1 1 2
M  V30 2 1 2 3
M  V30 3 2 3 4
M  V30 4 1 4 5
M  V30 5 2 5 6
M  V30 6 1 6 7
M  V30 7 1 7 8
M  V30 8 2 7 9
M  V30 9 1 9 10
M  V30 10 1 10 11
M  V30 11 1 11 12
M  V30 12 1 12 13
M  V30 13 1 13 14
M  V30 14 1 13 15
M  V30 15 1 15 16
M  V30 16 1 16 17
M  V30 17 1 17 18
M  V30 18 2 18 19
M  V30 19 1 18 20
M  V30 20 2 20 21
M  V30 21 1 21 22
M  V30 22 2 22 23
M  V30 23 1 23 24
M  V30 24 1 24 25
M  V30 25 2 25 26
M  V30 26 1 26 27
M  V30 27 1 27 28
M  V30 28 2 28 29
M  V30 29 1 29 30
M  V30 30 2 30 31
M  V30 31 1 31 32
M  V30 32 1 32 33
M  V30 33 2 33 34
M  V30 34 1 34 35
M  V30 35 1 26 36
M  V30 36 2 36 37
M  V30 37 1 16 38
M  V30 38 1 9 3
M  V30 39 1 38 11
M  V30 40 1 37 20
M  V30 41 1 36 23
M  V30 42 2 35 27
M  V30 43 1 34 30
M  V30 44 1 1 39
M  V30 45 1 1 40
M  V30 46 1 1 41
M  V30 47 1 4 42
M  V30 48 1 5 43
M  V30 49 1 6 44
M  V30 50 1 10 45
M  V30 51 1 10 46
M  V30 52 1 12 47
M  V30 53 1 12 48
M  V30 54 1 13 49 CFG=1
M  V30 55 1 14 50
M  V30 56 1 14 51
M  V30 57 1 14 52
M  V30 58 1 15 53
M  V30 59 1 15 54
M  V30 60 1 16 55 CFG=3
M  V30 61 1 17 56
M  V30 62 1 21 57
M  V30 63 1 22 58
M  V30 64 1 24 59
M  V30 65 1 28 60
M  V30 66 1 29 61
M  V30 67 1 35 62
M  V30 68 1 37 63
M  V30 69 1 38 64
M  V30 70 1 38 65
M  V30 END BOND
M  V30 END CTAB
M  END
>  <Dataset>  (618) 
ChEMBL_Kinases

>  <Ligand_Instance>  (618) 
nan

>  <PDB_ID>  (618) 
nan

>  <Standardized_SMILES>  (618) 
COc1cccc(F)c1CN1C[C@H](C)C[C@H](NC(=O)c2ccc3[nH]nc(-c4ccc5nsnc5c4)c3c2)C1

>  <Name>  (618) 
nan

>  <Pocket>  (618) 
nan

>  <ATP_Site>  (618) 
nan

>  <Peripheral>  (618) 
nan

>  <Num_H_Atoms_ProtBoundConf>  (618) 
nan

>  <Num_Resolved_Atoms>  (618) 
nan

>  <Num_Not_Resolved_Atoms>  (618) 
nan

$$$$
CHEMBL3654614
     RDKit          3D

  0  0  0  0  0  0  0  0  0  0999 V3000
M  V30 BEGIN CTAB
M  V30 COUNTS 60 64 0 0 0
M  V30 BEGIN ATOM
M  V30 1 C 3.169269 -0.986485 3.518990 0
M  V30 2 O 3.250684 -0.305849 2.304653 0
M  V30 3 C 4.066010 0.801231 2.149199 0
M  V30 4 C 4.831218 1.272778 3.189662 0
M  V30 5 C 5.651090 2.370679 3.051925 0
M  V30 6 C 5.683405 2.992724 1.822721 0
M  V30 7 C 4.907856 2.502812 0.794902 0
M  V30 8 F 5.067565 3.242944 -0.353724 0
M  V30 9 C 4.059507 1.391344 0.887823 0
M  V30 10 C 3.281616 1.014160 -0.292109 0
M  V30 11 N 1.950434 1.427145 -0.386016 0
M  V30 12 C 1.784925 2.865784 -0.436655 0
M  V30 13 C 0.405354 3.229700 -0.937240 0
M  V30 14 C -0.375040 1.938784 -1.280018 0
M  V30 15 C -0.459277 1.177493 -0.006346 0 CFG=1
M  V30 16 N -1.265272 0.006704 0.004683 0
M  V30 17 C -2.342366 -0.104737 0.903753 0
M  V30 18 O -2.586431 0.842810 1.698791 0
M  V30 19 C -3.230354 -1.264348 0.995927 0
M  V30 20 C -4.253636 -1.230061 1.920989 0
M  V30 21 C -5.146718 -2.297863 2.072292 0
M  V30 22 C -5.020543 -3.439836 1.278243 0
M  V30 23 N -5.706828 -4.607822 1.186989 0
M  V30 24 N -5.114166 -5.331912 0.230720 0
M  V30 25 C -4.077594 -4.641485 -0.272877 0
M  V30 26 C -3.255990 -5.210624 -1.336713 0
M  V30 27 C -1.855520 -5.163156 -1.329907 0
M  V30 28 C -1.175774 -5.735314 -2.388367 0
M  V30 29 N -1.772826 -6.335359 -3.425480 0
M  V30 30 C -3.120422 -6.383946 -3.437447 0
M  V30 31 C -3.877424 -5.838906 -2.422841 0
M  V30 32 C -3.982917 -3.424544 0.370293 0
M  V30 33 C -3.095724 -2.388960 0.204858 0
M  V30 34 C 0.971483 0.768923 0.372941 0
M  V30 35 H 4.137608 -1.130813 4.045420 0
M  V30 36 H 2.811791 -2.042250 3.330479 0
M  V30 37 H 2.461640 -0.547753 4.256141 0
M  V30 38 H 4.806851 0.786458 4.153899 0
M  V30 39 H 6.236195 2.710833 3.892290 0
M  V30 40 H 6.335965 3.847141 1.755665 0
M  V30 41 H 3.318959 -0.116680 -0.344480 0
M  V30 42 H 3.869094 1.342386 -1.201244 0
M  V30 43 H 1.967548 3.376523 0.504548 0
M  V30 44 H 2.513870 3.243352 -1.186008 0
M  V30 45 H 0.467648 3.908252 -1.807286 0
M  V30 46 H -0.120990 3.771324 -0.130736 0
M  V30 47 H -1.340020 2.229429 -1.719660 0
M  V30 48 H 0.306940 1.406397 -1.978422 0
M  V30 49 H -0.866758 1.863605 0.775876 0
M  V30 50 H -1.078935 -0.805853 -0.657145 0
M  V30 51 H -4.450836 -0.418429 2.580188 0
M  V30 52 H -5.944201 -2.288423 2.782578 0
M  V30 53 H -6.533307 -4.788040 1.810336 0
M  V30 54 H -1.434238 -4.670702 -0.473908 0
M  V30 55 H -0.098516 -5.609419 -2.224942 0
M  V30 56 H -3.602881 -6.870215 -4.277078 0
M  V30 57 H -4.958637 -5.871799 -2.421621 0
M  V30 58 H -2.300922 -2.436260 -0.526078 0
M  V30 59 H 1.035479 0.931052 1.472892 0
M  V30 60 H 1.051732 -0.319888 0.198555 0
M  V30 END ATOM
M  V30 BEGIN BOND
M  V30 1 1 1 2
M  V30 2 1 2 3
M  V30 3 2 3 4
M  V30 4 1 4 5
M  V30 5 2 5 6
M  V30 6 1 6 7
M  V30 7 1 7 8
M  V30 8 2 7 9
M  V30 9 1 9 10
M  V30 10 1 10 11
M  V30 11 1 11 12
M  V30 12 1 12 13
M  V30 13 1 13 14
M  V30 14 1 14 15
M  V30 15 1 15 16
M  V30 16 1 16 17
M  V30 17 2 17 18
M  V30 18 1 17 19
M  V30 19 2 19 20
M  V30 20 1 20 21
M  V30 21 2 21 22
M  V30 22 1 22 23
M  V30 23 1 23 24
M  V30 24 2 24 25
M  V30 25 1 25 26
M  V30 26 2 26 27
M  V30 27 1 27 28
M  V30 28 2 28 29
M  V30 29 1 29 30
M  V30 30 2 30 31
M  V30 31 1 25 32
M  V30 32 2 32 33
M  V30 33 1 15 34
M  V30 34 1 9 3
M  V30 35 1 34 11
M  V30 36 1 33 19
M  V30 37 1 32 22
M  V30 38 1 31 26
M  V30 39 1 1 35
M  V30 40 1 1 36
M  V30 41 1 1 37
M  V30 42 1 4 38
M  V30 43 1 5 39
M  V30 44 1 6 40
M  V30 45 1 10 41
M  V30 46 1 10 42
M  V30 47 1 12 43
M  V30 48 1 12 44
M  V30 49 1 13 45
M  V30 50 1 13 46
M  V30 51 1 14 47
M  V30 52 1 14 48
M  V30 53 1 15 49 CFG=1
M  V30 54 1 16 50
M  V30 55 1 20 51
M  V30 56 1 21 52
M  V30 57 1 23 53
M  V30 58 1 27 54
M  V30 59 1 28 55
M  V30 60 1 30 56
M  V30 61 1 31 57
M  V30 62 1 33 58
M  V30 63 1 34 59
M  V30 64 1 34 60
M  V30 END BOND
M  V30 END CTAB
M  END
>  <Dataset>  (619) 
ChEMBL_Kinases

>  <Ligand_Instance>  (619) 
nan

>  <PDB_ID>  (619) 
nan

>  <Standardized_SMILES>  (619) 
COc1cccc(F)c1CN1CCC[C@@H](NC(=O)c2ccc3[nH]nc(-c4ccncc4)c3c2)C1

>  <Name>  (619) 
nan

>  <Pocket>  (619) 
nan

>  <ATP_Site>  (619) 
nan

>  <Peripheral>  (619) 
nan

>  <Num_H_Atoms_ProtBoundConf>  (619) 
nan

>  <Num_Resolved_Atoms>  (619) 
nan

>  <Num_Not_Resolved_Atoms>  (619) 
nan

$$$$
CHEMBL3654613
     RDKit          3D

  0  0  0  0  0  0  0  0  0  0999 V3000
M  V30 BEGIN CTAB
M  V30 COUNTS 67 71 0 0 0
M  V30 BEGIN ATOM
M  V30 1 C 0.550221 -2.143179 6.720158 0
M  V30 2 O 0.310802 -1.944988 5.355287 0
M  V30 3 C 0.995830 -2.855705 4.635691 0
M  V30 4 C 0.906242 -2.855392 3.156714 0 CFG=1
M  V30 5 C -0.352909 -3.527325 2.651463 0
M  V30 6 C -0.526707 -3.430990 1.181264 0
M  V30 7 C 0.704256 -3.101292 0.397617 0 CFG=1
M  V30 8 N 0.288623 -2.459264 -0.840518 0
M  V30 9 C 0.529273 -3.014298 -2.112966 0
M  V30 10 O 1.140674 -4.133578 -2.192199 0
M  V30 11 C 0.137706 -2.418744 -3.385459 0
M  V30 12 C 0.427660 -3.097470 -4.551919 0
M  V30 13 C 0.078440 -2.576418 -5.804256 0
M  V30 14 C -0.574991 -1.347061 -5.870140 0
M  V30 15 N -1.038557 -0.587566 -6.902082 0
M  V30 16 N -1.599273 0.526068 -6.424537 0
M  V30 17 C -1.521911 0.531868 -5.074251 0
M  V30 18 C -2.014147 1.564493 -4.167105 0
M  V30 19 C -1.297286 2.067468 -3.099456 0
M  V30 20 C -1.896114 3.037884 -2.332494 0
M  V30 21 N -3.127702 3.536322 -2.541144 0
M  V30 22 C -3.839497 3.054158 -3.581207 0
M  V30 23 C -3.276117 2.078010 -4.378363 0
M  V30 24 C -0.880552 -0.640957 -4.725240 0
M  V30 25 C -0.506436 -1.215447 -3.529716 0
M  V30 26 C 1.787585 -2.385644 1.123117 0
M  V30 27 N 1.296305 -1.769999 2.403759 0
M  V30 28 C 0.644095 -0.591746 2.110464 0
M  V30 29 C 0.097768 0.301791 3.134123 0
M  V30 30 C -1.108156 0.310980 3.799733 0
M  V30 31 F -1.974261 -0.652868 3.413134 0
M  V30 32 C -1.519868 1.183755 4.773467 0
M  V30 33 C -0.640593 2.165125 5.135556 0
M  V30 34 C 0.595346 2.280285 4.559103 0
M  V30 35 C 0.918470 1.355522 3.589488 0
M  V30 36 O 2.186079 1.479577 3.003204 0
M  V30 37 C 3.080908 2.493935 3.384693 0
M  V30 38 H 0.012789 -1.425724 7.345596 0
M  V30 39 H 0.439329 -3.192408 7.028807 0
M  V30 40 H 1.645766 -1.918649 6.868193 0
M  V30 41 H 0.800145 -3.922609 4.959798 0
M  V30 42 H 2.099044 -2.732183 4.883411 0
M  V30 43 H 1.708566 -3.687739 2.889017 0
M  V30 44 H -1.191779 -3.134632 3.241368 0
M  V30 45 H -0.277933 -4.603128 3.001348 0
M  V30 46 H -1.365326 -2.742826 0.955507 0
M  V30 47 H -0.894983 -4.441415 0.836052 0
M  V30 48 H 1.192225 -4.061901 0.043477 0
M  V30 49 H -0.217085 -1.549216 -0.920603 0
M  V30 50 H 0.935367 -4.062173 -4.570435 0
M  V30 51 H 0.303172 -3.104398 -6.723091 0
M  V30 52 H -0.951699 -0.866370 -7.912825 0
M  V30 53 H -0.307245 1.682834 -2.913550 0
M  V30 54 H -1.332424 3.422354 -1.507504 0
M  V30 55 H -4.828377 3.476185 -3.722418 0
M  V30 56 H -3.917867 1.743486 -5.194451 0
M  V30 57 H -0.752259 -0.652808 -2.651242 0
M  V30 58 H 2.172320 -1.544521 0.508637 0
M  V30 59 H 2.630632 -3.023831 1.434935 0
M  V30 60 H 1.391064 0.058169 1.525287 0
M  V30 61 H -0.166719 -0.713388 1.307013 0
M  V30 62 H -2.502652 1.063493 5.207375 0
M  V30 63 H -0.936864 2.868106 5.900072 0
M  V30 64 H 1.309061 3.045677 4.825683 0
M  V30 65 H 3.242731 2.489331 4.497854 0
M  V30 66 H 2.709599 3.479735 3.028361 0
M  V30 67 H 4.080955 2.333022 2.918121 0
M  V30 END ATOM
M  V30 BEGIN BOND
M  V30 1 1 1 2
M  V30 2 1 2 3
M  V30 3 1 3 4
M  V30 4 1 4 5
M  V30 5 1 5 6
M  V30 6 1 6 7
M  V30 7 1 7 8
M  V30 8 1 8 9
M  V30 9 2 9 10
M  V30 10 1 9 11
M  V30 11 2 11 12
M  V30 12 1 12 13
M  V30 13 2 13 14
M  V30 14 1 14 15
M  V30 15 1 15 16
M  V30 16 2 16 17
M  V30 17 1 17 18
M  V30 18 2 18 19
M  V30 19 1 19 20
M  V30 20 2 20 21
M  V30 21 1 21 22
M  V30 22 2 22 23
M  V30 23 1 17 24
M  V30 24 2 24 25
M  V30 25 1 7 26
M  V30 26 1 26 27
M  V30 27 1 27 28
M  V30 28 1 28 29
M  V30 29 2 29 30
M  V30 30 1 30 31
M  V30 31 1 30 32
M  V30 32 2 32 33
M  V30 33 1 33 34
M  V30 34 2 34 35
M  V30 35 1 35 36
M  V30 36 1 36 37
M  V30 37 1 27 4
M  V30 38 1 35 29
M  V30 39 1 25 11
M  V30 40 1 24 14
M  V30 41 1 23 18
M  V30 42 1 1 38
M  V30 43 1 1 39
M  V30 44 1 1 40
M  V30 45 1 3 41
M  V30 46 1 3 42
M  V30 47 1 4 43 CFG=3
M  V30 48 1 5 44
M  V30 49 1 5 45
M  V30 50 1 6 46
M  V30 51 1 6 47
M  V30 52 1 7 48 CFG=3
M  V30 53 1 8 49
M  V30 54 1 12 50
M  V30 55 1 13 51
M  V30 56 1 15 52
M  V30 57 1 19 53
M  V30 58 1 20 54
M  V30 59 1 22 55
M  V30 60 1 23 56
M  V30 61 1 25 57
M  V30 62 1 26 58
M  V30 63 1 26 59
M  V30 64 1 28 60
M  V30 65 1 28 61
M  V30 66 1 32 62
M  V30 67 1 33 63
M  V30 68 1 34 64
M  V30 69 1 37 65
M  V30 70 1 37 66
M  V30 71 1 37 67
M  V30 END BOND
M  V30 END CTAB
M  END
>  <Dataset>  (620) 
ChEMBL_Kinases

>  <Ligand_Instance>  (620) 
nan

>  <PDB_ID>  (620) 
nan

>  <Standardized_SMILES>  (620) 
COC[C@H]1CC[C@@H](NC(=O)c2ccc3[nH]nc(-c4ccncc4)c3c2)CN1Cc1c(F)cccc1OC

>  <Name>  (620) 
nan

>  <Pocket>  (620) 
nan

>  <ATP_Site>  (620) 
nan

>  <Peripheral>  (620) 
nan

>  <Num_H_Atoms_ProtBoundConf>  (620) 
nan

>  <Num_Resolved_Atoms>  (620) 
nan

>  <Num_Not_Resolved_Atoms>  (620) 
nan

$$$$
CHEMBL3654612
     RDKit          3D

  0  0  0  0  0  0  0  0  0  0999 V3000
M  V30 BEGIN CTAB
M  V30 COUNTS 62 66 0 0 0
M  V30 BEGIN ATOM
M  V30 1 O -0.507680 3.204213 1.632399 0
M  V30 2 C -0.888732 2.052916 1.261465 0
M  V30 3 N -0.547120 0.928594 2.060468 0
M  V30 4 C 0.226483 1.105743 3.283840 0
M  V30 5 C -0.515831 0.471701 4.403880 0
M  V30 6 C 0.363196 -0.273433 5.371230 0
M  V30 7 C 0.934776 -1.548155 4.858079 0
M  V30 8 C 0.863244 -1.736719 3.375617 0
M  V30 9 N 1.695145 -0.807575 2.708638 0
M  V30 10 C 2.048924 -1.092074 1.360225 0
M  V30 11 C 2.972873 -2.294698 1.215143 0
M  V30 12 C 3.289584 -2.512887 -0.230040 0
M  V30 13 C 4.214374 -1.604952 -0.739348 0
M  V30 14 F 4.777539 -0.610732 0.007607 0
M  V30 15 C 4.640783 -1.639076 -2.058374 0
M  V30 16 C 4.115058 -2.625961 -2.895874 0
M  V30 17 C 3.205862 -3.516688 -2.390726 0
M  V30 18 C 2.787986 -3.475461 -1.079796 0
M  V30 19 F 1.894685 -4.311673 -0.489551 0
M  V30 20 C 1.615249 0.551401 3.088719 0
M  V30 21 C -1.655510 2.000105 0.024310 0
M  V30 22 C -1.864033 3.171223 -0.665283 0
M  V30 23 C -2.593377 3.189746 -1.858825 0
M  V30 24 C -3.124714 2.002399 -2.369233 0
M  V30 25 N -3.851006 1.698519 -3.461098 0
M  V30 26 N -4.105878 0.406063 -3.488893 0
M  V30 27 C -3.552303 -0.164219 -2.416287 0
M  V30 28 C -3.621709 -1.580262 -2.098514 0
M  V30 29 C -2.648257 -2.452865 -1.672122 0
M  V30 30 C -2.955994 -3.759579 -1.434827 0
M  V30 31 N -4.193063 -4.256573 -1.599341 0
M  V30 32 C -5.187696 -3.462430 -2.012159 0
M  V30 33 C -4.896966 -2.135865 -2.257911 0
M  V30 34 C -2.924171 0.823638 -1.689849 0
M  V30 35 C -2.199537 0.856717 -0.519487 0
M  V30 36 H -0.897962 0.036919 1.679975 0
M  V30 37 H 0.374590 2.210114 3.395472 0
M  V30 38 H -1.380024 -0.156858 4.081537 0
M  V30 39 H -0.974150 1.305126 5.007451 0
M  V30 40 H 1.122420 0.427421 5.774886 0
M  V30 41 H -0.279781 -0.524948 6.262729 0
M  V30 42 H 2.024670 -1.559642 5.142736 0
M  V30 43 H 0.517165 -2.466037 5.341100 0
M  V30 44 H -0.185007 -1.796134 3.048159 0
M  V30 45 H 1.303497 -2.759195 3.184038 0
M  V30 46 H 2.573186 -0.253549 0.859647 0
M  V30 47 H 1.116099 -1.340285 0.801996 0
M  V30 48 H 2.482196 -3.224288 1.583812 0
M  V30 49 H 3.933221 -2.139013 1.738182 0
M  V30 50 H 5.360190 -0.935050 -2.460520 0
M  V30 51 H 4.429259 -2.677527 -3.931117 0
M  V30 52 H 2.775226 -4.296078 -3.007805 0
M  V30 53 H 2.221704 0.751381 3.995726 0
M  V30 54 H 2.086769 1.161175 2.273233 0
M  V30 55 H -1.492783 4.141914 -0.350211 0
M  V30 56 H -2.748689 4.129972 -2.393348 0
M  V30 57 H -4.156557 2.404967 -4.171216 0
M  V30 58 H -1.677634 -1.968563 -1.565613 0
M  V30 59 H -2.164514 -4.399892 -1.103644 0
M  V30 60 H -6.176716 -3.868158 -2.141768 0
M  V30 61 H -5.750259 -1.550023 -2.589807 0
M  V30 62 H -2.049485 -0.077090 0.003993 0
M  V30 END ATOM
M  V30 BEGIN BOND
M  V30 1 2 1 2
M  V30 2 1 2 3
M  V30 3 1 3 4
M  V30 4 1 4 5
M  V30 5 1 5 6
M  V30 6 1 6 7
M  V30 7 1 7 8
M  V30 8 1 8 9
M  V30 9 1 9 10
M  V30 10 1 10 11
M  V30 11 1 11 12
M  V30 12 2 12 13
M  V30 13 1 13 14
M  V30 14 1 13 15
M  V30 15 2 15 16
M  V30 16 1 16 17
M  V30 17 2 17 18
M  V30 18 1 18 19
M  V30 19 1 9 20
M  V30 20 1 2 21
M  V30 21 2 21 22
M  V30 22 1 22 23
M  V30 23 2 23 24
M  V30 24 1 24 25
M  V30 25 1 25 26
M  V30 26 2 26 27
M  V30 27 1 27 28
M  V30 28 2 28 29
M  V30 29 1 29 30
M  V30 30 2 30 31
M  V30 31 1 31 32
M  V30 32 2 32 33
M  V30 33 1 27 34
M  V30 34 2 34 35
M  V30 35 1 20 4
M  V30 36 1 35 21
M  V30 37 1 18 12
M  V30 38 1 34 24
M  V30 39 1 33 28
M  V30 40 1 3 36
M  V30 41 1 4 37
M  V30 42 1 5 38
M  V30 43 1 5 39
M  V30 44 1 6 40
M  V30 45 1 6 41
M  V30 46 1 7 42
M  V30 47 1 7 43
M  V30 48 1 8 44
M  V30 49 1 8 45
M  V30 50 1 10 46
M  V30 51 1 10 47
M  V30 52 1 11 48
M  V30 53 1 11 49
M  V30 54 1 15 50
M  V30 55 1 16 51
M  V30 56 1 17 52
M  V30 57 1 20 53
M  V30 58 1 20 54
M  V30 59 1 22 55
M  V30 60 1 23 56
M  V30 61 1 25 57
M  V30 62 1 29 58
M  V30 63 1 30 59
M  V30 64 1 32 60
M  V30 65 1 33 61
M  V30 66 1 35 62
M  V30 END BOND
M  V30 END CTAB
M  END
>  <Dataset>  (621) 
ChEMBL_Kinases

>  <Ligand_Instance>  (621) 
nan

>  <PDB_ID>  (621) 
nan

>  <Standardized_SMILES>  (621) 
O=C(NC1CCCCN(CCc2c(F)cccc2F)C1)c1ccc2[nH]nc(-c3ccncc3)c2c1

>  <Name>  (621) 
nan

>  <Pocket>  (621) 
nan

>  <ATP_Site>  (621) 
nan

>  <Peripheral>  (621) 
nan

>  <Num_H_Atoms_ProtBoundConf>  (621) 
nan

>  <Num_Resolved_Atoms>  (621) 
nan

>  <Num_Not_Resolved_Atoms>  (621) 
nan

$$$$
CHEMBL3654611
     RDKit          3D

  0  0  0  0  0  0  0  0  0  0999 V3000
M  V30 BEGIN CTAB
M  V30 COUNTS 56 60 0 0 0
M  V30 BEGIN ATOM
M  V30 1 O 0.727031 -2.315333 -0.168828 0
M  V30 2 C -0.203834 -1.896168 0.540535 0
M  V30 3 N 0.209945 -1.098308 1.643883 0
M  V30 4 C 1.451794 -0.643232 2.159423 0 CFG=2
M  V30 5 C 1.792422 -1.090109 3.542539 0
M  V30 6 C 3.109094 -0.444422 3.923306 0
M  V30 7 C 3.807992 0.217328 2.766320 0
M  V30 8 N 3.012667 1.169489 2.053998 0
M  V30 9 C 3.276959 2.521825 2.509146 0
M  V30 10 C 2.455631 3.512009 1.773455 0
M  V30 11 C 2.884174 3.790863 0.479786 0
M  V30 12 F 3.984075 3.198636 -0.083200 0
M  V30 13 C 2.224232 4.690754 -0.331047 0
M  V30 14 C 1.095755 5.363770 0.108056 0
M  V30 15 C 0.689347 5.072227 1.391956 0
M  V30 16 C 1.331572 4.180811 2.214139 0
M  V30 17 F 0.949524 3.882182 3.473868 0
M  V30 18 C 1.602315 0.882823 2.137428 0
M  V30 19 C -1.613444 -2.146193 0.339407 0
M  V30 20 C -2.662220 -1.694299 1.111991 0
M  V30 21 C -3.977602 -1.994308 0.826510 0
M  V30 22 C -4.315974 -2.773126 -0.262436 0
M  V30 23 N -5.473232 -3.212790 -0.768615 0
M  V30 24 N -5.157174 -3.924140 -1.834210 0
M  V30 25 C -3.827259 -3.959801 -2.035690 0
M  V30 26 C -3.225288 -4.681915 -3.149711 0
M  V30 27 C -2.135123 -5.460195 -2.895354 0
M  V30 28 C -1.516127 -6.172867 -3.915892 0
M  V30 29 N -2.001334 -6.093920 -5.179374 0
M  V30 30 C -3.063208 -5.346376 -5.472447 0
M  V30 31 C -3.694159 -4.626080 -4.458987 0
M  V30 32 C -3.254681 -3.218738 -1.027282 0
M  V30 33 C -1.928764 -2.935876 -0.767767 0
M  V30 34 H -0.433376 -0.662975 2.343841 0
M  V30 35 H 2.260511 -1.031804 1.505857 0
M  V30 36 H 1.066739 -0.764032 4.310878 0
M  V30 37 H 1.905480 -2.188866 3.615109 0
M  V30 38 H 2.975363 0.372788 4.690857 0
M  V30 39 H 3.807039 -1.174546 4.357905 0
M  V30 40 H 4.271717 -0.549028 2.111270 0
M  V30 41 H 4.670356 0.765085 3.217181 0
M  V30 42 H 3.077966 2.594751 3.611980 0
M  V30 43 H 4.360426 2.748507 2.402684 0
M  V30 44 H 2.548162 4.917770 -1.342792 0
M  V30 45 H 0.509611 6.081747 -0.440502 0
M  V30 46 H -0.189261 5.535528 1.861335 0
M  V30 47 H 1.217628 1.220762 3.115808 0
M  V30 48 H 1.020022 1.247931 1.284891 0
M  V30 49 H -2.390133 -1.086302 1.961090 0
M  V30 50 H -4.709499 -1.596255 1.485432 0
M  V30 51 H -6.397808 -2.991316 -0.343482 0
M  V30 52 H -1.654325 -5.610799 -1.952181 0
M  V30 53 H -0.642649 -6.816602 -3.799369 0
M  V30 54 H -3.483493 -5.258116 -6.480987 0
M  V30 55 H -4.573324 -3.987301 -4.615890 0
M  V30 56 H -1.148756 -3.327309 -1.422975 0
M  V30 END ATOM
M  V30 BEGIN BOND
M  V30 1 2 1 2
M  V30 2 1 2 3
M  V30 3 1 3 4
M  V30 4 1 4 5
M  V30 5 1 5 6
M  V30 6 1 6 7
M  V30 7 1 7 8
M  V30 8 1 8 9
M  V30 9 1 9 10
M  V30 10 2 10 11
M  V30 11 1 11 12
M  V30 12 1 11 13
M  V30 13 2 13 14
M  V30 14 1 14 15
M  V30 15 2 15 16
M  V30 16 1 16 17
M  V30 17 1 8 18
M  V30 18 1 2 19
M  V30 19 2 19 20
M  V30 20 1 20 21
M  V30 21 2 21 22
M  V30 22 1 22 23
M  V30 23 1 23 24
M  V30 24 2 24 25
M  V30 25 1 25 26
M  V30 26 2 26 27
M  V30 27 1 27 28
M  V30 28 2 28 29
M  V30 29 1 29 30
M  V30 30 2 30 31
M  V30 31 1 25 32
M  V30 32 2 32 33
M  V30 33 1 18 4
M  V30 34 1 33 19
M  V30 35 1 16 10
M  V30 36 1 32 22
M  V30 37 1 31 26
M  V30 38 1 3 34
M  V30 39 1 4 35 CFG=3
M  V30 40 1 5 36
M  V30 41 1 5 37
M  V30 42 1 6 38
M  V30 43 1 6 39
M  V30 44 1 7 40
M  V30 45 1 7 41
M  V30 46 1 9 42
M  V30 47 1 9 43
M  V30 48 1 13 44
M  V30 49 1 14 45
M  V30 50 1 15 46
M  V30 51 1 18 47
M  V30 52 1 18 48
M  V30 53 1 20 49
M  V30 54 1 21 50
M  V30 55 1 23 51
M  V30 56 1 27 52
M  V30 57 1 28 53
M  V30 58 1 30 54
M  V30 59 1 31 55
M  V30 60 1 33 56
M  V30 END BOND
M  V30 END CTAB
M  END
>  <Dataset>  (622) 
ChEMBL_Kinases

>  <Ligand_Instance>  (622) 
nan

>  <PDB_ID>  (622) 
nan

>  <Standardized_SMILES>  (622) 
O=C(N[C@@H]1CCCN(Cc2c(F)cccc2F)C1)c1ccc2[nH]nc(-c3ccncc3)c2c1

>  <Name>  (622) 
nan

>  <Pocket>  (622) 
nan

>  <ATP_Site>  (622) 
nan

>  <Peripheral>  (622) 
nan

>  <Num_H_Atoms_ProtBoundConf>  (622) 
nan

>  <Num_Resolved_Atoms>  (622) 
nan

>  <Num_Not_Resolved_Atoms>  (622) 
nan

$$$$
CHEMBL3654610
     RDKit          3D

  0  0  0  0  0  0  0  0  0  0999 V3000
M  V30 BEGIN CTAB
M  V30 COUNTS 64 68 0 0 0
M  V30 BEGIN ATOM
M  V30 1 C 2.312336 2.510915 4.628852 0
M  V30 2 O 2.583770 1.956527 3.379726 0
M  V30 3 C 3.615812 2.318618 2.528407 0
M  V30 4 C 4.468631 3.322915 2.938850 0
M  V30 5 C 5.538836 3.771526 2.173396 0
M  V30 6 C 5.769548 3.193024 0.943118 0
M  V30 7 C 4.920650 2.184804 0.520897 0
M  V30 8 F 5.167859 1.639350 -0.679103 0
M  V30 9 C 3.850659 1.731492 1.278401 0
M  V30 10 C 2.944302 0.660009 0.830692 0
M  V30 11 N 1.690849 1.026481 0.341350 0
M  V30 12 C 0.826690 -0.029421 -0.007611 0
M  V30 13 C -0.463482 0.091419 0.826215 0 CFG=2
M  V30 14 N -1.183107 -1.118791 0.645377 0
M  V30 15 C -1.439680 -2.056741 1.680137 0
M  V30 16 O -0.995358 -1.772185 2.795705 0
M  V30 17 C -2.184993 -3.287108 1.443647 0
M  V30 18 C -2.349351 -4.092396 2.575186 0
M  V30 19 C -3.043261 -5.286254 2.463061 0
M  V30 20 C -3.537376 -5.612046 1.221039 0
M  V30 21 N -4.240141 -6.673106 0.778973 0
M  V30 22 N -4.505786 -6.564977 -0.517156 0
M  V30 23 C -3.976375 -5.403803 -0.986274 0
M  V30 24 C -4.069390 -4.947286 -2.368741 0
M  V30 25 C -5.273368 -5.010898 -3.078589 0
M  V30 26 C -5.355461 -4.571617 -4.403436 0
M  V30 27 N -4.269308 -4.076775 -5.021881 0
M  V30 28 C -3.121976 -4.013347 -4.353411 0
M  V30 29 C -2.961631 -4.428513 -3.039936 0
M  V30 30 C -3.379914 -4.820730 0.092860 0
M  V30 31 C -2.687511 -3.642088 0.232784 0
M  V30 32 C -1.103397 1.343878 0.398146 0
M  V30 33 C -0.200979 2.507281 0.838674 0
M  V30 34 C 1.211545 2.327926 0.364901 0
M  V30 35 C 1.263420 2.914105 -1.056624 0
M  V30 36 O 2.549483 2.932122 -1.556400 0
M  V30 37 H 2.679177 1.874239 5.472984 0
M  V30 38 H 1.192132 2.490037 4.755168 0
M  V30 39 H 2.597375 3.552835 4.763405 0
M  V30 40 H 4.406453 3.866084 3.882041 0
M  V30 41 H 6.220395 4.555375 2.472035 0
M  V30 42 H 6.602259 3.534364 0.334996 0
M  V30 43 H 3.440211 0.015944 0.038034 0
M  V30 44 H 2.777932 -0.097796 1.660202 0
M  V30 45 H 0.519223 0.020989 -1.055168 0
M  V30 46 H 1.299314 -0.994289 0.271908 0
M  V30 47 H -0.102750 0.242045 1.881795 0
M  V30 48 H -1.524685 -1.283465 -0.331688 0
M  V30 49 H -1.951792 -3.822510 3.557077 0
M  V30 50 H -3.219033 -5.977866 3.296881 0
M  V30 51 H -4.538671 -7.480179 1.381531 0
M  V30 52 H -6.158665 -5.416470 -2.568367 0
M  V30 53 H -6.311779 -4.645266 -4.899462 0
M  V30 54 H -2.294587 -3.602195 -4.922429 0
M  V30 55 H -2.006499 -4.354642 -2.544056 0
M  V30 56 H -2.554283 -3.019504 -0.619008 0
M  V30 57 H -2.062627 1.588061 0.882908 0
M  V30 58 H -1.129773 1.392357 -0.708559 0
M  V30 59 H -0.300606 2.589357 1.937467 0
M  V30 60 H -0.642696 3.419103 0.390606 0
M  V30 61 H 1.856679 2.993486 0.962981 0
M  V30 62 H 0.897368 3.960509 -1.024510 0
M  V30 63 H 0.565436 2.362342 -1.723751 0
M  V30 64 H 2.582411 3.627365 -2.262539 0
M  V30 END ATOM
M  V30 BEGIN BOND
M  V30 1 1 1 2
M  V30 2 1 2 3
M  V30 3 2 3 4
M  V30 4 1 4 5
M  V30 5 2 5 6
M  V30 6 1 6 7
M  V30 7 1 7 8
M  V30 8 2 7 9
M  V30 9 1 9 10
M  V30 10 1 10 11
M  V30 11 1 11 12
M  V30 12 1 12 13
M  V30 13 1 13 14
M  V30 14 1 14 15
M  V30 15 2 15 16
M  V30 16 1 15 17
M  V30 17 2 17 18
M  V30 18 1 18 19
M  V30 19 2 19 20
M  V30 20 1 20 21
M  V30 21 1 21 22
M  V30 22 2 22 23
M  V30 23 1 23 24
M  V30 24 2 24 25
M  V30 25 1 25 26
M  V30 26 2 26 27
M  V30 27 1 27 28
M  V30 28 2 28 29
M  V30 29 1 23 30
M  V30 30 2 30 31
M  V30 31 1 13 32
M  V30 32 1 32 33
M  V30 33 1 33 34
M  V30 34 1 34 35
M  V30 35 1 35 36
M  V30 36 1 9 3
M  V30 37 1 34 11
M  V30 38 1 31 17
M  V30 39 1 30 20
M  V30 40 1 29 24
M  V30 41 1 1 37
M  V30 42 1 1 38
M  V30 43 1 1 39
M  V30 44 1 4 40
M  V30 45 1 5 41
M  V30 46 1 6 42
M  V30 47 1 10 43
M  V30 48 1 10 44
M  V30 49 1 12 45
M  V30 50 1 12 46
M  V30 51 1 13 47 CFG=1
M  V30 52 1 14 48
M  V30 53 1 18 49
M  V30 54 1 19 50
M  V30 55 1 21 51
M  V30 56 1 25 52
M  V30 57 1 26 53
M  V30 58 1 28 54
M  V30 59 1 29 55
M  V30 60 1 31 56
M  V30 61 1 32 57
M  V30 62 1 32 58
M  V30 63 1 33 59
M  V30 64 1 33 60
M  V30 65 1 34 61
M  V30 66 1 35 62
M  V30 67 1 35 63
M  V30 68 1 36 64
M  V30 END BOND
M  V30 END CTAB
M  END
>  <Dataset>  (623) 
ChEMBL_Kinases

>  <Ligand_Instance>  (623) 
nan

>  <PDB_ID>  (623) 
nan

>  <Standardized_SMILES>  (623) 
COc1cccc(F)c1CN1C[C@H](NC(=O)c2ccc3[nH]nc(-c4ccncc4)c3c2)CCC1CO

>  <Name>  (623) 
nan

>  <Pocket>  (623) 
nan

>  <ATP_Site>  (623) 
nan

>  <Peripheral>  (623) 
nan

>  <Num_H_Atoms_ProtBoundConf>  (623) 
nan

>  <Num_Resolved_Atoms>  (623) 
nan

>  <Num_Not_Resolved_Atoms>  (623) 
nan

$$$$
CHEMBL3654609
     RDKit          3D

  0  0  0  0  0  0  0  0  0  0999 V3000
M  V30 BEGIN CTAB
M  V30 COUNTS 66 71 0 0 0
M  V30 BEGIN ATOM
M  V30 1 C 5.118492 -2.484926 6.932647 0
M  V30 2 N 5.380888 -1.616488 5.799950 0
M  V30 3 C 4.762906 -1.772862 4.596161 0
M  V30 4 C 5.192674 -0.815245 3.693646 0
M  V30 5 C 4.896055 -0.530112 2.377905 0
M  V30 6 C 5.510634 0.534929 1.711886 0
M  V30 7 C 5.154679 0.787157 0.320366 0
M  V30 8 N 6.030164 1.046363 -0.690860 0
M  V30 9 N 5.367331 1.226478 -1.822160 0
M  V30 10 C 4.042401 1.102604 -1.644254 0
M  V30 11 C 2.899566 1.179087 -2.416133 0
M  V30 12 C 1.630897 0.985428 -1.868265 0
M  V30 13 C 1.480543 0.708951 -0.525079 0
M  V30 14 C 0.187588 0.489290 0.131895 0
M  V30 15 O 0.127157 0.248071 1.387167 0
M  V30 16 N -1.039311 0.524831 -0.540427 0
M  V30 17 C -2.295420 0.293218 0.189774 0 CFG=1
M  V30 18 C -3.229880 1.437038 0.092254 0
M  V30 19 C -4.501364 1.254063 -0.643041 0 CFG=1
M  V30 20 C -4.433781 1.910275 -2.026471 0
M  V30 21 F -3.418738 1.355416 -2.781518 0
M  V30 22 F -5.599669 1.779680 -2.721802 0
M  V30 23 F -4.163697 3.252042 -1.841726 0
M  V30 24 C -4.904614 -0.179347 -0.872698 0
M  V30 25 N -3.743533 -0.864387 -1.388179 0
M  V30 26 C -3.988422 -1.999081 -2.188931 0
M  V30 27 C -4.755822 -3.095194 -1.601094 0
M  V30 28 C -4.341949 -4.073436 -0.726731 0
M  V30 29 F -3.043318 -4.066524 -0.355276 0
M  V30 30 C -5.124132 -5.073981 -0.198856 0
M  V30 31 C -6.436882 -5.135284 -0.551379 0
M  V30 32 C -6.947354 -4.202333 -1.421310 0
M  V30 33 C -6.115666 -3.221534 -1.918709 0
M  V30 34 F -6.748520 -2.356687 -2.775002 0
M  V30 35 C -2.828300 -1.030401 -0.320513 0
M  V30 36 C 2.629331 0.631143 0.255556 0
M  V30 37 C 3.901059 0.823355 -0.284299 0
M  V30 38 C 6.425358 1.286482 2.428025 0
M  V30 39 C 6.710193 0.983816 3.750475 0
M  V30 40 C 6.109534 -0.064377 4.416514 0
M  V30 41 N 6.172355 -0.591511 5.651845 0
M  V30 42 H 4.286405 -2.038096 7.515405 0
M  V30 43 H 6.042428 -2.581317 7.516191 0
M  V30 44 H 4.803882 -3.501620 6.598640 0
M  V30 45 H 4.024852 -2.544997 4.357959 0
M  V30 46 H 4.171075 -1.187761 1.933221 0
M  V30 47 H 5.798930 1.442712 -2.766941 0
M  V30 48 H 3.014769 1.396381 -3.473751 0
M  V30 49 H 0.732307 1.043484 -2.464914 0
M  V30 50 H -1.080602 0.715152 -1.564540 0
M  V30 51 H -2.073854 0.118631 1.274732 0
M  V30 52 H -3.477971 1.868971 1.105918 0
M  V30 53 H -2.667115 2.272268 -0.404573 0
M  V30 54 H -5.358732 1.747578 -0.130572 0
M  V30 55 H -5.728123 -0.145572 -1.617735 0
M  V30 56 H -5.270574 -0.668896 0.052690 0
M  V30 57 H -4.515867 -1.693075 -3.142088 0
M  V30 58 H -3.009304 -2.395387 -2.548511 0
M  V30 59 H -4.708579 -5.799037 0.482458 0
M  V30 60 H -7.051815 -5.913899 -0.142694 0
M  V30 61 H -7.980368 -4.288976 -1.669829 0
M  V30 62 H -3.329766 -1.566579 0.533048 0
M  V30 63 H -1.978932 -1.643524 -0.632549 0
M  V30 64 H 2.511041 0.416461 1.304470 0
M  V30 65 H 6.890972 2.107541 1.894939 0
M  V30 66 H 7.442290 1.599252 4.294910 0
M  V30 END ATOM
M  V30 BEGIN BOND
M  V30 1 1 1 2
M  V30 2 1 2 3
M  V30 3 2 3 4
M  V30 4 1 4 5
M  V30 5 2 5 6
M  V30 6 1 6 7
M  V30 7 2 7 8
M  V30 8 1 8 9
M  V30 9 1 9 10
M  V30 10 2 10 11
M  V30 11 1 11 12
M  V30 12 2 12 13
M  V30 13 1 13 14
M  V30 14 2 14 15
M  V30 15 1 14 16
M  V30 16 1 16 17
M  V30 17 1 17 18
M  V30 18 1 18 19
M  V30 19 1 19 20
M  V30 20 1 20 21
M  V30 21 1 20 22
M  V30 22 1 20 23
M  V30 23 1 19 24
M  V30 24 1 24 25
M  V30 25 1 25 26
M  V30 26 1 26 27
M  V30 27 2 27 28
M  V30 28 1 28 29
M  V30 29 1 28 30
M  V30 30 2 30 31
M  V30 31 1 31 32
M  V30 32 2 32 33
M  V30 33 1 33 34
M  V30 34 1 25 35
M  V30 35 1 13 36
M  V30 36 2 36 37
M  V30 37 1 6 38
M  V30 38 2 38 39
M  V30 39 1 39 40
M  V30 40 2 40 41
M  V30 41 1 41 2
M  V30 42 1 40 4
M  V30 43 1 37 7
M  V30 44 1 37 10
M  V30 45 1 35 17
M  V30 46 1 33 27
M  V30 47 1 1 42
M  V30 48 1 1 43
M  V30 49 1 1 44
M  V30 50 1 3 45
M  V30 51 1 5 46
M  V30 52 1 9 47
M  V30 53 1 11 48
M  V30 54 1 12 49
M  V30 55 1 16 50
M  V30 56 1 17 51 CFG=1
M  V30 57 1 18 52
M  V30 58 1 18 53
M  V30 59 1 19 54 CFG=1
M  V30 60 1 24 55
M  V30 61 1 24 56
M  V30 62 1 26 57
M  V30 63 1 26 58
M  V30 64 1 30 59
M  V30 65 1 31 60
M  V30 66 1 32 61
M  V30 67 1 35 62
M  V30 68 1 35 63
M  V30 69 1 36 64
M  V30 70 1 38 65
M  V30 71 1 39 66
M  V30 END BOND
M  V30 END CTAB
M  END
>  <Dataset>  (624) 
ChEMBL_Kinases

>  <Ligand_Instance>  (624) 
nan

>  <PDB_ID>  (624) 
nan

>  <Standardized_SMILES>  (624) 
Cn1cc2cc(-c3n[nH]c4ccc(C(=O)N[C@H]5C[C@@H](C(F)(F)F)CN(Cc6c(F)cccc6F)C5)cc34)ccc2n1

>  <Name>  (624) 
nan

>  <Pocket>  (624) 
nan

>  <ATP_Site>  (624) 
nan

>  <Peripheral>  (624) 
nan

>  <Num_H_Atoms_ProtBoundConf>  (624) 
nan

>  <Num_Resolved_Atoms>  (624) 
nan

>  <Num_Not_Resolved_Atoms>  (624) 
nan

$$$$
CHEMBL3654591
     RDKit          3D

  0  0  0  0  0  0  0  0  0  0999 V3000
M  V30 BEGIN CTAB
M  V30 COUNTS 66 70 0 0 0
M  V30 BEGIN ATOM
M  V30 1 C 2.701085 -0.925916 5.208174 0
M  V30 2 O 2.921309 -0.067991 4.083708 0
M  V30 3 C 4.024952 -0.365600 3.273843 0
M  V30 4 C 4.873110 -1.444290 3.543939 0
M  V30 5 C 5.955263 -1.728304 2.741388 0
M  V30 6 C 6.243194 -0.958531 1.639982 0
M  V30 7 C 5.377485 0.091840 1.417230 0
M  V30 8 C 4.266256 0.446557 2.175084 0
M  V30 9 C 3.430077 1.605786 1.807453 0
M  V30 10 C 2.144045 1.139319 1.170865 0
M  V30 11 N 1.276878 2.267174 0.785202 0
M  V30 12 C 1.889879 2.963388 -0.271907 0
M  V30 13 C 1.097596 3.597401 -1.323789 0
M  V30 14 C -0.383589 3.585523 -1.228086 0
M  V30 15 C -0.951305 2.241539 -1.627271 0
M  V30 16 C -0.170047 1.187157 -0.876292 0
M  V30 17 N -0.833691 -0.099907 -0.899476 0
M  V30 18 C -0.307237 -1.355469 -1.303092 0
M  V30 19 O 0.891849 -1.505360 -1.721457 0
M  V30 20 C -1.107042 -2.573373 -1.266857 0
M  V30 21 C -0.536892 -3.763594 -1.665366 0
M  V30 22 C -1.221762 -4.983874 -1.664230 0
M  V30 23 C -2.547499 -4.999000 -1.238685 0
M  V30 24 N -3.494247 -5.941373 -1.102091 0
M  V30 25 N -4.612850 -5.425554 -0.648120 0
M  V30 26 C -4.458481 -4.084015 -0.456943 0
M  V30 27 C -5.476607 -3.161099 0.038598 0
M  V30 28 C -5.312921 -2.176507 0.991156 0
M  V30 29 C -6.426800 -1.417710 1.306320 0
M  V30 30 N -7.610637 -1.636874 0.707022 0
M  V30 31 C -7.803423 -2.573039 -0.211369 0
M  V30 32 C -6.706499 -3.364203 -0.562046 0
M  V30 33 C -3.139804 -3.818669 -0.835036 0
M  V30 34 C -2.420649 -2.638539 -0.855045 0
M  V30 35 C -0.023328 1.708481 0.542534 0
M  V30 36 H 3.633469 -0.904655 5.825451 0
M  V30 37 H 1.831297 -0.552033 5.783440 0
M  V30 38 H 2.572595 -1.994176 4.894841 0
M  V30 39 H 4.646469 -2.061114 4.422647 0
M  V30 40 H 6.620287 -2.567141 2.945970 0
M  V30 41 H 7.061129 -1.097597 0.953139 0
M  V30 42 H 5.565119 0.736324 0.548567 0
M  V30 43 H 3.255556 2.266276 2.657761 0
M  V30 44 H 3.968173 2.176431 1.022476 0
M  V30 45 H 1.621938 0.440194 1.859362 0
M  V30 46 H 2.334698 0.558745 0.243606 0
M  V30 47 H 2.567015 3.730512 0.214434 0
M  V30 48 H 2.642213 2.284303 -0.770809 0
M  V30 49 H 1.333677 3.188843 -2.350290 0
M  V30 50 H 1.384180 4.686140 -1.443896 0
M  V30 51 H -0.813544 4.009099 -0.309959 0
M  V30 52 H -0.752390 4.282809 -2.042378 0
M  V30 53 H -2.006847 2.142580 -1.316731 0
M  V30 54 H -0.793414 2.066083 -2.705623 0
M  V30 55 H 0.874241 1.064337 -1.246786 0
M  V30 56 H -1.816303 -0.002503 -0.562255 0
M  V30 57 H 0.494161 -3.844943 -2.012684 0
M  V30 58 H -0.750268 -5.903614 -1.981392 0
M  V30 59 H -3.249811 -6.927096 -1.357403 0
M  V30 60 H -4.316550 -2.093673 1.403455 0
M  V30 61 H -6.275351 -0.648488 2.056649 0
M  V30 62 H -8.772904 -2.736166 -0.686450 0
M  V30 63 H -6.919384 -4.122426 -1.324550 0
M  V30 64 H -2.901702 -1.724363 -0.534967 0
M  V30 65 H -0.155936 0.796944 1.201715 0
M  V30 66 H -0.872696 2.350694 0.854562 0
M  V30 END ATOM
M  V30 BEGIN BOND
M  V30 1 1 1 2
M  V30 2 1 2 3
M  V30 3 2 3 4
M  V30 4 1 4 5
M  V30 5 2 5 6
M  V30 6 1 6 7
M  V30 7 2 7 8
M  V30 8 1 8 9
M  V30 9 1 9 10
M  V30 10 1 10 11
M  V30 11 1 11 12
M  V30 12 1 12 13
M  V30 13 1 13 14
M  V30 14 1 14 15
M  V30 15 1 15 16
M  V30 16 1 16 17
M  V30 17 1 17 18
M  V30 18 2 18 19
M  V30 19 1 18 20
M  V30 20 2 20 21
M  V30 21 1 21 22
M  V30 22 2 22 23
M  V30 23 1 23 24
M  V30 24 1 24 25
M  V30 25 2 25 26
M  V30 26 1 26 27
M  V30 27 2 27 28
M  V30 28 1 28 29
M  V30 29 2 29 30
M  V30 30 1 30 31
M  V30 31 2 31 32
M  V30 32 1 26 33
M  V30 33 2 33 34
M  V30 34 1 16 35
M  V30 35 1 8 3
M  V30 36 1 35 11
M  V30 37 1 34 20
M  V30 38 1 33 23
M  V30 39 1 32 27
M  V30 40 1 1 36
M  V30 41 1 1 37
M  V30 42 1 1 38
M  V30 43 1 4 39
M  V30 44 1 5 40
M  V30 45 1 6 41
M  V30 46 1 7 42
M  V30 47 1 9 43
M  V30 48 1 9 44
M  V30 49 1 10 45
M  V30 50 1 10 46
M  V30 51 1 12 47
M  V30 52 1 12 48
M  V30 53 1 13 49
M  V30 54 1 13 50
M  V30 55 1 14 51
M  V30 56 1 14 52
M  V30 57 1 15 53
M  V30 58 1 15 54
M  V30 59 1 16 55
M  V30 60 1 17 56
M  V30 61 1 21 57
M  V30 62 1 22 58
M  V30 63 1 24 59
M  V30 64 1 28 60
M  V30 65 1 29 61
M  V30 66 1 31 62
M  V30 67 1 32 63
M  V30 68 1 34 64
M  V30 69 1 35 65
M  V30 70 1 35 66
M  V30 END BOND
M  V30 END CTAB
M  END
>  <Dataset>  (625) 
ChEMBL_Kinases

>  <Ligand_Instance>  (625) 
nan

>  <PDB_ID>  (625) 
nan

>  <Standardized_SMILES>  (625) 
COc1ccccc1CCN1CCCCC(NC(=O)c2ccc3[nH]nc(-c4ccncc4)c3c2)C1

>  <Name>  (625) 
nan

>  <Pocket>  (625) 
nan

>  <ATP_Site>  (625) 
nan

>  <Peripheral>  (625) 
nan

>  <Num_H_Atoms_ProtBoundConf>  (625) 
nan

>  <Num_Resolved_Atoms>  (625) 
nan

>  <Num_Not_Resolved_Atoms>  (625) 
nan

$$$$
CHEMBL3654592
     RDKit          3D

  0  0  0  0  0  0  0  0  0  0999 V3000
M  V30 BEGIN CTAB
M  V30 COUNTS 73 78 0 0 0
M  V30 BEGIN ATOM
M  V30 1 O 0.299395 0.322411 -0.322797 0
M  V30 2 C -0.607486 -0.000678 -1.140667 0
M  V30 3 N -0.710378 -1.373823 -1.435581 0
M  V30 4 C 0.080530 -2.466809 -0.927648 0 CFG=2
M  V30 5 C 0.903472 -3.033246 -2.072418 0
M  V30 6 C 1.798443 -4.107623 -1.528716 0
M  V30 7 C 1.535886 -4.526288 -0.145699 0 CFG=1
M  V30 8 C 2.478324 -3.859545 0.825556 0
M  V30 9 O 3.688334 -3.781273 0.491471 0
M  V30 10 N 1.979318 -3.351318 2.061921 0
M  V30 11 C 2.794793 -2.691269 3.062544 0
M  V30 12 C 3.107394 -1.292366 2.677554 0
M  V30 13 C 2.129350 -0.410956 3.146662 0
M  V30 14 C 2.270751 0.946945 2.870442 0
M  V30 15 C 3.350998 1.441533 2.146259 0
M  V30 16 C 4.261930 0.518190 1.723692 0
M  V30 17 C 4.185422 -0.840291 1.960846 0
M  V30 18 N 0.228099 -4.445871 0.366660 0
M  V30 19 C -0.349822 -5.645438 0.882637 0
M  V30 20 C -1.725235 -5.342608 1.388813 0
M  V30 21 C -1.838109 -4.946161 2.724829 0
M  V30 22 C -3.019900 -4.636183 3.335793 0
M  V30 23 C -4.176754 -4.717777 2.592499 0
M  V30 24 C -4.104346 -5.101953 1.283052 0
M  V30 25 C -2.909919 -5.408591 0.689323 0
M  V30 26 C -0.686617 -3.613040 -0.368390 0
M  V30 27 C -1.497018 0.986435 -1.745977 0
M  V30 28 C -2.533885 0.704479 -2.611044 0
M  V30 29 C -3.328998 1.700015 -3.142620 0
M  V30 30 C -3.083494 3.014353 -2.802432 0
M  V30 31 N -3.671119 4.194354 -3.148054 0
M  V30 32 N -3.039205 5.205206 -2.530396 0
M  V30 33 C -2.032489 4.702959 -1.774416 0
M  V30 34 C -1.113441 5.507614 -0.949779 0
M  V30 35 C -0.593299 6.659672 -1.550047 0
M  V30 36 C 0.276586 7.447855 -0.813582 0
M  V30 37 N 0.600372 7.103024 0.435995 0
M  V30 38 C 0.121339 5.999367 1.053973 0
M  V30 39 C -0.745721 5.191931 0.353514 0
M  V30 40 C -2.058772 3.316527 -1.945069 0
M  V30 41 C -1.280143 2.332997 -1.425246 0
M  V30 42 H -1.433758 -1.749021 -2.107892 0
M  V30 43 H 0.828600 -2.141973 -0.176085 0
M  V30 44 H 1.462502 -2.247103 -2.610338 0
M  V30 45 H 0.184377 -3.470577 -2.795159 0
M  V30 46 H 2.843116 -3.740922 -1.613450 0
M  V30 47 H 1.765154 -4.979843 -2.239693 0
M  V30 48 H 1.832776 -5.616086 -0.077790 0
M  V30 49 H 0.964252 -3.450313 2.281706 0
M  V30 50 H 3.772401 -3.225469 3.065756 0
M  V30 51 H 2.364143 -2.782552 4.076112 0
M  V30 52 H 1.250197 -0.672092 3.716842 0
M  V30 53 H 1.531904 1.665892 3.217518 0
M  V30 54 H 3.475858 2.486218 1.923855 0
M  V30 55 H 5.124575 0.865272 1.152203 0
M  V30 56 H 4.885751 -1.595855 1.642919 0
M  V30 57 H 0.222829 -6.064113 1.728168 0
M  V30 58 H -0.475661 -6.457303 0.112188 0
M  V30 59 H -0.949456 -4.871575 3.337563 0
M  V30 60 H -3.056550 -4.331453 4.382615 0
M  V30 61 H -5.149630 -4.492903 2.991346 0
M  V30 62 H -4.995202 -5.174044 0.677332 0
M  V30 63 H -2.817197 -5.717094 -0.342355 0
M  V30 64 H -1.101489 -4.283915 -1.179272 0
M  V30 65 H -1.525635 -3.367968 0.284657 0
M  V30 66 H -2.696945 -0.334557 -2.854792 0
M  V30 67 H -4.126559 1.426401 -3.814115 0
M  V30 68 H -4.496304 4.259742 -3.804911 0
M  V30 69 H -0.871950 6.906146 -2.548102 0
M  V30 70 H 0.701811 8.356121 -1.252852 0
M  V30 71 H 0.388417 5.728919 2.063221 0
M  V30 72 H -1.173382 4.288060 0.780976 0
M  V30 73 H -0.472796 2.575575 -0.748502 0
M  V30 END ATOM
M  V30 BEGIN BOND
M  V30 1 2 1 2
M  V30 2 1 2 3
M  V30 3 1 3 4
M  V30 4 1 4 5
M  V30 5 1 5 6
M  V30 6 1 6 7
M  V30 7 1 7 8
M  V30 8 2 8 9
M  V30 9 1 8 10
M  V30 10 1 10 11
M  V30 11 1 11 12
M  V30 12 2 12 13
M  V30 13 1 13 14
M  V30 14 2 14 15
M  V30 15 1 15 16
M  V30 16 2 16 17
M  V30 17 1 7 18
M  V30 18 1 18 19
M  V30 19 1 19 20
M  V30 20 2 20 21
M  V30 21 1 21 22
M  V30 22 2 22 23
M  V30 23 1 23 24
M  V30 24 2 24 25
M  V30 25 1 18 26
M  V30 26 1 2 27
M  V30 27 2 27 28
M  V30 28 1 28 29
M  V30 29 2 29 30
M  V30 30 1 30 31
M  V30 31 1 31 32
M  V30 32 2 32 33
M  V30 33 1 33 34
M  V30 34 2 34 35
M  V30 35 1 35 36
M  V30 36 2 36 37
M  V30 37 1 37 38
M  V30 38 2 38 39
M  V30 39 1 33 40
M  V30 40 2 40 41
M  V30 41 1 26 4
M  V30 42 1 41 27
M  V30 43 1 17 12
M  V30 44 1 25 20
M  V30 45 1 40 30
M  V30 46 1 39 34
M  V30 47 1 3 42
M  V30 48 1 4 43 CFG=1
M  V30 49 1 5 44
M  V30 50 1 5 45
M  V30 51 1 6 46
M  V30 52 1 6 47
M  V30 53 1 7 48 CFG=3
M  V30 54 1 10 49
M  V30 55 1 11 50
M  V30 56 1 11 51
M  V30 57 1 13 52
M  V30 58 1 14 53
M  V30 59 1 15 54
M  V30 60 1 16 55
M  V30 61 1 17 56
M  V30 62 1 19 57
M  V30 63 1 19 58
M  V30 64 1 21 59
M  V30 65 1 22 60
M  V30 66 1 23 61
M  V30 67 1 24 62
M  V30 68 1 25 63
M  V30 69 1 26 64
M  V30 70 1 26 65
M  V30 71 1 28 66
M  V30 72 1 29 67
M  V30 73 1 31 68
M  V30 74 1 35 69
M  V30 75 1 36 70
M  V30 76 1 38 71
M  V30 77 1 39 72
M  V30 78 1 41 73
M  V30 END BOND
M  V30 END CTAB
M  END
>  <Dataset>  (626) 
ChEMBL_Kinases

>  <Ligand_Instance>  (626) 
nan

>  <PDB_ID>  (626) 
nan

>  <Standardized_SMILES>  (626) 
O=C(N[C@@H]1CC[C@@H](C(=O)NCc2ccccc2)N(Cc2ccccc2)C1)c1ccc2[nH]nc(-c3ccncc3)c2c1

>  <Name>  (626) 
nan

>  <Pocket>  (626) 
nan

>  <ATP_Site>  (626) 
nan

>  <Peripheral>  (626) 
nan

>  <Num_H_Atoms_ProtBoundConf>  (626) 
nan

>  <Num_Resolved_Atoms>  (626) 
nan

>  <Num_Not_Resolved_Atoms>  (626) 
nan

$$$$
CHEMBL3654593
     RDKit          3D

  0  0  0  0  0  0  0  0  0  0999 V3000
M  V30 BEGIN CTAB
M  V30 COUNTS 66 70 0 0 0
M  V30 BEGIN ATOM
M  V30 1 C 4.996150 -0.758164 6.252741 0
M  V30 2 C 4.040261 -1.872977 5.955007 0
M  V30 3 N 2.785647 -1.369936 5.399208 0
M  V30 4 C 2.777245 -0.639451 4.195695 0
M  V30 5 O 3.942913 -0.507447 3.722390 0
M  V30 6 C 1.442759 -0.178673 3.727787 0 CFG=2
M  V30 7 C 0.567113 -1.389548 3.569624 0
M  V30 8 C 1.158396 -2.236174 2.463855 0
M  V30 9 C 1.127375 -1.441182 1.178593 0 CFG=1
M  V30 10 N -0.231527 -1.203695 0.809168 0
M  V30 11 C -0.773122 -1.691829 -0.410358 0
M  V30 12 O 0.054065 -2.348770 -1.128987 0
M  V30 13 C -2.153507 -1.472731 -0.825668 0
M  V30 14 C -3.107514 -0.782180 -0.107874 0
M  V30 15 C -4.398652 -0.611953 -0.560789 0
M  V30 16 C -4.790999 -1.138000 -1.775188 0
M  V30 17 N -5.956755 -1.131482 -2.457813 0
M  V30 18 N -5.789018 -1.802377 -3.607892 0
M  V30 19 C -4.527344 -2.223357 -3.640275 0
M  V30 20 C -3.964471 -2.999811 -4.751660 0
M  V30 21 C -4.298349 -2.510601 -6.010517 0
M  V30 22 C -3.862936 -3.105901 -7.180819 0
M  V30 23 N -3.086675 -4.201307 -7.022765 0
M  V30 24 C -2.746307 -4.698854 -5.820233 0
M  V30 25 C -3.179159 -4.107319 -4.640863 0
M  V30 26 C -3.838776 -1.832428 -2.501362 0
M  V30 27 C -2.544745 -1.998698 -2.039283 0
M  V30 28 C 1.946563 -0.190277 1.391446 0
M  V30 29 N 1.467283 0.560898 2.507297 0
M  V30 30 C 2.015738 1.873449 2.635202 0
M  V30 31 C 1.733314 2.711048 1.444978 0
M  V30 32 C 0.549756 3.445075 1.407225 0
M  V30 33 C 0.248131 4.244117 0.318124 0
M  V30 34 C 1.100246 4.345154 -0.764971 0
M  V30 35 C 2.277662 3.622590 -0.740684 0
M  V30 36 C 2.564806 2.830697 0.351218 0
M  V30 37 H 5.960990 -0.936542 5.762420 0
M  V30 38 H 5.127652 -0.691163 7.361458 0
M  V30 39 H 4.591790 0.208825 5.847696 0
M  V30 40 H 3.856960 -2.480178 6.857374 0
M  V30 41 H 4.469833 -2.504391 5.132271 0
M  V30 42 H 1.895967 -1.580256 5.941591 0
M  V30 43 H 1.068779 0.503010 4.539007 0
M  V30 44 H 0.518975 -2.001715 4.500659 0
M  V30 45 H -0.466170 -1.104657 3.348891 0
M  V30 46 H 2.178883 -2.556355 2.729468 0
M  V30 47 H 0.501772 -3.145586 2.361999 0
M  V30 48 H 1.646985 -2.038883 0.371208 0
M  V30 49 H -0.884927 -0.662947 1.413744 0
M  V30 50 H -2.815452 -0.371489 0.831378 0
M  V30 51 H -5.096756 -0.062425 0.046901 0
M  V30 52 H -6.855948 -0.682103 -2.156545 0
M  V30 53 H -4.924809 -1.626206 -6.159629 0
M  V30 54 H -4.131384 -2.713052 -8.153094 0
M  V30 55 H -2.120776 -5.580993 -5.726179 0
M  V30 56 H -2.954418 -4.438595 -3.647467 0
M  V30 57 H -1.837643 -2.546088 -2.637591 0
M  V30 58 H 1.989962 0.438472 0.479797 0
M  V30 59 H 2.985991 -0.508034 1.591847 0
M  V30 60 H 3.124264 1.862975 2.792690 0
M  V30 61 H 1.579550 2.322454 3.559391 0
M  V30 62 H -0.153662 3.406132 2.222813 0
M  V30 63 H -0.661630 4.838493 0.235603 0
M  V30 64 H 0.931991 4.947821 -1.649967 0
M  V30 65 H 2.993285 3.659217 -1.565477 0
M  V30 66 H 3.491159 2.282049 0.343421 0
M  V30 END ATOM
M  V30 BEGIN BOND
M  V30 1 1 1 2
M  V30 2 1 2 3
M  V30 3 1 3 4
M  V30 4 2 4 5
M  V30 5 1 4 6
M  V30 6 1 6 7
M  V30 7 1 7 8
M  V30 8 1 8 9
M  V30 9 1 9 10
M  V30 10 1 10 11
M  V30 11 2 11 12
M  V30 12 1 11 13
M  V30 13 2 13 14
M  V30 14 1 14 15
M  V30 15 2 15 16
M  V30 16 1 16 17
M  V30 17 1 17 18
M  V30 18 2 18 19
M  V30 19 1 19 20
M  V30 20 2 20 21
M  V30 21 1 21 22
M  V30 22 2 22 23
M  V30 23 1 23 24
M  V30 24 2 24 25
M  V30 25 1 19 26
M  V30 26 2 26 27
M  V30 27 1 9 28
M  V30 28 1 28 29
M  V30 29 1 29 30
M  V30 30 1 30 31
M  V30 31 2 31 32
M  V30 32 1 32 33
M  V30 33 2 33 34
M  V30 34 1 34 35
M  V30 35 2 35 36
M  V30 36 1 29 6
M  V30 37 1 36 31
M  V30 38 1 27 13
M  V30 39 1 26 16
M  V30 40 1 25 20
M  V30 41 1 1 37
M  V30 42 1 1 38
M  V30 43 1 1 39
M  V30 44 1 2 40
M  V30 45 1 2 41
M  V30 46 1 3 42
M  V30 47 1 6 43 CFG=1
M  V30 48 1 7 44
M  V30 49 1 7 45
M  V30 50 1 8 46
M  V30 51 1 8 47
M  V30 52 1 9 48 CFG=3
M  V30 53 1 10 49
M  V30 54 1 14 50
M  V30 55 1 15 51
M  V30 56 1 17 52
M  V30 57 1 21 53
M  V30 58 1 22 54
M  V30 59 1 24 55
M  V30 60 1 25 56
M  V30 61 1 27 57
M  V30 62 1 28 58
M  V30 63 1 28 59
M  V30 64 1 30 60
M  V30 65 1 30 61
M  V30 66 1 32 62
M  V30 67 1 33 63
M  V30 68 1 34 64
M  V30 69 1 35 65
M  V30 70 1 36 66
M  V30 END BOND
M  V30 END CTAB
M  END
>  <Dataset>  (627) 
ChEMBL_Kinases

>  <Ligand_Instance>  (627) 
nan

>  <PDB_ID>  (627) 
nan

>  <Standardized_SMILES>  (627) 
CCNC(=O)[C@@H]1CC[C@@H](NC(=O)c2ccc3[nH]nc(-c4ccncc4)c3c2)CN1Cc1ccccc1

>  <Name>  (627) 
nan

>  <Pocket>  (627) 
nan

>  <ATP_Site>  (627) 
nan

>  <Peripheral>  (627) 
nan

>  <Num_H_Atoms_ProtBoundConf>  (627) 
nan

>  <Num_Resolved_Atoms>  (627) 
nan

>  <Num_Not_Resolved_Atoms>  (627) 
nan

$$$$
CHEMBL3654594
     RDKit          3D

  0  0  0  0  0  0  0  0  0  0999 V3000
M  V30 BEGIN CTAB
M  V30 COUNTS 81 85 0 0 0
M  V30 BEGIN ATOM
M  V30 1 C -0.666037 -4.798460 1.556278 0
M  V30 2 C 0.470996 -5.231748 0.698771 0
M  V30 3 C -0.083912 -5.828034 -0.586601 0
M  V30 4 C 1.555484 -4.259206 0.462561 0
M  V30 5 N 1.195920 -3.023487 -0.161430 0
M  V30 6 C 1.661678 -2.284084 -1.300419 0
M  V30 7 O 2.614532 -3.004114 -1.758634 0
M  V30 8 C 0.844875 -1.025906 -1.439692 0 CFG=2
M  V30 9 C -0.606303 -1.370069 -1.664892 0
M  V30 10 C -1.237221 -0.346578 -2.547712 0
M  V30 11 C -0.762373 1.057456 -2.249967 0 CFG=1
M  V30 12 N -1.345542 1.511570 -1.008912 0
M  V30 13 C -2.189322 2.633166 -0.791351 0
M  V30 14 O -2.449206 3.307520 -1.803836 0
M  V30 15 C -2.745585 3.029496 0.491862 0
M  V30 16 C -3.478009 4.230629 0.474798 0
M  V30 17 C -4.071900 4.708644 1.648657 0
M  V30 18 C -3.898588 3.954139 2.780505 0
M  V30 19 N -4.336357 4.131798 4.060042 0
M  V30 20 N -3.945527 3.156915 4.866112 0
M  V30 21 C -3.218048 2.281357 4.129808 0
M  V30 22 C -2.622526 1.079726 4.656024 0
M  V30 23 C -3.487816 0.370205 5.479503 0
M  V30 24 C -3.064789 -0.826031 6.076980 0
M  V30 25 N -1.839330 -1.339620 5.894245 0
M  V30 26 C -0.982104 -0.648586 5.086953 0
M  V30 27 C -1.380311 0.521738 4.495836 0
M  V30 28 C -3.177510 2.757695 2.833953 0
M  V30 29 C -2.600294 2.305161 1.664803 0
M  V30 30 C 0.749467 1.150210 -2.282039 0
M  V30 31 N 1.378297 -0.118250 -2.385124 0
M  V30 32 C 1.784337 -0.583292 -3.646202 0
M  V30 33 C 2.791170 0.363324 -4.240732 0
M  V30 34 C 2.406361 1.403492 -5.060287 0
M  V30 35 C 3.335149 2.292880 -5.610981 0
M  V30 36 C 4.673263 2.120598 -5.323361 0
M  V30 37 C 5.103237 1.085674 -4.502985 0
M  V30 38 C 4.146844 0.241628 -3.989467 0
M  V30 39 C 2.397814 -4.027517 1.691885 0
M  V30 40 C 3.490228 -3.016628 1.315749 0
M  V30 41 C 1.671496 -3.544274 2.896143 0
M  V30 42 H -0.528447 -5.028959 2.652252 0
M  V30 43 H -1.546691 -5.472508 1.291232 0
M  V30 44 H -1.057700 -3.788902 1.373104 0
M  V30 45 H 0.927585 -6.127568 1.231029 0
M  V30 46 H -0.801542 -6.649503 -0.295040 0
M  V30 47 H -0.701199 -5.088571 -1.135844 0
M  V30 48 H 0.690501 -6.325661 -1.201541 0
M  V30 49 H 2.285959 -4.746513 -0.279280 0
M  V30 50 H 0.410210 -2.731458 0.500307 0
M  V30 51 H 0.919118 -0.513096 -0.436320 0
M  V30 52 H -0.730611 -2.393905 -2.075110 0
M  V30 53 H -1.096300 -1.421529 -0.653055 0
M  V30 54 H -1.243808 -0.577640 -3.623916 0
M  V30 55 H -2.334633 -0.336542 -2.262229 0
M  V30 56 H -1.124068 1.717346 -3.058978 0
M  V30 57 H -1.100232 0.919529 -0.170138 0
M  V30 58 H -3.623284 4.836032 -0.400669 0
M  V30 59 H -4.633004 5.627854 1.644697 0
M  V30 60 H -4.928259 4.968506 4.354123 0
M  V30 61 H -4.514191 0.664356 5.722653 0
M  V30 62 H -3.738125 -1.384750 6.726599 0
M  V30 63 H 0.011748 -1.007027 4.908323 0
M  V30 64 H -0.746068 1.130335 3.832792 0
M  V30 65 H -2.035902 1.383863 1.667382 0
M  V30 66 H 1.131746 1.928261 -2.973951 0
M  V30 67 H 1.018533 1.552224 -1.258037 0
M  V30 68 H 2.212326 -1.606567 -3.570626 0
M  V30 69 H 0.995711 -0.669646 -4.429845 0
M  V30 70 H 1.370684 1.569301 -5.316874 0
M  V30 71 H 3.018443 3.096342 -6.247793 0
M  V30 72 H 5.391815 2.820811 -5.754602 0
M  V30 73 H 6.158318 0.985740 -4.305445 0
M  V30 74 H 4.442557 -0.577567 -3.345597 0
M  V30 75 H 2.908344 -4.982911 1.930239 0
M  V30 76 H 2.942193 -2.155159 0.888360 0
M  V30 77 H 4.040299 -2.781084 2.227252 0
M  V30 78 H 4.094440 -3.498309 0.519021 0
M  V30 79 H 2.361427 -2.827743 3.443152 0
M  V30 80 H 1.494096 -4.339105 3.665087 0
M  V30 81 H 0.735957 -3.014350 2.741615 0
M  V30 END ATOM
M  V30 BEGIN BOND
M  V30 1 1 1 2
M  V30 2 1 2 3
M  V30 3 1 2 4
M  V30 4 1 4 5
M  V30 5 1 5 6
M  V30 6 2 6 7
M  V30 7 1 6 8
M  V30 8 1 8 9
M  V30 9 1 9 10
M  V30 10 1 10 11
M  V30 11 1 11 12
M  V30 12 1 12 13
M  V30 13 2 13 14
M  V30 14 1 13 15
M  V30 15 2 15 16
M  V30 16 1 16 17
M  V30 17 2 17 18
M  V30 18 1 18 19
M  V30 19 1 19 20
M  V30 20 2 20 21
M  V30 21 1 21 22
M  V30 22 2 22 23
M  V30 23 1 23 24
M  V30 24 2 24 25
M  V30 25 1 25 26
M  V30 26 2 26 27
M  V30 27 1 21 28
M  V30 28 2 28 29
M  V30 29 1 11 30
M  V30 30 1 30 31
M  V30 31 1 31 32
M  V30 32 1 32 33
M  V30 33 2 33 34
M  V30 34 1 34 35
M  V30 35 2 35 36
M  V30 36 1 36 37
M  V30 37 2 37 38
M  V30 38 1 4 39
M  V30 39 1 39 40
M  V30 40 1 39 41
M  V30 41 1 31 8
M  V30 42 1 38 33
M  V30 43 1 29 15
M  V30 44 1 28 18
M  V30 45 1 27 22
M  V30 46 1 1 42
M  V30 47 1 1 43
M  V30 48 1 1 44
M  V30 49 1 2 45
M  V30 50 1 3 46
M  V30 51 1 3 47
M  V30 52 1 3 48
M  V30 53 1 4 49
M  V30 54 1 5 50
M  V30 55 1 8 51 CFG=1
M  V30 56 1 9 52
M  V30 57 1 9 53
M  V30 58 1 10 54
M  V30 59 1 10 55
M  V30 60 1 11 56 CFG=3
M  V30 61 1 12 57
M  V30 62 1 16 58
M  V30 63 1 17 59
M  V30 64 1 19 60
M  V30 65 1 23 61
M  V30 66 1 24 62
M  V30 67 1 26 63
M  V30 68 1 27 64
M  V30 69 1 29 65
M  V30 70 1 30 66
M  V30 71 1 30 67
M  V30 72 1 32 68
M  V30 73 1 32 69
M  V30 74 1 34 70
M  V30 75 1 35 71
M  V30 76 1 36 72
M  V30 77 1 37 73
M  V30 78 1 38 74
M  V30 79 1 39 75
M  V30 80 1 40 76
M  V30 81 1 40 77
M  V30 82 1 40 78
M  V30 83 1 41 79
M  V30 84 1 41 80
M  V30 85 1 41 81
M  V30 END BOND
M  V30 END CTAB
M  END
>  <Dataset>  (628) 
ChEMBL_Kinases

>  <Ligand_Instance>  (628) 
nan

>  <PDB_ID>  (628) 
nan

>  <Standardized_SMILES>  (628) 
CC(C)C(NC(=O)[C@@H]1CC[C@@H](NC(=O)c2ccc3[nH]nc(-c4ccncc4)c3c2)CN1Cc1ccccc1)C(C)C

>  <Name>  (628) 
nan

>  <Pocket>  (628) 
nan

>  <ATP_Site>  (628) 
nan

>  <Peripheral>  (628) 
nan

>  <Num_H_Atoms_ProtBoundConf>  (628) 
nan

>  <Num_Resolved_Atoms>  (628) 
nan

>  <Num_Not_Resolved_Atoms>  (628) 
nan

$$$$
CHEMBL3654595
     RDKit          3D

  0  0  0  0  0  0  0  0  0  0999 V3000
M  V30 BEGIN CTAB
M  V30 COUNTS 66 71 0 0 0
M  V30 BEGIN ATOM
M  V30 1 O 1.962665 -3.986127 3.073835 0
M  V30 2 C 1.029513 -3.187220 2.752761 0
M  V30 3 N 1.264796 -2.150845 1.838980 0
M  V30 4 C 2.400425 -1.677215 1.073189 0
M  V30 5 C 2.736627 -0.250235 1.351303 0
M  V30 6 C 4.029139 0.138549 0.676528 0
M  V30 7 C 3.813120 0.727863 -0.705541 0
M  V30 8 C 3.440999 -0.451550 -1.580575 0
M  V30 9 N 2.130791 -0.920496 -1.255400 0
M  V30 10 C 1.357732 -1.203870 -2.408528 0
M  V30 11 C 0.825791 -0.102927 -3.222557 0
M  V30 12 C 1.797949 0.864793 -3.820148 0
M  V30 13 C 0.771652 1.817139 -4.507004 0
M  V30 14 C -0.161871 1.985003 -3.332924 0
M  V30 15 C -1.003921 2.992230 -2.886321 0
M  V30 16 C -1.746203 2.819350 -1.725230 0
M  V30 17 C -1.659498 1.661322 -1.009142 0
M  V30 18 C -0.832499 0.620351 -1.411110 0
M  V30 19 C -0.120101 0.820229 -2.549631 0
M  V30 20 C 2.146212 -2.019650 -0.366745 0
M  V30 21 C -0.285724 -3.373157 3.354140 0
M  V30 22 C -0.424633 -4.490026 4.147335 0
M  V30 23 C -1.659834 -4.730787 4.764938 0
M  V30 24 C -2.723339 -3.849415 4.574111 0
M  V30 25 N -3.994046 -3.770437 4.993049 0
M  V30 26 N -4.578370 -2.692913 4.495518 0
M  V30 27 C -3.707060 -2.007702 3.717577 0
M  V30 28 C -4.058469 -0.770885 3.033774 0
M  V30 29 C -5.195008 -0.496394 2.296355 0
M  V30 30 C -5.344093 0.752075 1.730783 0
M  V30 31 N -4.423120 1.721585 1.867906 0
M  V30 32 C -3.305851 1.474927 2.583677 0
M  V30 33 C -3.111694 0.241674 3.168024 0
M  V30 34 C -2.537161 -2.736191 3.766289 0
M  V30 35 C -1.330580 -2.496258 3.159578 0
M  V30 36 H 0.535762 -1.467638 1.535376 0
M  V30 37 H 3.256078 -2.304978 1.395350 0
M  V30 38 H 1.926095 0.456342 1.119846 0
M  V30 39 H 2.969467 -0.199994 2.444285 0
M  V30 40 H 4.544162 0.919495 1.279481 0
M  V30 41 H 4.709717 -0.736720 0.636407 0
M  V30 42 H 4.758021 1.136866 -1.056709 0
M  V30 43 H 3.048704 1.499205 -0.633881 0
M  V30 44 H 3.638315 -0.291507 -2.642240 0
M  V30 45 H 4.213515 -1.249757 -1.266224 0
M  V30 46 H 1.908753 -1.900648 -3.126196 0
M  V30 47 H 0.452569 -1.858868 -2.154672 0
M  V30 48 H 0.242844 -0.512129 -4.124245 0
M  V30 49 H 2.490658 0.471890 -4.554049 0
M  V30 50 H 2.255059 1.495938 -3.009215 0
M  V30 51 H 1.236539 2.749997 -4.815945 0
M  V30 52 H 0.305002 1.280758 -5.335918 0
M  V30 53 H -1.077090 3.911731 -3.450195 0
M  V30 54 H -2.405518 3.634664 -1.394234 0
M  V30 55 H -2.229824 1.506696 -0.102107 0
M  V30 56 H -0.752482 -0.313965 -0.849734 0
M  V30 57 H 2.916362 -2.745189 -0.765309 0
M  V30 58 H 1.187446 -2.564483 -0.500644 0
M  V30 59 H 0.324645 -5.220902 4.355873 0
M  V30 60 H -1.811051 -5.606784 5.402713 0
M  V30 61 H -4.447515 -4.477032 5.630366 0
M  V30 62 H -5.892834 -1.320906 2.227966 0
M  V30 63 H -6.244546 0.936699 1.158689 0
M  V30 64 H -2.643407 2.329187 2.622123 0
M  V30 65 H -2.150807 0.234133 3.704967 0
M  V30 66 H -1.212192 -1.639194 2.546520 0
M  V30 END ATOM
M  V30 BEGIN BOND
M  V30 1 2 1 2
M  V30 2 1 2 3
M  V30 3 1 3 4
M  V30 4 1 4 5
M  V30 5 1 5 6
M  V30 6 1 6 7
M  V30 7 1 7 8
M  V30 8 1 8 9
M  V30 9 1 9 10
M  V30 10 1 10 11
M  V30 11 1 11 12
M  V30 12 1 12 13
M  V30 13 1 13 14
M  V30 14 2 14 15
M  V30 15 1 15 16
M  V30 16 2 16 17
M  V30 17 1 17 18
M  V30 18 2 18 19
M  V30 19 1 9 20
M  V30 20 1 2 21
M  V30 21 2 21 22
M  V30 22 1 22 23
M  V30 23 2 23 24
M  V30 24 1 24 25
M  V30 25 1 25 26
M  V30 26 2 26 27
M  V30 27 1 27 28
M  V30 28 2 28 29
M  V30 29 1 29 30
M  V30 30 2 30 31
M  V30 31 1 31 32
M  V30 32 2 32 33
M  V30 33 1 27 34
M  V30 34 2 34 35
M  V30 35 1 20 4
M  V30 36 1 35 21
M  V30 37 1 19 11
M  V30 38 1 34 24
M  V30 39 1 19 14
M  V30 40 1 33 28
M  V30 41 1 3 36
M  V30 42 1 4 37
M  V30 43 1 5 38
M  V30 44 1 5 39
M  V30 45 1 6 40
M  V30 46 1 6 41
M  V30 47 1 7 42
M  V30 48 1 7 43
M  V30 49 1 8 44
M  V30 50 1 8 45
M  V30 51 1 10 46
M  V30 52 1 10 47
M  V30 53 1 11 48
M  V30 54 1 12 49
M  V30 55 1 12 50
M  V30 56 1 13 51
M  V30 57 1 13 52
M  V30 58 1 15 53
M  V30 59 1 16 54
M  V30 60 1 17 55
M  V30 61 1 18 56
M  V30 62 1 20 57
M  V30 63 1 20 58
M  V30 64 1 22 59
M  V30 65 1 23 60
M  V30 66 1 25 61
M  V30 67 1 29 62
M  V30 68 1 30 63
M  V30 69 1 32 64
M  V30 70 1 33 65
M  V30 71 1 35 66
M  V30 END BOND
M  V30 END CTAB
M  END
>  <Dataset>  (629) 
ChEMBL_Kinases

>  <Ligand_Instance>  (629) 
nan

>  <PDB_ID>  (629) 
nan

>  <Standardized_SMILES>  (629) 
O=C(NC1CCCCN(CC2CCc3ccccc32)C1)c1ccc2[nH]nc(-c3ccncc3)c2c1

>  <Name>  (629) 
nan

>  <Pocket>  (629) 
nan

>  <ATP_Site>  (629) 
nan

>  <Peripheral>  (629) 
nan

>  <Num_H_Atoms_ProtBoundConf>  (629) 
nan

>  <Num_Resolved_Atoms>  (629) 
nan

>  <Num_Not_Resolved_Atoms>  (629) 
nan

$$$$
CHEMBL3654596
     RDKit          3D

  0  0  0  0  0  0  0  0  0  0999 V3000
M  V30 BEGIN CTAB
M  V30 COUNTS 60 64 0 0 0
M  V30 BEGIN ATOM
M  V30 1 O -1.450082 -3.486527 3.429829 0
M  V30 2 C -1.066194 -2.934772 2.391393 0
M  V30 3 N 0.098108 -2.123491 2.422108 0
M  V30 4 C 0.903396 -1.881566 3.611792 0 CFG=2
M  V30 5 C 0.927874 -0.427128 3.972227 0
M  V30 6 C 2.333859 0.106279 4.133005 0
M  V30 7 C 3.179282 -0.228718 2.923381 0 CFG=2
M  V30 8 C 2.761830 0.713136 1.855558 0
M  V30 9 O 2.874847 1.892471 2.276929 0
M  V30 10 N 2.299110 0.425101 0.550238 0
M  V30 11 C 1.912641 1.418851 -0.424015 0
M  V30 12 C 0.579782 1.995581 -0.132371 0
M  V30 13 C 0.307783 3.118047 0.627818 0
M  V30 14 C -0.982699 3.555578 0.829708 0
M  V30 15 C -2.072268 2.904883 0.289488 0
M  V30 16 C -1.860871 1.784609 -0.474092 0
M  V30 17 C -0.555278 1.377627 -0.653428 0
M  V30 18 N 3.118322 -1.605855 2.563750 0
M  V30 19 C 2.256135 -2.449863 3.304620 0
M  V30 20 C -1.842977 -3.152256 1.176376 0
M  V30 21 C -2.974661 -3.934804 1.258055 0
M  V30 22 C -3.750826 -4.178337 0.137007 0
M  V30 23 C -3.431371 -3.655330 -1.099308 0
M  V30 24 N -3.987808 -3.722925 -2.332120 0
M  V30 25 N -3.218053 -3.004797 -3.134642 0
M  V30 26 C -2.179087 -2.467496 -2.483661 0
M  V30 27 C -1.162757 -1.628057 -3.109168 0
M  V30 28 C 0.149995 -1.913976 -2.784603 0
M  V30 29 C 1.189363 -1.180720 -3.319738 0
M  V30 30 N 0.969412 -0.164520 -4.173347 0
M  V30 31 C -0.306413 0.130060 -4.502624 0
M  V30 32 C -1.382911 -0.578161 -3.990700 0
M  V30 33 C -2.294875 -2.873548 -1.165335 0
M  V30 34 C -1.525877 -2.629895 -0.063567 0
M  V30 35 H 0.437133 -1.648071 1.555824 0
M  V30 36 H 0.441758 -2.457227 4.435861 0
M  V30 37 H 0.386077 0.141638 3.194725 0
M  V30 38 H 0.449640 -0.293844 4.962853 0
M  V30 39 H 2.781676 -0.223549 5.091926 0
M  V30 40 H 2.251106 1.212221 4.185079 0
M  V30 41 H 4.229382 0.016840 3.185967 0
M  V30 42 H 2.258172 -0.596668 0.342312 0
M  V30 43 H 2.675959 2.238560 -0.466003 0
M  V30 44 H 1.831303 0.900903 -1.407642 0
M  V30 45 H 1.159542 3.628672 1.048651 0
M  V30 46 H -1.145685 4.448031 1.438408 0
M  V30 47 H -3.085502 3.235137 0.438497 0
M  V30 48 H -2.667999 1.229619 -0.925073 0
M  V30 49 H -0.410195 0.485746 -1.263236 0
M  V30 50 H 3.276388 -1.844509 1.588531 0
M  V30 51 H 2.743612 -2.702114 4.269480 0
M  V30 52 H 2.145867 -3.401320 2.745905 0
M  V30 53 H -3.325498 -4.398166 2.169609 0
M  V30 54 H -4.665948 -4.790921 0.122077 0
M  V30 55 H -4.847247 -4.241412 -2.573510 0
M  V30 56 H 0.518834 -2.685388 -2.123845 0
M  V30 57 H 2.256055 -1.352452 -3.105860 0
M  V30 58 H -0.498263 0.948980 -5.191691 0
M  V30 59 H -2.411057 -0.378047 -4.225112 0
M  V30 60 H -0.645166 -2.017105 -0.139426 0
M  V30 END ATOM
M  V30 BEGIN BOND
M  V30 1 2 1 2
M  V30 2 1 2 3
M  V30 3 1 3 4
M  V30 4 1 4 5
M  V30 5 1 5 6
M  V30 6 1 6 7
M  V30 7 1 7 8
M  V30 8 2 8 9
M  V30 9 1 8 10
M  V30 10 1 10 11
M  V30 11 1 11 12
M  V30 12 2 12 13
M  V30 13 1 13 14
M  V30 14 2 14 15
M  V30 15 1 15 16
M  V30 16 2 16 17
M  V30 17 1 7 18
M  V30 18 1 18 19
M  V30 19 1 2 20
M  V30 20 2 20 21
M  V30 21 1 21 22
M  V30 22 2 22 23
M  V30 23 1 23 24
M  V30 24 1 24 25
M  V30 25 2 25 26
M  V30 26 1 26 27
M  V30 27 2 27 28
M  V30 28 1 28 29
M  V30 29 2 29 30
M  V30 30 1 30 31
M  V30 31 2 31 32
M  V30 32 1 26 33
M  V30 33 2 33 34
M  V30 34 1 19 4
M  V30 35 1 34 20
M  V30 36 1 17 12
M  V30 37 1 33 23
M  V30 38 1 32 27
M  V30 39 1 3 35
M  V30 40 1 4 36 CFG=1
M  V30 41 1 5 37
M  V30 42 1 5 38
M  V30 43 1 6 39
M  V30 44 1 6 40
M  V30 45 1 7 41 CFG=1
M  V30 46 1 10 42
M  V30 47 1 11 43
M  V30 48 1 11 44
M  V30 49 1 13 45
M  V30 50 1 14 46
M  V30 51 1 15 47
M  V30 52 1 16 48
M  V30 53 1 17 49
M  V30 54 1 18 50
M  V30 55 1 19 51
M  V30 56 1 19 52
M  V30 57 1 21 53
M  V30 58 1 22 54
M  V30 59 1 24 55
M  V30 60 1 28 56
M  V30 61 1 29 57
M  V30 62 1 31 58
M  V30 63 1 32 59
M  V30 64 1 34 60
M  V30 END BOND
M  V30 END CTAB
M  END
>  <Dataset>  (630) 
ChEMBL_Kinases

>  <Ligand_Instance>  (630) 
nan

>  <PDB_ID>  (630) 
nan

>  <Standardized_SMILES>  (630) 
O=C(N[C@@H]1CC[C@H](C(=O)NCc2ccccc2)NC1)c1ccc2[nH]nc(-c3ccncc3)c2c1

>  <Name>  (630) 
nan

>  <Pocket>  (630) 
nan

>  <ATP_Site>  (630) 
nan

>  <Peripheral>  (630) 
nan

>  <Num_H_Atoms_ProtBoundConf>  (630) 
nan

>  <Num_Resolved_Atoms>  (630) 
nan

>  <Num_Not_Resolved_Atoms>  (630) 
nan

$$$$
CHEMBL3654597
     RDKit          3D

  0  0  0  0  0  0  0  0  0  0999 V3000
M  V30 BEGIN CTAB
M  V30 COUNTS 60 64 0 0 0
M  V30 BEGIN ATOM
M  V30 1 O -0.012428 -4.613468 3.572449 0
M  V30 2 C -0.394505 -3.923182 2.612746 0
M  V30 3 N 0.046026 -2.593049 2.483118 0
M  V30 4 C 0.934113 -2.022706 3.448421 0 CFG=2
M  V30 5 C 0.472139 -0.778373 4.115422 0
M  V30 6 C 1.389841 0.412315 3.808143 0
M  V30 7 C 1.500681 0.450181 2.281516 0 CFG=1
M  V30 8 C 1.992334 1.745695 1.818260 0
M  V30 9 O 1.180791 2.590619 2.267499 0
M  V30 10 N 3.097025 2.115470 1.046103 0
M  V30 11 C 3.466306 3.459550 0.659464 0
M  V30 12 C 2.588938 3.934151 -0.440479 0
M  V30 13 C 1.406688 4.619321 -0.293645 0
M  V30 14 C 0.607062 5.047971 -1.312676 0
M  V30 15 C 0.999236 4.781494 -2.623761 0
M  V30 16 C 2.187088 4.092061 -2.807527 0
M  V30 17 C 2.963450 3.677924 -1.752817 0
M  V30 18 N 2.302042 -0.669444 1.886391 0
M  V30 19 C 2.291288 -1.760974 2.837245 0
M  V30 20 C -1.298097 -4.554825 1.659243 0
M  V30 21 C -1.666844 -5.879598 1.893074 0
M  V30 22 C -2.529452 -6.541820 1.014105 0
M  V30 23 C -3.043891 -5.922568 -0.103249 0
M  V30 24 N -3.855378 -6.236359 -1.111385 0
M  V30 25 N -4.008230 -5.209444 -1.936524 0
M  V30 26 C -3.277988 -4.158435 -1.479028 0
M  V30 27 C -3.225290 -2.867445 -2.156024 0
M  V30 28 C -3.054379 -2.922412 -3.534180 0
M  V30 29 C -2.986572 -1.792401 -4.306580 0
M  V30 30 N -3.089716 -0.585980 -3.704690 0
M  V30 31 C -3.254155 -0.491517 -2.387369 0
M  V30 32 C -3.326772 -1.618942 -1.576166 0
M  V30 33 C -2.665899 -4.599029 -0.322450 0
M  V30 34 C -1.825294 -3.955168 0.534701 0
M  V30 35 H -0.288979 -2.030654 1.667142 0
M  V30 36 H 1.131306 -2.836265 4.208065 0
M  V30 37 H 0.547780 -0.908072 5.213395 0
M  V30 38 H -0.539613 -0.445836 3.811713 0
M  V30 39 H 2.401005 0.236235 4.192165 0
M  V30 40 H 0.943927 1.330186 4.218469 0
M  V30 41 H 0.463671 0.231221 1.925243 0
M  V30 42 H 3.672737 1.298668 0.748416 0
M  V30 43 H 3.446181 4.161298 1.522215 0
M  V30 44 H 4.493116 3.442114 0.273775 0
M  V30 45 H 1.082866 4.839627 0.711628 0
M  V30 46 H -0.318685 5.586433 -1.131567 0
M  V30 47 H 0.353852 5.128346 -3.417215 0
M  V30 48 H 2.431731 3.918190 -3.865470 0
M  V30 49 H 3.870596 3.148426 -1.997591 0
M  V30 50 H 3.316730 -0.345887 1.868807 0
M  V30 51 H 3.046844 -1.620874 3.623466 0
M  V30 52 H 2.577823 -2.687170 2.281722 0
M  V30 53 H -1.312772 -6.431777 2.736735 0
M  V30 54 H -2.802148 -7.561516 1.210173 0
M  V30 55 H -4.295861 -7.162032 -1.217027 0
M  V30 56 H -2.967082 -3.860068 -4.061611 0
M  V30 57 H -2.851851 -1.856856 -5.386114 0
M  V30 58 H -3.347185 0.422056 -1.810107 0
M  V30 59 H -3.459618 -1.633242 -0.494860 0
M  V30 60 H -1.549853 -2.937128 0.343951 0
M  V30 END ATOM
M  V30 BEGIN BOND
M  V30 1 2 1 2
M  V30 2 1 2 3
M  V30 3 1 3 4
M  V30 4 1 4 5
M  V30 5 1 5 6
M  V30 6 1 6 7
M  V30 7 1 7 8
M  V30 8 2 8 9
M  V30 9 1 8 10
M  V30 10 1 10 11
M  V30 11 1 11 12
M  V30 12 2 12 13
M  V30 13 1 13 14
M  V30 14 2 14 15
M  V30 15 1 15 16
M  V30 16 2 16 17
M  V30 17 1 7 18
M  V30 18 1 18 19
M  V30 19 1 2 20
M  V30 20 2 20 21
M  V30 21 1 21 22
M  V30 22 2 22 23
M  V30 23 1 23 24
M  V30 24 1 24 25
M  V30 25 2 25 26
M  V30 26 1 26 27
M  V30 27 2 27 28
M  V30 28 1 28 29
M  V30 29 2 29 30
M  V30 30 1 30 31
M  V30 31 2 31 32
M  V30 32 1 26 33
M  V30 33 2 33 34
M  V30 34 1 19 4
M  V30 35 1 34 20
M  V30 36 1 17 12
M  V30 37 1 33 23
M  V30 38 1 32 27
M  V30 39 1 3 35
M  V30 40 1 4 36 CFG=1
M  V30 41 1 5 37
M  V30 42 1 5 38
M  V30 43 1 6 39
M  V30 44 1 6 40
M  V30 45 1 7 41 CFG=3
M  V30 46 1 10 42
M  V30 47 1 11 43
M  V30 48 1 11 44
M  V30 49 1 13 45
M  V30 50 1 14 46
M  V30 51 1 15 47
M  V30 52 1 16 48
M  V30 53 1 17 49
M  V30 54 1 18 50
M  V30 55 1 19 51
M  V30 56 1 19 52
M  V30 57 1 21 53
M  V30 58 1 22 54
M  V30 59 1 24 55
M  V30 60 1 28 56
M  V30 61 1 29 57
M  V30 62 1 31 58
M  V30 63 1 32 59
M  V30 64 1 34 60
M  V30 END BOND
M  V30 END CTAB
M  END
>  <Dataset>  (631) 
ChEMBL_Kinases

>  <Ligand_Instance>  (631) 
nan

>  <PDB_ID>  (631) 
nan

>  <Standardized_SMILES>  (631) 
O=C(N[C@@H]1CC[C@@H](C(=O)NCc2ccccc2)NC1)c1ccc2[nH]nc(-c3ccncc3)c2c1

>  <Name>  (631) 
nan

>  <Pocket>  (631) 
nan

>  <ATP_Site>  (631) 
nan

>  <Peripheral>  (631) 
nan

>  <Num_H_Atoms_ProtBoundConf>  (631) 
nan

>  <Num_Resolved_Atoms>  (631) 
nan

>  <Num_Not_Resolved_Atoms>  (631) 
nan

$$$$
CHEMBL3654598
     RDKit          3D

  0  0  0  0  0  0  0  0  0  0999 V3000
M  V30 BEGIN CTAB
M  V30 COUNTS 69 74 0 0 0
M  V30 BEGIN ATOM
M  V30 1 C 2.040870 -4.415766 -1.432581 0
M  V30 2 O 1.335135 -3.651565 -2.387776 0
M  V30 3 C 1.885750 -2.506572 -2.898536 0
M  V30 4 C 3.142749 -2.054287 -2.506058 0
M  V30 5 C 3.795414 -0.915204 -2.953505 0
M  V30 6 C 3.096609 -0.182271 -3.880978 0
M  V30 7 C 1.841530 -0.555710 -4.329355 0
M  V30 8 F 1.259333 0.255401 -5.248755 0
M  V30 9 C 1.258377 -1.701721 -3.837211 0
M  V30 10 C -0.092423 -2.097394 -4.325998 0
M  V30 11 N -1.138239 -1.830582 -3.366401 0
M  V30 12 C -2.388001 -2.238427 -3.926872 0
M  V30 13 C -3.272681 -0.999655 -4.013176 0 CFG=1
M  V30 14 C -4.591012 -1.444428 -4.621686 0
M  V30 15 C -3.515440 -0.553745 -2.586893 0
M  V30 16 C -2.205928 -0.084311 -2.020147 0 CFG=1
M  V30 17 N -1.836621 -0.758204 -0.808667 0
M  V30 18 C -1.440510 -0.315512 0.473870 0
M  V30 19 O -1.388821 0.952419 0.617440 0
M  V30 20 C -1.115848 -1.232335 1.548940 0
M  V30 21 C -1.186120 -2.603491 1.415029 0
M  V30 22 C -0.862116 -3.419711 2.481746 0
M  V30 23 C -0.465112 -2.872597 3.690570 0
M  V30 24 N -0.098558 -3.429780 4.873624 0
M  V30 25 N 0.195459 -2.444784 5.729941 0
M  V30 26 C 0.030192 -1.256487 5.134773 0
M  V30 27 C 0.249548 0.051107 5.734168 0
M  V30 28 C -0.142484 0.544653 6.955307 0
M  V30 29 C 0.132413 1.791162 7.410925 0
M  V30 30 C 0.853033 2.688302 6.651952 0
M  V30 31 N 1.186441 3.923500 6.977163 0
M  V30 32 C 1.807119 4.685268 6.315590 0
M  V30 33 C 2.309616 6.074180 6.418266 0
M  V30 34 S 2.134712 3.614535 4.752149 0
M  V30 35 C 1.263497 2.213637 5.408308 0
M  V30 36 C 0.974635 0.922419 4.945325 0
M  V30 37 C -0.388385 -1.488051 3.841448 0
M  V30 38 C -0.722598 -0.717027 2.746914 0
M  V30 39 C -1.090254 -0.430033 -3.023164 0
M  V30 40 H 2.102939 -3.840030 -0.482565 0
M  V30 41 H 1.481794 -5.340498 -1.169500 0
M  V30 42 H 3.085020 -4.636138 -1.732380 0
M  V30 43 H 3.651978 -2.677742 -1.765619 0
M  V30 44 H 4.776518 -0.690626 -2.553933 0
M  V30 45 H 3.569328 0.721257 -4.260885 0
M  V30 46 H -0.354054 -1.531137 -5.260892 0
M  V30 47 H -0.040586 -3.178112 -4.567753 0
M  V30 48 H -2.295754 -2.734918 -4.932977 0
M  V30 49 H -2.915096 -2.929295 -3.220201 0
M  V30 50 H -2.858809 -0.214249 -4.663382 0
M  V30 51 H -4.342607 -1.949967 -5.576923 0
M  V30 52 H -5.070940 -2.116624 -3.875901 0
M  V30 53 H -5.207421 -0.524090 -4.812410 0
M  V30 54 H -4.307979 0.211181 -2.604891 0
M  V30 55 H -3.862430 -1.491462 -2.063395 0
M  V30 56 H -2.219448 1.001616 -1.930006 0
M  V30 57 H -1.913934 -1.780128 -1.043547 0
M  V30 58 H -1.492122 -3.048363 0.484273 0
M  V30 59 H -0.906901 -4.492551 2.409750 0
M  V30 60 H -0.041566 -4.438888 5.116666 0
M  V30 61 H -0.715910 -0.195168 7.539075 0
M  V30 62 H -0.269872 1.993549 8.414603 0
M  V30 63 H 2.899533 6.375769 5.527919 0
M  V30 64 H 1.490493 6.814833 6.546673 0
M  V30 65 H 2.974213 6.209566 7.311746 0
M  V30 66 H 1.399027 0.801044 3.968202 0
M  V30 67 H -0.668402 0.370140 2.854603 0
M  V30 68 H -0.140761 -0.272452 -2.444654 0
M  V30 69 H -1.048697 0.260774 -3.863058 0
M  V30 END ATOM
M  V30 BEGIN BOND
M  V30 1 1 1 2
M  V30 2 1 2 3
M  V30 3 2 3 4
M  V30 4 1 4 5
M  V30 5 2 5 6
M  V30 6 1 6 7
M  V30 7 1 7 8
M  V30 8 2 7 9
M  V30 9 1 9 10
M  V30 10 1 10 11
M  V30 11 1 11 12
M  V30 12 1 12 13
M  V30 13 1 13 14
M  V30 14 1 13 15
M  V30 15 1 15 16
M  V30 16 1 16 17
M  V30 17 1 17 18
M  V30 18 2 18 19
M  V30 19 1 18 20
M  V30 20 2 20 21
M  V30 21 1 21 22
M  V30 22 2 22 23
M  V30 23 1 23 24
M  V30 24 1 24 25
M  V30 25 2 25 26
M  V30 26 1 26 27
M  V30 27 2 27 28
M  V30 28 1 28 29
M  V30 29 2 29 30
M  V30 30 1 30 31
M  V30 31 2 31 32
M  V30 32 1 32 33
M  V30 33 1 32 34
M  V30 34 1 34 35
M  V30 35 2 35 36
M  V30 36 1 26 37
M  V30 37 2 37 38
M  V30 38 1 16 39
M  V30 39 1 9 3
M  V30 40 1 39 11
M  V30 41 1 38 20
M  V30 42 1 37 23
M  V30 43 1 36 27
M  V30 44 1 35 30
M  V30 45 1 1 40
M  V30 46 1 1 41
M  V30 47 1 1 42
M  V30 48 1 4 43
M  V30 49 1 5 44
M  V30 50 1 6 45
M  V30 51 1 10 46
M  V30 52 1 10 47
M  V30 53 1 12 48
M  V30 54 1 12 49
M  V30 55 1 13 50 CFG=3
M  V30 56 1 14 51
M  V30 57 1 14 52
M  V30 58 1 14 53
M  V30 59 1 15 54
M  V30 60 1 15 55
M  V30 61 1 16 56 CFG=1
M  V30 62 1 17 57
M  V30 63 1 21 58
M  V30 64 1 22 59
M  V30 65 1 24 60
M  V30 66 1 28 61
M  V30 67 1 29 62
M  V30 68 1 33 63
M  V30 69 1 33 64
M  V30 70 1 33 65
M  V30 71 1 36 66
M  V30 72 1 38 67
M  V30 73 1 39 68
M  V30 74 1 39 69
M  V30 END BOND
M  V30 END CTAB
M  END
>  <Dataset>  (632) 
ChEMBL_Kinases

>  <Ligand_Instance>  (632) 
nan

>  <PDB_ID>  (632) 
nan

>  <Standardized_SMILES>  (632) 
COc1cccc(F)c1CN1C[C@@H](C)C[C@@H](NC(=O)c2ccc3[nH]nc(-c4ccc5nc(C)sc5c4)c3c2)C1

>  <Name>  (632) 
nan

>  <Pocket>  (632) 
nan

>  <ATP_Site>  (632) 
nan

>  <Peripheral>  (632) 
nan

>  <Num_H_Atoms_ProtBoundConf>  (632) 
nan

>  <Num_Resolved_Atoms>  (632) 
nan

>  <Num_Not_Resolved_Atoms>  (632) 
nan

$$$$
CHEMBL3654608
     RDKit          3D

  0  0  0  0  0  0  0  0  0  0999 V3000
M  V30 BEGIN CTAB
M  V30 COUNTS 66 71 0 0 0
M  V30 BEGIN ATOM
M  V30 1 C 0.852793 -2.658065 6.054087 0
M  V30 2 N 1.549284 -1.497113 5.501872 0
M  V30 3 C 1.986317 -1.428656 4.229268 0
M  V30 4 C 2.603255 -0.189077 4.033479 0
M  V30 5 C 3.185652 0.267831 2.846394 0
M  V30 6 C 3.721346 1.555659 2.967465 0
M  V30 7 C 4.346039 2.106974 1.762336 0
M  V30 8 N 5.524612 2.744295 1.639600 0
M  V30 9 N 5.744733 3.095413 0.377915 0
M  V30 10 C 4.701399 2.699138 -0.409340 0
M  V30 11 C 4.488596 2.841244 -1.757156 0
M  V30 12 C 3.289695 2.308891 -2.246554 0
M  V30 13 C 2.371650 1.677579 -1.426745 0
M  V30 14 C 1.158743 1.158354 -2.046328 0
M  V30 15 O 1.052057 1.275940 -3.283313 0
M  V30 16 N 0.122385 0.536888 -1.283985 0
M  V30 17 C -1.095870 0.009194 -1.873023 0 CFG=2
M  V30 18 C -2.323736 0.739001 -1.370246 0
M  V30 19 C -3.484884 0.208347 -2.181654 0 CFG=2
M  V30 20 C -4.748862 0.775667 -1.551979 0
M  V30 21 F -4.792578 0.325758 -0.228067 0
M  V30 22 F -5.881086 0.514830 -2.255759 0
M  V30 23 F -4.515273 2.146234 -1.433585 0
M  V30 24 C -3.583060 -1.296293 -2.159202 0
M  V30 25 N -2.358585 -1.974919 -2.127193 0
M  V30 26 C -2.320393 -3.378205 -2.232664 0
M  V30 27 C -3.056055 -4.155025 -1.233233 0
M  V30 28 C -4.419778 -4.375511 -1.247256 0
M  V30 29 F -5.186020 -3.888377 -2.248916 0
M  V30 30 C -5.123977 -5.090883 -0.302779 0
M  V30 31 C -4.433743 -5.650246 0.765084 0
M  V30 32 C -3.068815 -5.474344 0.848978 0
M  V30 33 C -2.440249 -4.744867 -0.137529 0
M  V30 34 F -1.095504 -4.600378 -0.008271 0
M  V30 35 C -1.275248 -1.418067 -1.402504 0
M  V30 36 C 2.683314 1.588485 -0.086802 0
M  V30 37 C 3.838630 2.083194 0.479663 0
M  V30 38 C 3.669683 2.276774 4.139557 0
M  V30 39 C 3.065197 1.720569 5.258091 0
M  V30 40 C 2.507495 0.460890 5.243660 0
M  V30 41 N 1.868690 -0.356205 6.099821 0
M  V30 42 H 1.348949 -3.587117 5.656358 0
M  V30 43 H -0.198995 -2.715445 5.700931 0
M  V30 44 H 0.864253 -2.671294 7.165019 0
M  V30 45 H 1.860367 -2.234880 3.492923 0
M  V30 46 H 3.194280 -0.347543 1.965837 0
M  V30 47 H 6.625951 3.610504 0.082272 0
M  V30 48 H 5.217906 3.339127 -2.386948 0
M  V30 49 H 3.148535 2.438206 -3.327449 0
M  V30 50 H 0.203520 0.435795 -0.248115 0
M  V30 51 H -1.125103 0.049595 -2.960948 0
M  V30 52 H -2.270647 1.826847 -1.563490 0
M  V30 53 H -2.485824 0.590208 -0.287991 0
M  V30 54 H -3.440789 0.569798 -3.221561 0
M  V30 55 H -4.146834 -1.566770 -3.076409 0
M  V30 56 H -4.260057 -1.576259 -1.300434 0
M  V30 57 H -2.618553 -3.777748 -3.228711 0
M  V30 58 H -1.236923 -3.687041 -2.114807 0
M  V30 59 H -6.179068 -5.251471 -0.329770 0
M  V30 60 H -4.898416 -6.223084 1.548001 0
M  V30 61 H -2.503203 -5.898135 1.668139 0
M  V30 62 H -0.358341 -2.011677 -1.647515 0
M  V30 63 H -1.385304 -1.474351 -0.299432 0
M  V30 64 H 1.963124 1.100907 0.526908 0
M  V30 65 H 4.102208 3.277353 4.184001 0
M  V30 66 H 3.007897 2.269258 6.207239 0
M  V30 END ATOM
M  V30 BEGIN BOND
M  V30 1 1 1 2
M  V30 2 1 2 3
M  V30 3 2 3 4
M  V30 4 1 4 5
M  V30 5 2 5 6
M  V30 6 1 6 7
M  V30 7 2 7 8
M  V30 8 1 8 9
M  V30 9 1 9 10
M  V30 10 2 10 11
M  V30 11 1 11 12
M  V30 12 2 12 13
M  V30 13 1 13 14
M  V30 14 2 14 15
M  V30 15 1 14 16
M  V30 16 1 16 17
M  V30 17 1 17 18
M  V30 18 1 18 19
M  V30 19 1 19 20
M  V30 20 1 20 21
M  V30 21 1 20 22
M  V30 22 1 20 23
M  V30 23 1 19 24
M  V30 24 1 24 25
M  V30 25 1 25 26
M  V30 26 1 26 27
M  V30 27 2 27 28
M  V30 28 1 28 29
M  V30 29 1 28 30
M  V30 30 2 30 31
M  V30 31 1 31 32
M  V30 32 2 32 33
M  V30 33 1 33 34
M  V30 34 1 25 35
M  V30 35 1 13 36
M  V30 36 2 36 37
M  V30 37 1 6 38
M  V30 38 2 38 39
M  V30 39 1 39 40
M  V30 40 2 40 41
M  V30 41 1 41 2
M  V30 42 1 40 4
M  V30 43 1 37 7
M  V30 44 1 37 10
M  V30 45 1 35 17
M  V30 46 1 33 27
M  V30 47 1 1 42
M  V30 48 1 1 43
M  V30 49 1 1 44
M  V30 50 1 3 45
M  V30 51 1 5 46
M  V30 52 1 9 47
M  V30 53 1 11 48
M  V30 54 1 12 49
M  V30 55 1 16 50
M  V30 56 1 17 51 CFG=3
M  V30 57 1 18 52
M  V30 58 1 18 53
M  V30 59 1 19 54 CFG=3
M  V30 60 1 24 55
M  V30 61 1 24 56
M  V30 62 1 26 57
M  V30 63 1 26 58
M  V30 64 1 30 59
M  V30 65 1 31 60
M  V30 66 1 32 61
M  V30 67 1 35 62
M  V30 68 1 35 63
M  V30 69 1 36 64
M  V30 70 1 38 65
M  V30 71 1 39 66
M  V30 END BOND
M  V30 END CTAB
M  END
>  <Dataset>  (633) 
ChEMBL_Kinases

>  <Ligand_Instance>  (633) 
nan

>  <PDB_ID>  (633) 
nan

>  <Standardized_SMILES>  (633) 
Cn1cc2cc(-c3n[nH]c4ccc(C(=O)N[C@@H]5C[C@H](C(F)(F)F)CN(Cc6c(F)cccc6F)C5)cc34)ccc2n1

>  <Name>  (633) 
nan

>  <Pocket>  (633) 
nan

>  <ATP_Site>  (633) 
nan

>  <Peripheral>  (633) 
nan

>  <Num_H_Atoms_ProtBoundConf>  (633) 
nan

>  <Num_Resolved_Atoms>  (633) 
nan

>  <Num_Not_Resolved_Atoms>  (633) 
nan

$$$$
CHEMBL3654600
     RDKit          3D

  0  0  0  0  0  0  0  0  0  0999 V3000
M  V30 BEGIN CTAB
M  V30 COUNTS 60 65 0 0 0
M  V30 BEGIN ATOM
M  V30 1 O 0.545398 -1.319572 0.133990 0
M  V30 2 C 0.160973 -1.931617 1.167847 0
M  V30 3 N 0.993549 -1.851524 2.309462 0
M  V30 4 C 2.199794 -1.093857 2.221192 0 CFG=1
M  V30 5 C 2.267502 0.065524 3.193926 0
M  V30 6 N 3.483966 0.745694 2.991312 0
M  V30 7 C 3.558323 2.131702 3.137502 0
M  V30 8 C 2.683012 2.956839 2.286287 0
M  V30 9 C 2.824034 3.305017 0.964435 0
M  V30 10 F 3.938863 2.841395 0.357587 0
M  V30 11 C 1.891618 4.081491 0.313182 0
M  V30 12 C 0.763260 4.557379 0.941427 0
M  V30 13 C 0.592696 4.225518 2.269528 0
M  V30 14 C 1.531187 3.447013 2.914963 0
M  V30 15 F 1.235612 3.193917 4.233951 0
M  V30 16 C 4.484723 0.160726 2.199523 0
M  V30 17 C 4.685474 -1.323435 2.480284 0
M  V30 18 F 5.457737 -1.450886 3.612204 0
M  V30 19 F 5.403345 -1.849465 1.417167 0
M  V30 20 C 3.363804 -1.999025 2.545597 0
M  V30 21 C -1.079652 -2.701067 1.231382 0
M  V30 22 C -1.568195 -3.389132 2.323669 0
M  V30 23 C -2.760384 -4.081879 2.251494 0
M  V30 24 C -3.489875 -4.099821 1.079866 0
M  V30 25 N -4.647773 -4.652719 0.674224 0
M  V30 26 N -4.906173 -4.356529 -0.582164 0
M  V30 27 C -3.918419 -3.577628 -1.089396 0
M  V30 28 C -3.835390 -3.040454 -2.446004 0
M  V30 29 C -4.132904 -3.959513 -3.451493 0
M  V30 30 C -4.103451 -3.623111 -4.792032 0
M  V30 31 C -3.757540 -2.307667 -5.075683 0
M  V30 32 N -3.643491 -1.684648 -6.277061 0
M  V30 33 C -3.278971 -0.385310 -6.070776 0
M  V30 34 C -3.178995 -0.251983 -4.700195 0
M  V30 35 N -3.472674 -1.429334 -4.103409 0
M  V30 36 C -3.500625 -1.751681 -2.809301 0
M  V30 37 C -3.031626 -3.421114 -0.037030 0
M  V30 38 C -1.843296 -2.741438 0.065448 0
M  V30 39 H 0.792279 -2.309412 3.225035 0
M  V30 40 H 2.358105 -0.630725 1.215515 0
M  V30 41 H 1.340575 0.675719 3.161370 0
M  V30 42 H 2.241981 -0.409620 4.219581 0
M  V30 43 H 4.622047 2.454752 2.915725 0
M  V30 44 H 3.442226 2.414797 4.224283 0
M  V30 45 H 2.063490 4.317456 -0.724352 0
M  V30 46 H 0.030712 5.167102 0.431572 0
M  V30 47 H -0.292463 4.600130 2.756897 0
M  V30 48 H 4.390334 0.323384 1.084746 0
M  V30 49 H 5.459141 0.627935 2.470842 0
M  V30 50 H 3.178568 -2.352302 3.597075 0
M  V30 51 H 3.289735 -2.868081 1.837830 0
M  V30 52 H -0.960809 -3.345329 3.217992 0
M  V30 53 H -3.127369 -4.615923 3.119671 0
M  V30 54 H -5.252580 -5.239558 1.290747 0
M  V30 55 H -4.406914 -4.999343 -3.241335 0
M  V30 56 H -4.332697 -4.331092 -5.569722 0
M  V30 57 H -3.110574 0.361346 -6.840953 0
M  V30 58 H -2.902296 0.675622 -4.196215 0
M  V30 59 H -3.281707 -1.088691 -1.980189 0
M  V30 60 H -1.500546 -2.210937 -0.834150 0
M  V30 END ATOM
M  V30 BEGIN BOND
M  V30 1 2 1 2
M  V30 2 1 2 3
M  V30 3 1 3 4
M  V30 4 1 4 5
M  V30 5 1 5 6
M  V30 6 1 6 7
M  V30 7 1 7 8
M  V30 8 2 8 9
M  V30 9 1 9 10
M  V30 10 1 9 11
M  V30 11 2 11 12
M  V30 12 1 12 13
M  V30 13 2 13 14
M  V30 14 1 14 15
M  V30 15 1 6 16
M  V30 16 1 16 17
M  V30 17 1 17 18
M  V30 18 1 17 19
M  V30 19 1 17 20
M  V30 20 1 2 21
M  V30 21 2 21 22
M  V30 22 1 22 23
M  V30 23 2 23 24
M  V30 24 1 24 25
M  V30 25 1 25 26
M  V30 26 2 26 27
M  V30 27 1 27 28
M  V30 28 1 28 29
M  V30 29 2 29 30
M  V30 30 1 30 31
M  V30 31 2 31 32
M  V30 32 1 32 33
M  V30 33 2 33 34
M  V30 34 1 34 35
M  V30 35 1 35 36
M  V30 36 1 27 37
M  V30 37 2 37 38
M  V30 38 1 20 4
M  V30 39 1 38 21
M  V30 40 1 14 8
M  V30 41 1 37 24
M  V30 42 2 36 28
M  V30 43 1 35 31
M  V30 44 1 3 39
M  V30 45 1 4 40 CFG=3
M  V30 46 1 5 41
M  V30 47 1 5 42
M  V30 48 1 7 43
M  V30 49 1 7 44
M  V30 50 1 11 45
M  V30 51 1 12 46
M  V30 52 1 13 47
M  V30 53 1 16 48
M  V30 54 1 16 49
M  V30 55 1 20 50
M  V30 56 1 20 51
M  V30 57 1 22 52
M  V30 58 1 23 53
M  V30 59 1 25 54
M  V30 60 1 29 55
M  V30 61 1 30 56
M  V30 62 1 33 57
M  V30 63 1 34 58
M  V30 64 1 36 59
M  V30 65 1 38 60
M  V30 END BOND
M  V30 END CTAB
M  END
>  <Dataset>  (634) 
ChEMBL_Kinases

>  <Ligand_Instance>  (634) 
nan

>  <PDB_ID>  (634) 
nan

>  <Standardized_SMILES>  (634) 
O=C(N[C@H]1CN(Cc2c(F)cccc2F)CC(F)(F)C1)c1ccc2[nH]nc(-c3ccc4nccn4c3)c2c1

>  <Name>  (634) 
nan

>  <Pocket>  (634) 
nan

>  <ATP_Site>  (634) 
nan

>  <Peripheral>  (634) 
nan

>  <Num_H_Atoms_ProtBoundConf>  (634) 
nan

>  <Num_Resolved_Atoms>  (634) 
nan

>  <Num_Not_Resolved_Atoms>  (634) 
nan

$$$$
CHEMBL3654601
     RDKit          3D

  0  0  0  0  0  0  0  0  0  0999 V3000
M  V30 BEGIN CTAB
M  V30 COUNTS 61 67 0 0 0
M  V30 BEGIN ATOM
M  V30 1 O -2.507815 -2.433677 3.684604 0
M  V30 2 C -1.795949 -2.370399 2.657771 0
M  V30 3 N -0.699887 -1.463349 2.657329 0
M  V30 4 C -0.327363 -0.593594 3.751149 0
M  V30 5 C 0.042447 -1.167959 5.070405 0
M  V30 6 C 1.112842 -0.687422 4.170475 0
M  V30 7 C 1.747883 0.663368 4.289887 0
M  V30 8 C 1.429903 1.536784 3.073186 0
M  V30 9 N 0.035691 1.599203 2.835731 0
M  V30 10 C -0.407144 1.656680 1.490344 0
M  V30 11 C 0.085933 2.854539 0.756019 0
M  V30 12 C -0.560252 4.042193 1.064430 0
M  V30 13 F -1.568563 4.097378 1.973867 0
M  V30 14 C -0.166596 5.191381 0.430666 0
M  V30 15 C 0.858955 5.114319 -0.489357 0
M  V30 16 C 1.529055 3.958432 -0.827450 0
M  V30 17 C 1.107092 2.823079 -0.170869 0
M  V30 18 F 1.708624 1.639875 -0.439795 0
M  V30 19 C -0.748295 0.856974 3.752122 0
M  V30 20 C -2.134648 -3.229496 1.527615 0
M  V30 21 C -3.228303 -4.057587 1.674889 0
M  V30 22 C -3.623577 -4.909035 0.646104 0
M  V30 23 C -2.948262 -4.964178 -0.554792 0
M  V30 24 N -3.024459 -5.625990 -1.730118 0
M  V30 25 N -2.032232 -5.211158 -2.523834 0
M  V30 26 C -1.280559 -4.289711 -1.933415 0
M  V30 27 C -0.128847 -3.660510 -2.569430 0
M  V30 28 C 1.016521 -3.553762 -1.805026 0
M  V30 29 C 2.163629 -2.965767 -2.326345 0
M  V30 30 C 2.187455 -2.472650 -3.623152 0
M  V30 31 N 3.126210 -1.859916 -4.400595 0
M  V30 32 C 2.602987 -1.590728 -5.599269 0
M  V30 33 C 1.299248 -2.052812 -5.558544 0
M  V30 34 N 1.036898 -2.596108 -4.347353 0
M  V30 35 C -0.082535 -3.164553 -3.853188 0
M  V30 36 C -1.856995 -4.131582 -0.689389 0
M  V30 37 C -1.460129 -3.275387 0.345898 0
M  V30 38 H -0.128442 -1.442512 1.784411 0
M  V30 39 H -0.247728 -0.580197 5.962900 0
M  V30 40 H -0.077226 -2.258887 5.187094 0
M  V30 41 H 1.755852 -1.478215 3.692665 0
M  V30 42 H 2.852522 0.547517 4.285397 0
M  V30 43 H 1.450231 1.210190 5.201846 0
M  V30 44 H 2.011425 1.143991 2.194039 0
M  V30 45 H 1.815777 2.556362 3.320081 0
M  V30 46 H -1.533026 1.695186 1.523148 0
M  V30 47 H -0.173804 0.764140 0.887508 0
M  V30 48 H -0.631956 6.147394 0.629879 0
M  V30 49 H 1.186266 6.030122 -1.006309 0
M  V30 50 H 2.331277 3.942200 -1.557574 0
M  V30 51 H -0.729676 1.250178 4.789945 0
M  V30 52 H -1.814470 0.844726 3.372096 0
M  V30 53 H -3.864450 -4.140258 2.542605 0
M  V30 54 H -4.487953 -5.588588 0.713817 0
M  V30 55 H -3.776436 -6.338262 -1.909010 0
M  V30 56 H 1.170403 -3.876192 -0.804404 0
M  V30 57 H 3.108543 -2.847334 -1.777505 0
M  V30 58 H 3.197524 -1.102358 -6.358909 0
M  V30 59 H 0.642471 -1.955288 -6.420739 0
M  V30 60 H -0.987341 -3.254438 -4.440860 0
M  V30 61 H -0.606563 -2.636966 0.212744 0
M  V30 END ATOM
M  V30 BEGIN BOND
M  V30 1 2 1 2
M  V30 2 1 2 3
M  V30 3 1 3 4
M  V30 4 1 4 5
M  V30 5 1 5 6
M  V30 6 1 6 7
M  V30 7 1 7 8
M  V30 8 1 8 9
M  V30 9 1 9 10
M  V30 10 1 10 11
M  V30 11 2 11 12
M  V30 12 1 12 13
M  V30 13 1 12 14
M  V30 14 2 14 15
M  V30 15 1 15 16
M  V30 16 2 16 17
M  V30 17 1 17 18
M  V30 18 1 9 19
M  V30 19 1 2 20
M  V30 20 2 20 21
M  V30 21 1 21 22
M  V30 22 2 22 23
M  V30 23 1 23 24
M  V30 24 1 24 25
M  V30 25 2 25 26
M  V30 26 1 26 27
M  V30 27 1 27 28
M  V30 28 2 28 29
M  V30 29 1 29 30
M  V30 30 2 30 31
M  V30 31 1 31 32
M  V30 32 2 32 33
M  V30 33 1 33 34
M  V30 34 1 34 35
M  V30 35 1 26 36
M  V30 36 2 36 37
M  V30 37 1 6 4
M  V30 38 1 17 11
M  V30 39 1 37 20
M  V30 40 1 19 4
M  V30 41 1 36 23
M  V30 42 2 35 27
M  V30 43 1 34 30
M  V30 44 1 3 38
M  V30 45 1 5 39
M  V30 46 1 5 40
M  V30 47 1 6 41
M  V30 48 1 7 42
M  V30 49 1 7 43
M  V30 50 1 8 44
M  V30 51 1 8 45
M  V30 52 1 10 46
M  V30 53 1 10 47
M  V30 54 1 14 48
M  V30 55 1 15 49
M  V30 56 1 16 50
M  V30 57 1 19 51
M  V30 58 1 19 52
M  V30 59 1 21 53
M  V30 60 1 22 54
M  V30 61 1 24 55
M  V30 62 1 28 56
M  V30 63 1 29 57
M  V30 64 1 32 58
M  V30 65 1 33 59
M  V30 66 1 35 60
M  V30 67 1 37 61
M  V30 END BOND
M  V30 END CTAB
M  END
>  <Dataset>  (635) 
ChEMBL_Kinases

>  <Ligand_Instance>  (635) 
nan

>  <PDB_ID>  (635) 
nan

>  <Standardized_SMILES>  (635) 
O=C(NC12CC1CCN(Cc1c(F)cccc1F)C2)c1ccc2[nH]nc(-c3ccc4nccn4c3)c2c1

>  <Name>  (635) 
nan

>  <Pocket>  (635) 
nan

>  <ATP_Site>  (635) 
nan

>  <Peripheral>  (635) 
nan

>  <Num_H_Atoms_ProtBoundConf>  (635) 
nan

>  <Num_Resolved_Atoms>  (635) 
nan

>  <Num_Not_Resolved_Atoms>  (635) 
nan

$$$$
CHEMBL3654602
     RDKit          3D

  0  0  0  0  0  0  0  0  0  0999 V3000
M  V30 BEGIN CTAB
M  V30 COUNTS 65 71 0 0 0
M  V30 BEGIN ATOM
M  V30 1 C 4.620282 2.902433 3.644830 0
M  V30 2 O 4.285261 2.258736 2.444303 0
M  V30 3 C 4.971113 2.500882 1.269851 0
M  V30 4 C 6.027090 3.418327 1.296031 0
M  V30 5 C 6.758520 3.707845 0.148567 0
M  V30 6 C 6.454152 3.089443 -1.051427 0
M  V30 7 C 5.414746 2.182122 -1.092295 0
M  V30 8 F 5.049222 1.534652 -2.212690 0
M  V30 9 C 4.691624 1.894713 0.038115 0
M  V30 10 C 3.540675 0.935823 0.145379 0
M  V30 11 N 2.290075 1.600314 0.211854 0
M  V30 12 C 1.920260 2.407117 -0.852143 0
M  V30 13 C 0.469326 2.703615 -1.061761 0
M  V30 14 C -0.131221 2.724134 0.284890 0
M  V30 15 C -1.141390 1.963819 0.935475 0
M  V30 16 C 0.034787 1.222815 0.645414 0
M  V30 17 N -0.088244 0.226164 -0.404638 0
M  V30 18 C -1.079473 -0.728630 -0.034341 0
M  V30 19 O -1.589122 -0.458469 1.104704 0
M  V30 20 C -1.472523 -1.879549 -0.849630 0
M  V30 21 C -0.911374 -2.153407 -2.080751 0
M  V30 22 C -1.329324 -3.257798 -2.794561 0
M  V30 23 C -2.309685 -4.060147 -2.239979 0
M  V30 24 N -2.883167 -5.177938 -2.722839 0
M  V30 25 N -3.771768 -5.604690 -1.845012 0
M  V30 26 C -3.809170 -4.795778 -0.778020 0
M  V30 27 C -4.658646 -4.930734 0.402025 0
M  V30 28 C -4.695279 -6.242968 0.889482 0
M  V30 29 C -5.454212 -6.551459 2.006671 0
M  V30 30 C -6.161334 -5.509454 2.603379 0
M  V30 31 N -6.972741 -5.506223 3.686921 0
M  V30 32 C -7.440557 -4.246220 3.891263 0
M  V30 33 C -6.883070 -3.468607 2.886403 0
M  V30 34 N -6.110219 -4.253544 2.115638 0
M  V30 35 C -5.379092 -3.934778 1.032046 0
M  V30 36 C -2.882797 -3.796707 -1.002917 0
M  V30 37 C -2.450453 -2.688293 -0.307038 0
M  V30 38 C 1.377986 1.193562 1.213801 0
M  V30 39 H 3.799864 2.812085 4.386244 0
M  V30 40 H 4.749886 4.013696 3.501005 0
M  V30 41 H 5.536658 2.534316 4.119629 0
M  V30 42 H 6.325260 3.941845 2.193275 0
M  V30 43 H 7.578628 4.419122 0.164639 0
M  V30 44 H 7.006032 3.295604 -1.958143 0
M  V30 45 H 3.596738 0.290208 -0.774184 0
M  V30 46 H 3.689552 0.261384 0.996641 0
M  V30 47 H 2.287904 1.939606 -1.808526 0
M  V30 48 H 2.450403 3.392523 -0.767245 0
M  V30 49 H -0.045333 2.035322 -1.782360 0
M  V30 50 H 0.345922 3.727717 -1.503331 0
M  V30 51 H 0.400768 3.484618 0.910555 0
M  V30 52 H -2.068806 1.763428 0.374957 0
M  V30 53 H -1.370979 2.178837 1.995943 0
M  V30 54 H 0.396018 0.094571 -1.332343 0
M  V30 55 H -0.147126 -1.500879 -2.478991 0
M  V30 56 H -0.902510 -3.489941 -3.760854 0
M  V30 57 H -2.664264 -5.632894 -3.636400 0
M  V30 58 H -4.153857 -7.075581 0.444569 0
M  V30 59 H -5.488107 -7.559837 2.389256 0
M  V30 60 H -8.111634 -3.867675 4.661809 0
M  V30 61 H -7.054415 -2.404483 2.760120 0
M  V30 62 H -5.290226 -2.953059 0.585370 0
M  V30 63 H -2.926969 -2.522127 0.655380 0
M  V30 64 H 1.668588 0.168322 1.571609 0
M  V30 65 H 1.410687 1.824343 2.129165 0
M  V30 END ATOM
M  V30 BEGIN BOND
M  V30 1 1 1 2
M  V30 2 1 2 3
M  V30 3 2 3 4
M  V30 4 1 4 5
M  V30 5 2 5 6
M  V30 6 1 6 7
M  V30 7 1 7 8
M  V30 8 2 7 9
M  V30 9 1 9 10
M  V30 10 1 10 11
M  V30 11 1 11 12
M  V30 12 1 12 13
M  V30 13 1 13 14
M  V30 14 1 14 15
M  V30 15 1 15 16
M  V30 16 1 16 17
M  V30 17 1 17 18
M  V30 18 2 18 19
M  V30 19 1 18 20
M  V30 20 2 20 21
M  V30 21 1 21 22
M  V30 22 2 22 23
M  V30 23 1 23 24
M  V30 24 1 24 25
M  V30 25 2 25 26
M  V30 26 1 26 27
M  V30 27 1 27 28
M  V30 28 2 28 29
M  V30 29 1 29 30
M  V30 30 2 30 31
M  V30 31 1 31 32
M  V30 32 2 32 33
M  V30 33 1 33 34
M  V30 34 1 34 35
M  V30 35 1 26 36
M  V30 36 2 36 37
M  V30 37 1 16 38
M  V30 38 1 9 3
M  V30 39 1 38 11
M  V30 40 1 16 14
M  V30 41 1 37 20
M  V30 42 1 36 23
M  V30 43 2 35 27
M  V30 44 1 34 30
M  V30 45 1 1 39
M  V30 46 1 1 40
M  V30 47 1 1 41
M  V30 48 1 4 42
M  V30 49 1 5 43
M  V30 50 1 6 44
M  V30 51 1 10 45
M  V30 52 1 10 46
M  V30 53 1 12 47
M  V30 54 1 12 48
M  V30 55 1 13 49
M  V30 56 1 13 50
M  V30 57 1 14 51
M  V30 58 1 15 52
M  V30 59 1 15 53
M  V30 60 1 17 54
M  V30 61 1 21 55
M  V30 62 1 22 56
M  V30 63 1 24 57
M  V30 64 1 28 58
M  V30 65 1 29 59
M  V30 66 1 32 60
M  V30 67 1 33 61
M  V30 68 1 35 62
M  V30 69 1 37 63
M  V30 70 1 38 64
M  V30 71 1 38 65
M  V30 END BOND
M  V30 END CTAB
M  END
>  <Dataset>  (636) 
ChEMBL_Kinases

>  <Ligand_Instance>  (636) 
nan

>  <PDB_ID>  (636) 
nan

>  <Standardized_SMILES>  (636) 
COc1cccc(F)c1CN1CCC2CC2(NC(=O)c2ccc3[nH]nc(-c4ccc5nccn5c4)c3c2)C1

>  <Name>  (636) 
nan

>  <Pocket>  (636) 
nan

>  <ATP_Site>  (636) 
nan

>  <Peripheral>  (636) 
nan

>  <Num_H_Atoms_ProtBoundConf>  (636) 
nan

>  <Num_Resolved_Atoms>  (636) 
nan

>  <Num_Not_Resolved_Atoms>  (636) 
nan

$$$$
CHEMBL3654603
     RDKit          3D

  0  0  0  0  0  0  0  0  0  0999 V3000
M  V30 BEGIN CTAB
M  V30 COUNTS 63 67 0 0 0
M  V30 BEGIN ATOM
M  V30 1 C 1.822326 -4.407593 2.605493 0
M  V30 2 N 1.399491 -3.628630 1.449694 0
M  V30 3 C 1.131717 -2.290842 1.878434 0
M  V30 4 C 0.763052 -1.448148 0.680991 0 CFG=2
M  V30 5 N 0.595412 -0.064341 0.991312 0
M  V30 6 C 1.386806 1.011198 0.504578 0
M  V30 7 O 2.334960 0.742019 -0.278129 0
M  V30 8 C 1.168521 2.416486 0.856894 0
M  V30 9 C 2.037801 3.340975 0.303656 0
M  V30 10 C 1.863682 4.688647 0.611550 0
M  V30 11 C 0.864127 5.153263 1.443988 0
M  V30 12 N 0.454661 6.343324 1.912106 0
M  V30 13 N -0.598789 6.174832 2.703891 0
M  V30 14 C -0.898337 4.850316 2.765938 0
M  V30 15 C -2.009649 4.329185 3.555955 0
M  V30 16 C -1.996553 3.234305 4.396045 0
M  V30 17 C -3.150322 2.875006 5.074179 0
M  V30 18 N -4.304946 3.569170 4.940000 0
M  V30 19 C -4.348753 4.643562 4.126440 0
M  V30 20 C -3.201524 5.023269 3.434756 0
M  V30 21 C 0.017931 4.179818 1.972915 0
M  V30 22 C 0.153028 2.825459 1.694454 0
M  V30 23 C -0.438516 -2.100084 0.032453 0
M  V30 24 C -0.878041 -3.363420 0.713617 0
M  V30 25 C 0.304052 -4.299621 0.830525 0 CFG=1
M  V30 26 C 0.669976 -4.840857 -0.515755 0
M  V30 27 O 1.820811 -4.653293 -0.954615 0
M  V30 28 N -0.280913 -5.555985 -1.276650 0
M  V30 29 C -0.086941 -6.134537 -2.579055 0
M  V30 30 C -0.129782 -5.052950 -3.596978 0
M  V30 31 C -1.412340 -4.788489 -4.094325 0
M  V30 32 C -1.695314 -3.827379 -5.046936 0
M  V30 33 C -0.637479 -3.073131 -5.544817 0
M  V30 34 C 0.629879 -3.326692 -5.060836 0
M  V30 35 C 0.891127 -4.293927 -4.106642 0
M  V30 36 H 2.759831 -4.027463 3.048806 0
M  V30 37 H 1.906844 -5.468391 2.270014 0
M  V30 38 H 0.959833 -4.409238 3.325289 0
M  V30 39 H 2.063512 -1.889553 2.369292 0
M  V30 40 H 0.329885 -2.247680 2.637352 0
M  V30 41 H 1.618533 -1.536631 -0.020798 0
M  V30 42 H -0.194172 0.151617 1.642742 0
M  V30 43 H 2.859944 3.088063 -0.364206 0
M  V30 44 H 2.497964 5.494658 0.225298 0
M  V30 45 H 0.911801 7.267297 1.677034 0
M  V30 46 H -1.054324 2.724266 4.462107 0
M  V30 47 H -3.087629 2.000759 5.726219 0
M  V30 48 H -5.299025 5.139501 4.073920 0
M  V30 49 H -3.390071 5.898901 2.824463 0
M  V30 50 H -0.518524 2.109266 2.121856 0
M  V30 51 H -0.348133 -2.182590 -1.049169 0
M  V30 52 H -1.281264 -1.367892 0.205299 0
M  V30 53 H -1.251938 -3.160037 1.727910 0
M  V30 54 H -1.687526 -3.792107 0.093632 0
M  V30 55 H -0.037220 -5.164168 1.436226 0
M  V30 56 H -1.233338 -5.674468 -0.835834 0
M  V30 57 H -0.849605 -6.900719 -2.795976 0
M  V30 58 H 0.907060 -6.632714 -2.643659 0
M  V30 59 H -2.297897 -5.344732 -3.747533 0
M  V30 60 H -2.687033 -3.652426 -5.403470 0
M  V30 61 H -0.815569 -2.320012 -6.283167 0
M  V30 62 H 1.464269 -2.752994 -5.433240 0
M  V30 63 H 1.857168 -4.533991 -3.695239 0
M  V30 END ATOM
M  V30 BEGIN BOND
M  V30 1 1 1 2
M  V30 2 1 2 3
M  V30 3 1 3 4
M  V30 4 1 4 5
M  V30 5 1 5 6
M  V30 6 2 6 7
M  V30 7 1 6 8
M  V30 8 2 8 9
M  V30 9 1 9 10
M  V30 10 2 10 11
M  V30 11 1 11 12
M  V30 12 1 12 13
M  V30 13 2 13 14
M  V30 14 1 14 15
M  V30 15 2 15 16
M  V30 16 1 16 17
M  V30 17 2 17 18
M  V30 18 1 18 19
M  V30 19 2 19 20
M  V30 20 1 14 21
M  V30 21 2 21 22
M  V30 22 1 4 23
M  V30 23 1 23 24
M  V30 24 1 24 25
M  V30 25 1 25 26
M  V30 26 2 26 27
M  V30 27 1 26 28
M  V30 28 1 28 29
M  V30 29 1 29 30
M  V30 30 2 30 31
M  V30 31 1 31 32
M  V30 32 2 32 33
M  V30 33 1 33 34
M  V30 34 2 34 35
M  V30 35 1 25 2
M  V30 36 1 35 30
M  V30 37 1 22 8
M  V30 38 1 21 11
M  V30 39 1 20 15
M  V30 40 1 1 36
M  V30 41 1 1 37
M  V30 42 1 1 38
M  V30 43 1 3 39
M  V30 44 1 3 40
M  V30 45 1 4 41 CFG=3
M  V30 46 1 5 42
M  V30 47 1 9 43
M  V30 48 1 10 44
M  V30 49 1 12 45
M  V30 50 1 16 46
M  V30 51 1 17 47
M  V30 52 1 19 48
M  V30 53 1 20 49
M  V30 54 1 22 50
M  V30 55 1 23 51
M  V30 56 1 23 52
M  V30 57 1 24 53
M  V30 58 1 24 54
M  V30 59 1 25 55 CFG=1
M  V30 60 1 28 56
M  V30 61 1 29 57
M  V30 62 1 29 58
M  V30 63 1 31 59
M  V30 64 1 32 60
M  V30 65 1 33 61
M  V30 66 1 34 62
M  V30 67 1 35 63
M  V30 END BOND
M  V30 END CTAB
M  END
>  <Dataset>  (637) 
ChEMBL_Kinases

>  <Ligand_Instance>  (637) 
nan

>  <PDB_ID>  (637) 
nan

>  <Standardized_SMILES>  (637) 
CN1C[C@H](NC(=O)c2ccc3[nH]nc(-c4ccncc4)c3c2)CC[C@H]1C(=O)NCc1ccccc1

>  <Name>  (637) 
nan

>  <Pocket>  (637) 
nan

>  <ATP_Site>  (637) 
nan

>  <Peripheral>  (637) 
nan

>  <Num_H_Atoms_ProtBoundConf>  (637) 
nan

>  <Num_Resolved_Atoms>  (637) 
nan

>  <Num_Not_Resolved_Atoms>  (637) 
nan

$$$$
CHEMBL3654604
     RDKit          3D

  0  0  0  0  0  0  0  0  0  0999 V3000
M  V30 BEGIN CTAB
M  V30 COUNTS 60 64 0 0 0
M  V30 BEGIN ATOM
M  V30 1 C 1.410910 0.229651 3.568577 0
M  V30 2 O 1.889893 0.947788 2.466393 0
M  V30 3 C 3.242213 0.893372 2.119781 0
M  V30 4 C 4.096655 0.125286 2.879161 0
M  V30 5 C 5.450064 0.046784 2.573604 0
M  V30 6 C 5.894276 0.763918 1.488392 0
M  V30 7 C 4.986450 1.511235 0.771602 0
M  V30 8 C 3.627043 1.620019 1.037613 0
M  V30 9 C 2.810053 2.439005 0.128074 0
M  V30 10 N 2.177148 1.706255 -0.890547 0
M  V30 11 C 1.272451 0.671342 -0.604797 0
M  V30 12 C -0.099529 1.216354 -0.285122 0
M  V30 13 N -0.975237 0.160549 0.166690 0
M  V30 14 C -1.757511 0.111429 1.375301 0
M  V30 15 O -1.778815 1.030682 2.229646 0
M  V30 16 C -2.572014 -1.069221 1.626982 0
M  V30 17 C -3.336368 -1.126050 2.771795 0
M  V30 18 C -4.156632 -2.166078 3.156141 0
M  V30 19 C -4.198829 -3.251748 2.285883 0
M  V30 20 N -4.871935 -4.436605 2.311901 0
M  V30 21 N -4.579254 -5.153189 1.235127 0
M  V30 22 C -3.701730 -4.463647 0.461772 0
M  V30 23 C -3.136650 -4.914150 -0.815743 0
M  V30 24 C -3.820016 -5.478974 -1.873018 0
M  V30 25 C -3.105204 -5.846702 -3.002336 0
M  V30 26 N -1.771308 -5.671842 -3.101662 0
M  V30 27 C -1.075624 -5.121561 -2.082831 0
M  V30 28 C -1.754650 -4.734410 -0.921580 0
M  V30 29 C -3.449358 -3.266783 1.102490 0
M  V30 30 C -2.660233 -2.173716 0.812467 0
M  V30 31 C -0.643169 1.917352 -1.507990 0
M  V30 32 C 0.392138 2.210430 -2.534750 0
M  V30 33 F 0.403723 1.217716 -3.521999 0
M  V30 34 F -0.017317 3.370167 -3.210006 0
M  V30 35 C 1.758292 2.487083 -2.027088 0
M  V30 36 H 1.373118 -0.858653 3.360783 0
M  V30 37 H 0.370197 0.540931 3.842743 0
M  V30 38 H 2.085135 0.366000 4.462300 0
M  V30 39 H 3.789044 -0.450794 3.732679 0
M  V30 40 H 6.131745 -0.536621 3.139986 0
M  V30 41 H 6.944521 0.731376 1.215100 0
M  V30 42 H 5.421878 2.055131 -0.080458 0
M  V30 43 H 3.509080 3.170304 -0.384744 0
M  V30 44 H 2.122916 3.120148 0.694202 0
M  V30 45 H 1.108243 0.130406 -1.607285 0
M  V30 46 H 1.584742 -0.131820 0.058255 0
M  V30 47 H -0.034808 1.972202 0.516904 0
M  V30 48 H -0.935830 -0.565352 -0.551575 0
M  V30 49 H -3.333785 -0.291969 3.488060 0
M  V30 50 H -4.733953 -2.152407 4.069285 0
M  V30 51 H -5.525193 -4.728975 3.079721 0
M  V30 52 H -4.876685 -5.589428 -1.729452 0
M  V30 53 H -3.653528 -6.286987 -3.821599 0
M  V30 54 H -0.027862 -5.026447 -2.259515 0
M  V30 55 H -1.054091 -4.317735 -0.209144 0
M  V30 56 H -2.079340 -2.170586 -0.097779 0
M  V30 57 H -1.368353 1.198482 -1.965242 0
M  V30 58 H -1.214275 2.816852 -1.248343 0
M  V30 59 H 2.486010 2.282009 -2.850820 0
M  V30 60 H 1.917824 3.577225 -1.779117 0
M  V30 END ATOM
M  V30 BEGIN BOND
M  V30 1 1 1 2
M  V30 2 1 2 3
M  V30 3 2 3 4
M  V30 4 1 4 5
M  V30 5 2 5 6
M  V30 6 1 6 7
M  V30 7 2 7 8
M  V30 8 1 8 9
M  V30 9 1 9 10
M  V30 10 1 10 11
M  V30 11 1 11 12
M  V30 12 1 12 13
M  V30 13 1 13 14
M  V30 14 2 14 15
M  V30 15 1 14 16
M  V30 16 2 16 17
M  V30 17 1 17 18
M  V30 18 2 18 19
M  V30 19 1 19 20
M  V30 20 1 20 21
M  V30 21 2 21 22
M  V30 22 1 22 23
M  V30 23 2 23 24
M  V30 24 1 24 25
M  V30 25 2 25 26
M  V30 26 1 26 27
M  V30 27 2 27 28
M  V30 28 1 22 29
M  V30 29 2 29 30
M  V30 30 1 12 31
M  V30 31 1 31 32
M  V30 32 1 32 33
M  V30 33 1 32 34
M  V30 34 1 32 35
M  V30 35 1 8 3
M  V30 36 1 35 10
M  V30 37 1 30 16
M  V30 38 1 29 19
M  V30 39 1 28 23
M  V30 40 1 1 36
M  V30 41 1 1 37
M  V30 42 1 1 38
M  V30 43 1 4 39
M  V30 44 1 5 40
M  V30 45 1 6 41
M  V30 46 1 7 42
M  V30 47 1 9 43
M  V30 48 1 9 44
M  V30 49 1 11 45
M  V30 50 1 11 46
M  V30 51 1 12 47
M  V30 52 1 13 48
M  V30 53 1 17 49
M  V30 54 1 18 50
M  V30 55 1 20 51
M  V30 56 1 24 52
M  V30 57 1 25 53
M  V30 58 1 27 54
M  V30 59 1 28 55
M  V30 60 1 30 56
M  V30 61 1 31 57
M  V30 62 1 31 58
M  V30 63 1 35 59
M  V30 64 1 35 60
M  V30 END BOND
M  V30 END CTAB
M  END
>  <Dataset>  (638) 
ChEMBL_Kinases

>  <Ligand_Instance>  (638) 
nan

>  <PDB_ID>  (638) 
nan

>  <Standardized_SMILES>  (638) 
COc1ccccc1CN1CC(NC(=O)c2ccc3[nH]nc(-c4ccncc4)c3c2)CC(F)(F)C1

>  <Name>  (638) 
nan

>  <Pocket>  (638) 
nan

>  <ATP_Site>  (638) 
nan

>  <Peripheral>  (638) 
nan

>  <Num_H_Atoms_ProtBoundConf>  (638) 
nan

>  <Num_Resolved_Atoms>  (638) 
nan

>  <Num_Not_Resolved_Atoms>  (638) 
nan

$$$$
CHEMBL3654605
     RDKit          3D

  0  0  0  0  0  0  0  0  0  0999 V3000
M  V30 BEGIN CTAB
M  V30 COUNTS 62 66 0 0 0
M  V30 BEGIN ATOM
M  V30 1 C 2.265547 -0.621259 3.031671 0
M  V30 2 C 3.271466 -1.039705 2.055130 0
M  V30 3 C 4.536373 -1.266474 2.548361 0
M  V30 4 C 5.540214 -1.717574 1.724131 0
M  V30 5 C 5.191726 -1.916829 0.420150 0
M  V30 6 C 3.915049 -1.689929 -0.089056 0
M  V30 7 C 3.761064 -1.965635 -1.536966 0
M  V30 8 C 2.893640 -1.229571 0.745405 0
M  V30 9 C 1.662948 -0.998418 0.022628 0
M  V30 10 N 1.390436 0.241865 -0.579711 0
M  V30 11 C 1.372819 1.393060 0.166324 0
M  V30 12 C 0.160571 2.307576 -0.072068 0
M  V30 13 N -1.032221 1.642879 0.333136 0
M  V30 14 C -2.164622 2.021062 1.104899 0
M  V30 15 O -2.297417 3.189735 1.605334 0
M  V30 16 C -3.267296 1.104459 1.385201 0
M  V30 17 C -4.420404 1.589045 1.929125 0
M  V30 18 C -5.461495 0.701364 2.215909 0
M  V30 19 C -5.343031 -0.661761 1.957479 0
M  V30 20 N -6.125602 -1.748594 2.112746 0
M  V30 21 N -5.508974 -2.845816 1.694468 0
M  V30 22 C -4.277848 -2.553081 1.235664 0
M  V30 23 C -3.166162 -3.323779 0.684955 0
M  V30 24 C -2.500191 -2.956879 -0.464526 0
M  V30 25 C -1.428797 -3.697737 -0.957938 0
M  V30 26 N -1.003147 -4.792977 -0.339873 0
M  V30 27 C -1.619787 -5.201217 0.792959 0
M  V30 28 C -2.683496 -4.482793 1.300900 0
M  V30 29 C -4.192062 -1.165395 1.411172 0
M  V30 30 C -3.194780 -0.243734 1.147638 0
M  V30 31 C 0.212317 2.609364 -1.544100 0
M  V30 32 C 0.132809 1.382527 -2.399687 0
M  V30 33 F 0.617344 1.740418 -3.655726 0
M  V30 34 F -1.235579 1.141833 -2.614192 0
M  V30 35 C 0.726047 0.163191 -1.841594 0
M  V30 36 H 2.594641 0.373961 3.451100 0
M  V30 37 H 1.234591 -0.569266 2.704584 0
M  V30 38 H 2.267971 -1.302707 3.932082 0
M  V30 39 H 4.768460 -1.096164 3.583644 0
M  V30 40 H 6.522037 -1.893217 2.090798 0
M  V30 41 H 6.007289 -2.277018 -0.224327 0
M  V30 42 H 4.659712 -2.460014 -1.941070 0
M  V30 43 H 3.642586 -0.965697 -2.025797 0
M  V30 44 H 2.905768 -2.586120 -1.803636 0
M  V30 45 H 1.409340 -1.873035 -0.671753 0
M  V30 46 H 0.838398 -1.132326 0.808428 0
M  V30 47 H 1.473285 1.286399 1.243013 0
M  V30 48 H 2.238850 2.054048 -0.181134 0
M  V30 49 H 0.346250 3.266561 0.460374 0
M  V30 50 H -0.988419 0.682041 -0.072318 0
M  V30 51 H -4.573077 2.615542 2.149107 0
M  V30 52 H -6.390718 1.070970 2.650948 0
M  V30 53 H -7.093011 -1.722772 2.510262 0
M  V30 54 H -2.806905 -2.070025 -1.029274 0
M  V30 55 H -0.959342 -3.339555 -1.863117 0
M  V30 56 H -1.301460 -6.091661 1.328320 0
M  V30 57 H -3.179385 -4.814557 2.215232 0
M  V30 58 H -2.270301 -0.605930 0.727175 0
M  V30 59 H -0.536385 3.359544 -1.800845 0
M  V30 60 H 1.219893 3.079155 -1.734244 0
M  V30 61 H -0.008347 -0.691679 -1.766340 0
M  V30 62 H 1.449637 -0.227937 -2.587452 0
M  V30 END ATOM
M  V30 BEGIN BOND
M  V30 1 1 1 2
M  V30 2 2 2 3
M  V30 3 1 3 4
M  V30 4 2 4 5
M  V30 5 1 5 6
M  V30 6 1 6 7
M  V30 7 2 6 8
M  V30 8 1 8 9
M  V30 9 1 9 10
M  V30 10 1 10 11
M  V30 11 1 11 12
M  V30 12 1 12 13
M  V30 13 1 13 14
M  V30 14 2 14 15
M  V30 15 1 14 16
M  V30 16 2 16 17
M  V30 17 1 17 18
M  V30 18 2 18 19
M  V30 19 1 19 20
M  V30 20 1 20 21
M  V30 21 2 21 22
M  V30 22 1 22 23
M  V30 23 2 23 24
M  V30 24 1 24 25
M  V30 25 2 25 26
M  V30 26 1 26 27
M  V30 27 2 27 28
M  V30 28 1 22 29
M  V30 29 2 29 30
M  V30 30 1 12 31
M  V30 31 1 31 32
M  V30 32 1 32 33
M  V30 33 1 32 34
M  V30 34 1 32 35
M  V30 35 1 8 2
M  V30 36 1 35 10
M  V30 37 1 30 16
M  V30 38 1 29 19
M  V30 39 1 28 23
M  V30 40 1 1 36
M  V30 41 1 1 37
M  V30 42 1 1 38
M  V30 43 1 3 39
M  V30 44 1 4 40
M  V30 45 1 5 41
M  V30 46 1 7 42
M  V30 47 1 7 43
M  V30 48 1 7 44
M  V30 49 1 9 45
M  V30 50 1 9 46
M  V30 51 1 11 47
M  V30 52 1 11 48
M  V30 53 1 12 49
M  V30 54 1 13 50
M  V30 55 1 17 51
M  V30 56 1 18 52
M  V30 57 1 20 53
M  V30 58 1 24 54
M  V30 59 1 25 55
M  V30 60 1 27 56
M  V30 61 1 28 57
M  V30 62 1 30 58
M  V30 63 1 31 59
M  V30 64 1 31 60
M  V30 65 1 35 61
M  V30 66 1 35 62
M  V30 END BOND
M  V30 END CTAB
M  END
>  <Dataset>  (639) 
ChEMBL_Kinases

>  <Ligand_Instance>  (639) 
nan

>  <PDB_ID>  (639) 
nan

>  <Standardized_SMILES>  (639) 
Cc1cccc(C)c1CN1CC(NC(=O)c2ccc3[nH]nc(-c4ccncc4)c3c2)CC(F)(F)C1

>  <Name>  (639) 
nan

>  <Pocket>  (639) 
nan

>  <ATP_Site>  (639) 
nan

>  <Peripheral>  (639) 
nan

>  <Num_H_Atoms_ProtBoundConf>  (639) 
nan

>  <Num_Resolved_Atoms>  (639) 
nan

>  <Num_Not_Resolved_Atoms>  (639) 
nan

$$$$
CHEMBL3654606
     RDKit          3D

  0  0  0  0  0  0  0  0  0  0999 V3000
M  V30 BEGIN CTAB
M  V30 COUNTS 66 70 0 0 0
M  V30 BEGIN ATOM
M  V30 1 C 3.305939 -5.287454 4.234144 0
M  V30 2 O 2.612334 -4.610915 3.204272 0
M  V30 3 C 2.449439 -3.232979 3.162633 0
M  V30 4 O 3.035476 -2.817806 4.194486 0
M  V30 5 C 1.664179 -2.873588 1.930492 0 CFG=2
M  V30 6 C 2.461888 -3.401781 0.777359 0
M  V30 7 C 1.928992 -2.886292 -0.536986 0
M  V30 8 C 1.978722 -1.371918 -0.610031 0 CFG=1
M  V30 9 N 0.836729 -0.955418 -1.303232 0
M  V30 10 C 0.641728 -0.356492 -2.568907 0
M  V30 11 O 1.667015 -0.143451 -3.220872 0
M  V30 12 C -0.679884 -0.009827 -3.079063 0
M  V30 13 C -0.702249 0.579789 -4.342069 0
M  V30 14 C -1.896582 0.965156 -4.959860 0
M  V30 15 C -3.027113 0.709401 -4.211342 0
M  V30 16 N -4.329399 0.946540 -4.491861 0
M  V30 17 N -5.105806 0.546814 -3.496432 0
M  V30 18 C -4.340104 0.034372 -2.529988 0
M  V30 19 C -4.840079 -0.505578 -1.282994 0
M  V30 20 C -5.944760 -1.349685 -1.376910 0
M  V30 21 C -6.551819 -1.953295 -0.287102 0
M  V30 22 N -6.027272 -1.697439 0.942429 0
M  V30 23 C -4.953128 -0.881897 1.076667 0
M  V30 24 C -4.350625 -0.281872 -0.013307 0
M  V30 25 C -3.030697 0.126212 -2.957628 0
M  V30 26 C -1.824923 -0.238521 -2.386118 0
M  V30 27 C 2.269732 -0.891225 0.750773 0
M  V30 28 N 1.436853 -1.479446 1.773179 0
M  V30 29 C 1.435038 -0.738684 3.000526 0
M  V30 30 C 0.949300 0.657751 2.864989 0
M  V30 31 C -0.403720 0.847947 2.710660 0
M  V30 32 F -1.267506 -0.204696 2.678276 0
M  V30 33 C -0.903601 2.118647 2.586217 0
M  V30 34 C -0.022784 3.197237 2.619176 0
M  V30 35 C 1.333775 2.990481 2.774916 0
M  V30 36 C 1.855460 1.722658 2.901617 0
M  V30 37 O 3.236036 1.522163 3.060414 0
M  V30 38 C 4.099532 2.629159 3.090213 0
M  V30 39 H 2.688126 -6.204357 4.450340 0
M  V30 40 H 3.414556 -4.694688 5.160482 0
M  V30 41 H 4.294970 -5.662859 3.898752 0
M  V30 42 H 0.648750 -3.355254 1.977955 0
M  V30 43 H 2.313766 -4.499019 0.763932 0
M  V30 44 H 3.540666 -3.230231 0.869651 0
M  V30 45 H 0.857818 -3.173695 -0.541173 0
M  V30 46 H 2.490558 -3.378996 -1.346557 0
M  V30 47 H 2.873213 -1.149976 -1.267503 0
M  V30 48 H 0.025359 -1.171949 -0.681152 0
M  V30 49 H 0.217099 0.763182 -4.897681 0
M  V30 50 H -1.911337 1.416985 -5.928055 0
M  V30 51 H -4.677505 1.386382 -5.375731 0
M  V30 52 H -6.388610 -1.575437 -2.340991 0
M  V30 53 H -7.409417 -2.601247 -0.421839 0
M  V30 54 H -4.521916 -0.666975 2.048240 0
M  V30 55 H -3.493672 0.375879 0.033579 0
M  V30 56 H -1.812361 -0.687961 -1.422803 0
M  V30 57 H 3.313473 -1.187551 0.991851 0
M  V30 58 H 2.220733 0.197338 0.905557 0
M  V30 59 H 0.761815 -1.239265 3.725427 0
M  V30 60 H 2.453642 -0.687223 3.466757 0
M  V30 61 H -1.970937 2.237457 2.466200 0
M  V30 62 H -0.454140 4.185010 2.517755 0
M  V30 63 H 1.981320 3.855074 2.795180 0
M  V30 64 H 5.152378 2.233574 3.013313 0
M  V30 65 H 4.049293 3.142782 4.085824 0
M  V30 66 H 3.903026 3.374649 2.291191 0
M  V30 END ATOM
M  V30 BEGIN BOND
M  V30 1 1 1 2
M  V30 2 1 2 3
M  V30 3 2 3 4
M  V30 4 1 3 5
M  V30 5 1 5 6
M  V30 6 1 6 7
M  V30 7 1 7 8
M  V30 8 1 8 9
M  V30 9 1 9 10
M  V30 10 2 10 11
M  V30 11 1 10 12
M  V30 12 2 12 13
M  V30 13 1 13 14
M  V30 14 2 14 15
M  V30 15 1 15 16
M  V30 16 1 16 17
M  V30 17 2 17 18
M  V30 18 1 18 19
M  V30 19 2 19 20
M  V30 20 1 20 21
M  V30 21 2 21 22
M  V30 22 1 22 23
M  V30 23 2 23 24
M  V30 24 1 18 25
M  V30 25 2 25 26
M  V30 26 1 8 27
M  V30 27 1 27 28
M  V30 28 1 28 29
M  V30 29 1 29 30
M  V30 30 2 30 31
M  V30 31 1 31 32
M  V30 32 1 31 33
M  V30 33 2 33 34
M  V30 34 1 34 35
M  V30 35 2 35 36
M  V30 36 1 36 37
M  V30 37 1 37 38
M  V30 38 1 28 5
M  V30 39 1 36 30
M  V30 40 1 26 12
M  V30 41 1 25 15
M  V30 42 1 24 19
M  V30 43 1 1 39
M  V30 44 1 1 40
M  V30 45 1 1 41
M  V30 46 1 5 42 CFG=1
M  V30 47 1 6 43
M  V30 48 1 6 44
M  V30 49 1 7 45
M  V30 50 1 7 46
M  V30 51 1 8 47 CFG=3
M  V30 52 1 9 48
M  V30 53 1 13 49
M  V30 54 1 14 50
M  V30 55 1 16 51
M  V30 56 1 20 52
M  V30 57 1 21 53
M  V30 58 1 23 54
M  V30 59 1 24 55
M  V30 60 1 26 56
M  V30 61 1 27 57
M  V30 62 1 27 58
M  V30 63 1 29 59
M  V30 64 1 29 60
M  V30 65 1 33 61
M  V30 66 1 34 62
M  V30 67 1 35 63
M  V30 68 1 38 64
M  V30 69 1 38 65
M  V30 70 1 38 66
M  V30 END BOND
M  V30 END CTAB
M  END
>  <Dataset>  (640) 
ChEMBL_Kinases

>  <Ligand_Instance>  (640) 
nan

>  <PDB_ID>  (640) 
nan

>  <Standardized_SMILES>  (640) 
COC(=O)[C@@H]1CC[C@@H](NC(=O)c2ccc3[nH]nc(-c4ccncc4)c3c2)CN1Cc1c(F)cccc1OC

>  <Name>  (640) 
nan

>  <Pocket>  (640) 
nan

>  <ATP_Site>  (640) 
nan

>  <Peripheral>  (640) 
nan

>  <Num_H_Atoms_ProtBoundConf>  (640) 
nan

>  <Num_Resolved_Atoms>  (640) 
nan

>  <Num_Not_Resolved_Atoms>  (640) 
nan

$$$$
CHEMBL3654607
     RDKit          3D

  0  0  0  0  0  0  0  0  0  0999 V3000
M  V30 BEGIN CTAB
M  V30 COUNTS 66 71 0 0 0
M  V30 BEGIN ATOM
M  V30 1 C 2.742183 -1.027352 5.796340 0
M  V30 2 O 2.515514 0.103508 5.006249 0
M  V30 3 C 3.231084 0.515201 3.916590 0
M  V30 4 C 4.320685 -0.186517 3.448117 0
M  V30 5 C 4.981140 0.302947 2.342278 0
M  V30 6 C 4.594342 1.472398 1.682149 0
M  V30 7 C 3.485200 2.141397 2.199835 0
M  V30 8 F 3.097636 3.283513 1.565195 0
M  V30 9 C 2.780999 1.691007 3.314586 0
M  V30 10 C 1.609291 2.423760 3.853407 0
M  V30 11 N 0.347821 1.771482 3.521995 0
M  V30 12 C -0.682961 2.582149 4.132649 0
M  V30 13 C -2.048832 2.308390 3.613111 0 CFG=2
M  V30 14 C -2.930607 1.950012 4.813114 0
M  V30 15 C -2.134748 1.146069 2.675678 0
M  V30 16 C -1.012722 1.079146 1.675399 0 CFG=2
M  V30 17 N -0.775807 -0.296415 1.231852 0
M  V30 18 C -1.034794 -0.696179 -0.117883 0
M  V30 19 O -1.473372 0.162215 -0.925627 0
M  V30 20 C -0.758705 -2.099853 -0.433552 0
M  V30 21 C -0.226323 -3.073847 0.360431 0
M  V30 22 C -0.028093 -4.353582 -0.066427 0
M  V30 23 C -0.368592 -4.738319 -1.366293 0
M  V30 24 N -0.296854 -5.889695 -2.057079 0
M  V30 25 N -0.780190 -5.652296 -3.283084 0
M  V30 26 C -1.160650 -4.365361 -3.388632 0
M  V30 27 C -1.732472 -3.811800 -4.608077 0
M  V30 28 C -2.717180 -4.334430 -5.420374 0
M  V30 29 C -3.179330 -3.721676 -6.557840 0
M  V30 30 C -2.652022 -2.498722 -6.954072 0
M  V30 31 N -3.092210 -1.894433 -8.054416 0
M  V30 32 C -2.578270 -0.767094 -8.382423 0
M  V30 33 S -1.274747 -0.395075 -7.026115 0
M  V30 34 C -1.627818 -1.985950 -6.082563 0
M  V30 35 C -1.169978 -2.608165 -4.942515 0
M  V30 36 C -0.907700 -3.758425 -2.175524 0
M  V30 37 C -1.106277 -2.464766 -1.739832 0
M  V30 38 C 0.247270 1.769282 2.099398 0
M  V30 39 H 1.787077 -1.493769 6.156666 0
M  V30 40 H 3.365766 -0.853404 6.687338 0
M  V30 41 H 3.237065 -1.806779 5.185933 0
M  V30 42 H 4.663501 -1.090123 3.914584 0
M  V30 43 H 5.847148 -0.218324 1.936366 0
M  V30 44 H 5.119479 1.842009 0.820127 0
M  V30 45 H 1.713637 2.565799 4.947562 0
M  V30 46 H 1.628002 3.471351 3.430113 0
M  V30 47 H -0.593016 2.394848 5.238149 0
M  V30 48 H -0.428068 3.647926 3.976762 0
M  V30 49 H -2.503426 3.226922 3.173959 0
M  V30 50 H -2.551662 0.977333 5.206901 0
M  V30 51 H -3.982933 1.816371 4.491208 0
M  V30 52 H -2.916563 2.747855 5.584005 0
M  V30 53 H -2.304603 0.200093 3.229793 0
M  V30 54 H -3.106082 1.294223 2.116983 0
M  V30 55 H -1.357253 1.606453 0.735056 0
M  V30 56 H -0.414629 -0.876498 2.020373 0
M  V30 57 H 0.024818 -2.745953 1.356155 0
M  V30 58 H 0.397102 -5.072570 0.615258 0
M  V30 59 H 0.082615 -6.789544 -1.652176 0
M  V30 60 H -3.079961 -5.299689 -5.038221 0
M  V30 61 H -3.939645 -4.295729 -7.034081 0
M  V30 62 H -2.808144 -0.139422 -9.231412 0
M  V30 63 H -0.407748 -1.971477 -4.521920 0
M  V30 64 H -1.543766 -1.736837 -2.439934 0
M  V30 65 H 1.103726 1.158294 1.692199 0
M  V30 66 H 0.322437 2.783815 1.653452 0
M  V30 END ATOM
M  V30 BEGIN BOND
M  V30 1 1 1 2
M  V30 2 1 2 3
M  V30 3 2 3 4
M  V30 4 1 4 5
M  V30 5 2 5 6
M  V30 6 1 6 7
M  V30 7 1 7 8
M  V30 8 2 7 9
M  V30 9 1 9 10
M  V30 10 1 10 11
M  V30 11 1 11 12
M  V30 12 1 12 13
M  V30 13 1 13 14
M  V30 14 1 13 15
M  V30 15 1 15 16
M  V30 16 1 16 17
M  V30 17 1 17 18
M  V30 18 2 18 19
M  V30 19 1 18 20
M  V30 20 2 20 21
M  V30 21 1 21 22
M  V30 22 2 22 23
M  V30 23 1 23 24
M  V30 24 1 24 25
M  V30 25 2 25 26
M  V30 26 1 26 27
M  V30 27 2 27 28
M  V30 28 1 28 29
M  V30 29 2 29 30
M  V30 30 1 30 31
M  V30 31 2 31 32
M  V30 32 1 32 33
M  V30 33 1 33 34
M  V30 34 2 34 35
M  V30 35 1 26 36
M  V30 36 2 36 37
M  V30 37 1 16 38
M  V30 38 1 9 3
M  V30 39 1 38 11
M  V30 40 1 37 20
M  V30 41 1 36 23
M  V30 42 1 35 27
M  V30 43 1 34 30
M  V30 44 1 1 39
M  V30 45 1 1 40
M  V30 46 1 1 41
M  V30 47 1 4 42
M  V30 48 1 5 43
M  V30 49 1 6 44
M  V30 50 1 10 45
M  V30 51 1 10 46
M  V30 52 1 12 47
M  V30 53 1 12 48
M  V30 54 1 13 49 CFG=3
M  V30 55 1 14 50
M  V30 56 1 14 51
M  V30 57 1 14 52
M  V30 58 1 15 53
M  V30 59 1 15 54
M  V30 60 1 16 55 CFG=3
M  V30 61 1 17 56
M  V30 62 1 21 57
M  V30 63 1 22 58
M  V30 64 1 24 59
M  V30 65 1 28 60
M  V30 66 1 29 61
M  V30 67 1 32 62
M  V30 68 1 35 63
M  V30 69 1 37 64
M  V30 70 1 38 65
M  V30 71 1 38 66
M  V30 END BOND
M  V30 END CTAB
M  END
>  <Dataset>  (641) 
ChEMBL_Kinases

>  <Ligand_Instance>  (641) 
nan

>  <PDB_ID>  (641) 
nan

>  <Standardized_SMILES>  (641) 
COc1cccc(F)c1CN1C[C@H](C)C[C@H](NC(=O)c2ccc3[nH]nc(-c4ccc5ncsc5c4)c3c2)C1

>  <Name>  (641) 
nan

>  <Pocket>  (641) 
nan

>  <ATP_Site>  (641) 
nan

>  <Peripheral>  (641) 
nan

>  <Num_H_Atoms_ProtBoundConf>  (641) 
nan

>  <Num_Resolved_Atoms>  (641) 
nan

>  <Num_Not_Resolved_Atoms>  (641) 
nan

$$$$
CHEMBL3654599
     RDKit          3D

  0  0  0  0  0  0  0  0  0  0999 V3000
M  V30 BEGIN CTAB
M  V30 COUNTS 64 69 0 0 0
M  V30 BEGIN ATOM
M  V30 1 C 2.462390 -2.486023 2.392100 0
M  V30 2 O 2.696985 -1.099972 2.501826 0
M  V30 3 C 2.293004 -0.336921 3.599095 0
M  V30 4 C 1.637641 -1.016588 4.600100 0
M  V30 5 C 1.195353 -0.382733 5.724948 0
M  V30 6 C 1.418159 0.957615 5.841637 0
M  V30 7 C 2.083080 1.652074 4.827569 0
M  V30 8 F 2.288866 2.992589 4.979194 0
M  V30 9 C 2.545336 1.042789 3.672513 0
M  V30 10 C 3.216467 1.754680 2.585776 0
M  V30 11 N 2.276143 2.156213 1.570454 0
M  V30 12 C 1.342551 1.186585 1.134172 0
M  V30 13 C 0.252744 1.947913 0.347876 0 CFG=2
M  V30 14 N -0.879377 1.127945 0.080103 0
M  V30 15 C -2.236976 1.229189 0.406004 0
M  V30 16 O -2.687821 2.218468 1.078784 0
M  V30 17 C -3.231546 0.239091 0.016478 0
M  V30 18 C -4.556076 0.455696 0.337866 0
M  V30 19 C -5.506395 -0.503323 -0.031797 0
M  V30 20 C -5.155767 -1.655005 -0.706435 0
M  V30 21 N -5.802401 -2.741417 -1.188012 0
M  V30 22 N -4.931829 -3.572035 -1.768722 0
M  V30 23 C -3.705343 -3.060584 -1.684643 0
M  V30 24 C -2.490405 -3.649223 -2.184322 0
M  V30 25 C -2.375845 -5.001886 -1.876952 0
M  V30 26 C -1.295487 -5.760719 -2.256375 0
M  V30 27 C -0.299112 -5.124929 -2.971596 0
M  V30 28 N 0.859110 -5.585866 -3.472945 0
M  V30 29 C 1.474416 -4.565690 -4.084602 0
M  V30 30 C 0.681675 -3.452489 -3.959840 0
M  V30 31 N -0.404148 -3.810047 -3.273839 0
M  V30 32 C -1.469857 -3.070635 -2.896946 0
M  V30 33 C -3.828748 -1.856858 -1.020128 0
M  V30 34 C -2.883380 -0.918292 -0.660666 0
M  V30 35 C 0.929452 2.447510 -0.901488 0
M  V30 36 C 1.999230 3.452160 -0.450090 0
M  V30 37 F 1.325885 4.418921 0.270292 0
M  V30 38 F 2.623863 4.029657 -1.522385 0
M  V30 39 C 2.986941 2.805816 0.469603 0
M  V30 40 H 3.015100 -3.046443 3.160187 0
M  V30 41 H 2.763952 -2.793234 1.366889 0
M  V30 42 H 1.369566 -2.682457 2.551977 0
M  V30 43 H 1.451640 -2.082610 4.523213 0
M  V30 44 H 0.684495 -0.941370 6.492830 0
M  V30 45 H 1.094459 1.505348 6.704576 0
M  V30 46 H 4.018799 1.091345 2.177113 0
M  V30 47 H 3.672880 2.710569 2.968411 0
M  V30 48 H 1.749802 0.442054 0.430847 0
M  V30 49 H 0.849562 0.737788 2.035651 0
M  V30 50 H -0.004967 2.825294 1.011461 0
M  V30 51 H -0.507438 0.333122 -0.464986 0
M  V30 52 H -4.910422 1.346046 0.874277 0
M  V30 53 H -6.557117 -0.386258 0.193539 0
M  V30 54 H -6.845877 -2.818507 -1.068592 0
M  V30 55 H -3.125044 -5.578653 -1.313197 0
M  V30 56 H -1.192449 -6.811125 -2.023708 0
M  V30 57 H 2.433789 -4.667862 -4.574458 0
M  V30 58 H 0.929488 -2.478456 -4.358841 0
M  V30 59 H -1.613218 -2.030371 -3.105640 0
M  V30 60 H -1.871584 -1.104304 -0.916033 0
M  V30 61 H 0.272401 2.998568 -1.585566 0
M  V30 62 H 1.470039 1.598582 -1.356427 0
M  V30 63 H 3.662389 2.127313 -0.066673 0
M  V30 64 H 3.551444 3.656566 0.952258 0
M  V30 END ATOM
M  V30 BEGIN BOND
M  V30 1 1 1 2
M  V30 2 1 2 3
M  V30 3 2 3 4
M  V30 4 1 4 5
M  V30 5 2 5 6
M  V30 6 1 6 7
M  V30 7 1 7 8
M  V30 8 2 7 9
M  V30 9 1 9 10
M  V30 10 1 10 11
M  V30 11 1 11 12
M  V30 12 1 12 13
M  V30 13 1 13 14
M  V30 14 1 14 15
M  V30 15 2 15 16
M  V30 16 1 15 17
M  V30 17 2 17 18
M  V30 18 1 18 19
M  V30 19 2 19 20
M  V30 20 1 20 21
M  V30 21 1 21 22
M  V30 22 2 22 23
M  V30 23 1 23 24
M  V30 24 1 24 25
M  V30 25 2 25 26
M  V30 26 1 26 27
M  V30 27 2 27 28
M  V30 28 1 28 29
M  V30 29 2 29 30
M  V30 30 1 30 31
M  V30 31 1 31 32
M  V30 32 1 23 33
M  V30 33 2 33 34
M  V30 34 1 13 35
M  V30 35 1 35 36
M  V30 36 1 36 37
M  V30 37 1 36 38
M  V30 38 1 36 39
M  V30 39 1 9 3
M  V30 40 1 39 11
M  V30 41 1 34 17
M  V30 42 1 33 20
M  V30 43 2 32 24
M  V30 44 1 31 27
M  V30 45 1 1 40
M  V30 46 1 1 41
M  V30 47 1 1 42
M  V30 48 1 4 43
M  V30 49 1 5 44
M  V30 50 1 6 45
M  V30 51 1 10 46
M  V30 52 1 10 47
M  V30 53 1 12 48
M  V30 54 1 12 49
M  V30 55 1 13 50 CFG=1
M  V30 56 1 14 51
M  V30 57 1 18 52
M  V30 58 1 19 53
M  V30 59 1 21 54
M  V30 60 1 25 55
M  V30 61 1 26 56
M  V30 62 1 29 57
M  V30 63 1 30 58
M  V30 64 1 32 59
M  V30 65 1 34 60
M  V30 66 1 35 61
M  V30 67 1 35 62
M  V30 68 1 39 63
M  V30 69 1 39 64
M  V30 END BOND
M  V30 END CTAB
M  END
>  <Dataset>  (642) 
ChEMBL_Kinases

>  <Ligand_Instance>  (642) 
nan

>  <PDB_ID>  (642) 
nan

>  <Standardized_SMILES>  (642) 
COc1cccc(F)c1CN1C[C@H](NC(=O)c2ccc3[nH]nc(-c4ccc5nccn5c4)c3c2)CC(F)(F)C1

>  <Name>  (642) 
nan

>  <Pocket>  (642) 
nan

>  <ATP_Site>  (642) 
nan

>  <Peripheral>  (642) 
nan

>  <Num_H_Atoms_ProtBoundConf>  (642) 
nan

>  <Num_Resolved_Atoms>  (642) 
nan

>  <Num_Not_Resolved_Atoms>  (642) 
nan

$$$$
CHEMBL364978
     RDKit          3D

  0  0  0  0  0  0  0  0  0  0999 V3000
M  V30 BEGIN CTAB
M  V30 COUNTS 41 44 0 0 0
M  V30 BEGIN ATOM
M  V30 1 N 1.402109 -8.756355 0.395574 0
M  V30 2 C 0.534531 -7.632339 0.460931 0
M  V30 3 O -0.640148 -8.045331 0.598071 0
M  V30 4 C 1.113812 -6.297574 0.364865 0
M  V30 5 C 2.472253 -6.109205 0.213594 0
M  V30 6 C 2.893018 -4.804046 0.135363 0
M  V30 7 C 1.989137 -3.750860 0.206358 0
M  V30 8 N 2.228378 -2.426520 0.147217 0
M  V30 9 C 1.031585 -1.802437 0.260601 0
M  V30 10 C 0.826755 -0.356666 0.246286 0
M  V30 11 C -0.412361 0.241934 0.364908 0
M  V30 12 C -0.577377 1.613801 0.348144 0
M  V30 13 C 0.532190 2.424321 0.207991 0
M  V30 14 S 0.479539 4.179799 0.169444 0 CHG=1 VAL=3
M  V30 15 O 0.294509 4.752372 -1.388889 0 CHG=-1 VAL=1
M  V30 16 C -0.820309 4.767462 1.216649 0
M  V30 17 C -0.415658 4.997018 2.525251 0
M  V30 18 C -1.348611 5.460932 3.443731 0
M  V30 19 C -2.659368 5.698092 3.091183 0
M  V30 20 Cl -3.853568 6.282791 4.230703 0
M  V30 21 C -3.010313 5.455532 1.784004 0
M  V30 22 C -2.127663 4.997684 0.839967 0
M  V30 23 C 1.807794 1.891249 0.083779 0
M  V30 24 C 1.910025 0.496462 0.107896 0
M  V30 25 N 0.081659 -2.732024 0.386465 0
M  V30 26 C 0.634770 -3.965066 0.357840 0
M  V30 27 C 0.177690 -5.262246 0.439787 0
M  V30 28 H 1.644948 -9.596138 -0.149920 0
M  V30 29 H 2.134591 -8.922125 1.126652 0
M  V30 30 H 3.091439 -6.983487 0.168808 0
M  V30 31 H 3.963732 -4.639863 0.015737 0
M  V30 32 H 3.162493 -1.976804 0.035138 0
M  V30 33 H -1.281422 -0.392092 0.474663 0
M  V30 34 H -1.533619 2.093298 0.439248 0
M  V30 35 H 0.565943 4.861943 2.957800 0
M  V30 36 H -1.110246 5.665523 4.489449 0
M  V30 37 H -4.034903 5.618195 1.418387 0
M  V30 38 H -2.343222 4.789021 -0.199399 0
M  V30 39 H 2.723616 2.450560 -0.029137 0
M  V30 40 H 2.892445 0.051211 0.013107 0
M  V30 41 H -0.867335 -5.434075 0.556835 0
M  V30 END ATOM
M  V30 BEGIN BOND
M  V30 1 1 1 2
M  V30 2 2 2 3
M  V30 3 1 2 4
M  V30 4 2 4 5
M  V30 5 1 5 6
M  V30 6 2 6 7
M  V30 7 1 7 8
M  V30 8 1 8 9
M  V30 9 1 9 10
M  V30 10 2 10 11
M  V30 11 1 11 12
M  V30 12 2 12 13
M  V30 13 1 13 14
M  V30 14 1 14 15
M  V30 15 1 14 16
M  V30 16 2 16 17
M  V30 17 1 17 18
M  V30 18 2 18 19
M  V30 19 1 19 20
M  V30 20 1 19 21
M  V30 21 2 21 22
M  V30 22 1 13 23
M  V30 23 2 23 24
M  V30 24 2 9 25
M  V30 25 1 25 26
M  V30 26 2 26 27
M  V30 27 1 27 4
M  V30 28 1 26 7
M  V30 29 1 24 10
M  V30 30 1 22 16
M  V30 31 1 1 28
M  V30 32 1 1 29
M  V30 33 1 5 30
M  V30 34 1 6 31
M  V30 35 1 8 32
M  V30 36 1 11 33
M  V30 37 1 12 34
M  V30 38 1 17 35
M  V30 39 1 18 36
M  V30 40 1 21 37
M  V30 41 1 22 38
M  V30 42 1 23 39
M  V30 43 1 24 40
M  V30 44 1 27 41
M  V30 END BOND
M  V30 END CTAB
M  END
>  <Dataset>  (643) 
ChEMBL_Kinases

>  <Ligand_Instance>  (643) 
nan

>  <PDB_ID>  (643) 
nan

>  <Standardized_SMILES>  (643) 
NC(=O)c1ccc2[nH]c(-c3ccc([S+]([O-])c4ccc(Cl)cc4)cc3)nc2c1

>  <Name>  (643) 
nan

>  <Pocket>  (643) 
nan

>  <ATP_Site>  (643) 
nan

>  <Peripheral>  (643) 
nan

>  <Num_H_Atoms_ProtBoundConf>  (643) 
nan

>  <Num_Resolved_Atoms>  (643) 
nan

>  <Num_Not_Resolved_Atoms>  (643) 
nan

$$$$
CHEMBL3649688
     RDKit          3D

  0  0  0  0  0  0  0  0  0  0999 V3000
M  V30 BEGIN CTAB
M  V30 COUNTS 58 63 0 0 0
M  V30 BEGIN ATOM
M  V30 1 N 2.120301 -0.502926 -4.048018 0
M  V30 2 C 1.373206 -1.485028 -3.283388 0
M  V30 3 C 0.922344 -0.969330 -1.974218 0
M  V30 4 C 2.008341 -0.487957 -1.235423 0
M  V30 5 C 1.809634 0.050149 0.041536 0
M  V30 6 C 0.545235 0.114426 0.590210 0
M  V30 7 N 0.234237 0.636827 1.867422 0
M  V30 8 C 0.864651 1.686347 2.428418 0
M  V30 9 C 1.961025 2.521006 1.924287 0
M  V30 10 C 1.991154 3.323171 0.801557 0
M  V30 11 C 3.143985 4.026460 0.519509 0
M  V30 12 C 4.265308 3.962060 1.310273 0
M  V30 13 C 4.259500 3.166259 2.439109 0
M  V30 14 C 3.103513 2.454073 2.731853 0
M  V30 15 N 0.299533 1.901003 3.651668 0
M  V30 16 C -0.656522 0.993442 3.822842 0
M  V30 17 C -1.540211 0.734711 4.847726 0
M  V30 18 C -2.435372 -0.302386 4.728157 0
M  V30 19 C -2.495172 -1.111901 3.614349 0
M  V30 20 N -3.445729 -2.162988 3.562271 0
M  V30 21 C -3.662163 -3.095750 2.515603 0
M  V30 22 C -4.652056 -4.073585 2.632289 0
M  V30 23 C -4.899147 -4.995812 1.650257 0
M  V30 24 C -4.168854 -4.997996 0.485253 0
M  V30 25 C -3.178007 -4.045532 0.329220 0
M  V30 26 C -2.970571 -3.149069 1.335917 0
M  V30 27 N -1.618192 -0.800386 2.679033 0
M  V30 28 C -0.712883 0.187063 2.708227 0
M  V30 29 C -0.511730 -0.365697 -0.155064 0
M  V30 30 C -0.336686 -0.899628 -1.415059 0
M  V30 31 C 0.229646 -2.029307 -4.111704 0
M  V30 32 C 1.238497 -3.059661 -4.641579 0
M  V30 33 C 1.961011 -2.869899 -3.299895 0
M  V30 34 H 1.450791 0.267114 -4.287858 0
M  V30 35 H 2.895490 -0.104588 -3.499024 0
M  V30 36 H 3.063030 -0.455463 -1.498389 0
M  V30 37 H 2.587368 0.441291 0.675326 0
M  V30 38 H 1.079869 3.308355 0.254463 0
M  V30 39 H 3.120774 4.642585 -0.371734 0
M  V30 40 H 5.167065 4.529611 1.064874 0
M  V30 41 H 5.140296 3.112068 3.065366 0
M  V30 42 H 3.175747 1.849318 3.637448 0
M  V30 43 H -1.508116 1.359867 5.730320 0
M  V30 44 H -3.092342 -0.435538 5.578546 0
M  V30 45 H -4.081038 -2.276379 4.406622 0
M  V30 46 H -5.264253 -4.118256 3.539566 0
M  V30 47 H -5.681588 -5.726104 1.806033 0
M  V30 48 H -4.367944 -5.726634 -0.284462 0
M  V30 49 H -2.611332 -4.058050 -0.590892 0
M  V30 50 H -2.195460 -2.451352 1.143339 0
M  V30 51 H -1.519035 -0.342333 0.219259 0
M  V30 52 H -1.093962 -1.298388 -2.073754 0
M  V30 53 H -0.119440 -1.299182 -4.874521 0
M  V30 54 H -0.565597 -2.554218 -3.580852 0
M  V30 55 H 1.759780 -2.604209 -5.505933 0
M  V30 56 H 0.799687 -4.058527 -4.785813 0
M  V30 57 H 3.056360 -2.871359 -3.389947 0
M  V30 58 H 1.500635 -3.519638 -2.543356 0
M  V30 END ATOM
M  V30 BEGIN BOND
M  V30 1 1 1 2
M  V30 2 1 2 3
M  V30 3 2 3 4
M  V30 4 1 4 5
M  V30 5 2 5 6
M  V30 6 1 6 7
M  V30 7 1 7 8
M  V30 8 1 8 9
M  V30 9 2 9 10
M  V30 10 1 10 11
M  V30 11 2 11 12
M  V30 12 1 12 13
M  V30 13 2 13 14
M  V30 14 2 8 15
M  V30 15 1 15 16
M  V30 16 2 16 17
M  V30 17 1 17 18
M  V30 18 2 18 19
M  V30 19 1 19 20
M  V30 20 1 20 21
M  V30 21 2 21 22
M  V30 22 1 22 23
M  V30 23 2 23 24
M  V30 24 1 24 25
M  V30 25 2 25 26
M  V30 26 1 19 27
M  V30 27 2 27 28
M  V30 28 1 6 29
M  V30 29 2 29 30
M  V30 30 1 2 31
M  V30 31 1 31 32
M  V30 32 1 32 33
M  V30 33 1 33 2
M  V30 34 1 30 3
M  V30 35 1 28 7
M  V30 36 1 14 9
M  V30 37 1 28 16
M  V30 38 1 26 21
M  V30 39 1 1 34
M  V30 40 1 1 35
M  V30 41 1 4 36
M  V30 42 1 5 37
M  V30 43 1 10 38
M  V30 44 1 11 39
M  V30 45 1 12 40
M  V30 46 1 13 41
M  V30 47 1 14 42
M  V30 48 1 17 43
M  V30 49 1 18 44
M  V30 50 1 20 45
M  V30 51 1 22 46
M  V30 52 1 23 47
M  V30 53 1 24 48
M  V30 54 1 25 49
M  V30 55 1 26 50
M  V30 56 1 29 51
M  V30 57 1 30 52
M  V30 58 1 31 53
M  V30 59 1 31 54
M  V30 60 1 32 55
M  V30 61 1 32 56
M  V30 62 1 33 57
M  V30 63 1 33 58
M  V30 END BOND
M  V30 END CTAB
M  END
>  <Dataset>  (644) 
ChEMBL_Kinases

>  <Ligand_Instance>  (644) 
nan

>  <PDB_ID>  (644) 
nan

>  <Standardized_SMILES>  (644) 
NC1(c2ccc(-n3c(-c4ccccc4)nc4ccc(Nc5ccccc5)nc43)cc2)CCC1

>  <Name>  (644) 
nan

>  <Pocket>  (644) 
nan

>  <ATP_Site>  (644) 
nan

>  <Peripheral>  (644) 
nan

>  <Num_H_Atoms_ProtBoundConf>  (644) 
nan

>  <Num_Resolved_Atoms>  (644) 
nan

>  <Num_Not_Resolved_Atoms>  (644) 
nan

$$$$
CHEMBL3649687
     RDKit          3D

  0  0  0  0  0  0  0  0  0  0999 V3000
M  V30 BEGIN CTAB
M  V30 COUNTS 61 66 0 0 0
M  V30 BEGIN ATOM
M  V30 1 N 4.026966 -2.155490 -1.907991 0
M  V30 2 C 2.789635 -2.633883 -1.325429 0
M  V30 3 C 2.067577 -1.633072 -0.515466 0
M  V30 4 C 1.446298 -1.886156 0.671531 0
M  V30 5 C 0.815611 -0.826569 1.283478 0
M  V30 6 C 0.752095 0.469352 0.808061 0
M  V30 7 N 0.026885 1.460521 1.571003 0
M  V30 8 C 0.262339 2.709657 2.004074 0
M  V30 9 C 1.544847 3.337699 1.713936 0
M  V30 10 C 2.585255 2.652793 2.352987 0
M  V30 11 C 3.906525 3.067578 2.225403 0
M  V30 12 C 4.158278 4.179970 1.445539 0
M  V30 13 C 3.128599 4.863836 0.808681 0
M  V30 14 C 1.819633 4.444879 0.940786 0
M  V30 15 N -0.842961 3.128142 2.674731 0
M  V30 16 C -1.762354 2.146410 2.661875 0
M  V30 17 C -3.028695 2.048814 3.186729 0
M  V30 18 C -3.800048 0.924404 3.052811 0
M  V30 19 C -3.242237 -0.122182 2.356403 0
M  V30 20 N -3.638285 -1.454695 1.959464 0
M  V30 21 C -4.100904 -1.483068 0.575399 0
M  V30 22 C -4.344796 -2.871087 0.131707 0
M  V30 23 C -3.213405 -3.477980 -0.427155 0
M  V30 24 C -3.179483 -4.766812 -0.915516 0
M  V30 25 C -4.326970 -5.512782 -0.854702 0
M  V30 26 C -5.441603 -4.943084 -0.315304 0
M  V30 27 C -5.477602 -3.654908 0.173604 0
M  V30 28 N -1.993409 -0.044048 1.829684 0
M  V30 29 C -1.229879 1.082523 1.968249 0
M  V30 30 C 1.397060 0.686759 -0.401176 0
M  V30 31 C 2.034527 -0.352552 -1.033899 0
M  V30 32 C 2.847131 -4.039094 -0.778509 0
M  V30 33 C 2.748490 -4.498604 -2.223807 0
M  V30 34 C 1.944310 -3.231188 -2.466470 0
M  V30 35 H 4.244617 -1.168647 -1.644004 0
M  V30 36 H 4.817872 -2.818310 -1.820788 0
M  V30 37 H 1.462864 -2.875270 1.092148 0
M  V30 38 H 0.316806 -1.027526 2.232890 0
M  V30 39 H 2.496381 1.775894 2.981343 0
M  V30 40 H 4.756690 2.596286 2.682909 0
M  V30 41 H 5.171938 4.530304 1.324107 0
M  V30 42 H 3.291188 5.736633 0.191793 0
M  V30 43 H 0.938452 4.887039 0.500400 0
M  V30 44 H -3.505154 2.841044 3.739788 0
M  V30 45 H -4.777268 0.638084 3.369423 0
M  V30 46 H -3.516459 -2.120167 2.730347 0
M  V30 47 H -5.056510 -0.904242 0.557554 0
M  V30 48 H -3.387288 -0.987572 -0.098204 0
M  V30 49 H -2.251251 -2.963707 -0.518481 0
M  V30 50 H -2.296919 -5.211808 -1.340556 0
M  V30 51 H -4.313467 -6.526642 -1.234759 0
M  V30 52 H -6.360355 -5.505951 -0.254306 0
M  V30 53 H -6.311513 -3.136193 0.611590 0
M  V30 54 H 1.342790 1.713133 -0.769205 0
M  V30 55 H 2.505184 -0.065637 -1.974493 0
M  V30 56 H 1.959712 -4.323835 -0.215976 0
M  V30 57 H 3.825425 -4.329641 -0.342395 0
M  V30 58 H 2.193948 -5.449010 -2.359441 0
M  V30 59 H 3.751986 -4.465499 -2.684389 0
M  V30 60 H 2.086106 -2.772559 -3.443066 0
M  V30 61 H 0.906979 -3.342899 -2.109509 0
M  V30 END ATOM
M  V30 BEGIN BOND
M  V30 1 1 1 2
M  V30 2 1 2 3
M  V30 3 2 3 4
M  V30 4 1 4 5
M  V30 5 2 5 6
M  V30 6 1 6 7
M  V30 7 1 7 8
M  V30 8 1 8 9
M  V30 9 2 9 10
M  V30 10 1 10 11
M  V30 11 2 11 12
M  V30 12 1 12 13
M  V30 13 2 13 14
M  V30 14 2 8 15
M  V30 15 1 15 16
M  V30 16 2 16 17
M  V30 17 1 17 18
M  V30 18 2 18 19
M  V30 19 1 19 20
M  V30 20 1 20 21
M  V30 21 1 21 22
M  V30 22 2 22 23
M  V30 23 1 23 24
M  V30 24 2 24 25
M  V30 25 1 25 26
M  V30 26 2 26 27
M  V30 27 1 19 28
M  V30 28 2 28 29
M  V30 29 1 6 30
M  V30 30 2 30 31
M  V30 31 1 2 32
M  V30 32 1 32 33
M  V30 33 1 33 34
M  V30 34 1 34 2
M  V30 35 1 31 3
M  V30 36 1 29 7
M  V30 37 1 14 9
M  V30 38 1 29 16
M  V30 39 1 27 22
M  V30 40 1 1 35
M  V30 41 1 1 36
M  V30 42 1 4 37
M  V30 43 1 5 38
M  V30 44 1 10 39
M  V30 45 1 11 40
M  V30 46 1 12 41
M  V30 47 1 13 42
M  V30 48 1 14 43
M  V30 49 1 17 44
M  V30 50 1 18 45
M  V30 51 1 20 46
M  V30 52 1 21 47
M  V30 53 1 21 48
M  V30 54 1 23 49
M  V30 55 1 24 50
M  V30 56 1 25 51
M  V30 57 1 26 52
M  V30 58 1 27 53
M  V30 59 1 30 54
M  V30 60 1 31 55
M  V30 61 1 32 56
M  V30 62 1 32 57
M  V30 63 1 33 58
M  V30 64 1 33 59
M  V30 65 1 34 60
M  V30 66 1 34 61
M  V30 END BOND
M  V30 END CTAB
M  END
>  <Dataset>  (645) 
ChEMBL_Kinases

>  <Ligand_Instance>  (645) 
nan

>  <PDB_ID>  (645) 
nan

>  <Standardized_SMILES>  (645) 
NC1(c2ccc(-n3c(-c4ccccc4)nc4ccc(NCc5ccccc5)nc43)cc2)CCC1

>  <Name>  (645) 
nan

>  <Pocket>  (645) 
nan

>  <ATP_Site>  (645) 
nan

>  <Peripheral>  (645) 
nan

>  <Num_H_Atoms_ProtBoundConf>  (645) 
nan

>  <Num_Resolved_Atoms>  (645) 
nan

>  <Num_Not_Resolved_Atoms>  (645) 
nan

$$$$
CHEMBL3649686
     RDKit          3D

  0  0  0  0  0  0  0  0  0  0999 V3000
M  V30 BEGIN CTAB
M  V30 COUNTS 66 71 0 0 0
M  V30 BEGIN ATOM
M  V30 1 C 6.116209 -2.819144 3.859739 0
M  V30 2 N 7.142403 -2.084877 3.122664 0
M  V30 3 C 8.538131 -2.048911 3.523906 0
M  V30 4 C 6.772627 -1.365613 1.951252 0
M  V30 5 O 7.554459 -0.689823 1.223277 0
M  V30 6 C 5.373781 -1.364522 1.487944 0
M  V30 7 C 5.040251 -2.550049 0.868228 0
M  V30 8 C 3.731857 -2.666653 0.386068 0
M  V30 9 C 2.879714 -1.595838 0.564083 0
M  V30 10 C 3.237095 -0.419158 1.187586 0
M  V30 11 C 2.240583 0.640236 1.318784 0
M  V30 12 C 2.497429 1.846542 1.932506 0
M  V30 13 C 1.466096 2.762375 2.000476 0
M  V30 14 C 0.225791 2.478566 1.472167 0
M  V30 15 N -0.944897 3.139130 1.389168 0
M  V30 16 C -1.856964 2.373631 0.759673 0
M  V30 17 C -3.206855 2.875312 0.555397 0
M  V30 18 C -4.245655 2.242944 1.250408 0
M  V30 19 C -5.554401 2.661770 1.112303 0
M  V30 20 C -5.781485 3.733202 0.255090 0
M  V30 21 C -4.799733 4.385638 -0.447736 0
M  V30 22 C -3.500618 3.947673 -0.291628 0
M  V30 23 N -1.298840 1.198868 0.419887 0
M  V30 24 C -1.930838 0.123086 -0.254775 0
M  V30 25 C -2.998629 0.274482 -1.105423 0
M  V30 26 C -3.635057 -0.742105 -1.771065 0
M  V30 27 C -3.208256 -2.040719 -1.609815 0
M  V30 28 C -3.657421 -3.349636 -2.137135 0
M  V30 29 N -2.633921 -4.169016 -2.746241 0
M  V30 30 C -4.596600 -4.094104 -1.175709 0
M  V30 31 C -5.705195 -3.193749 -1.721271 0
M  V30 32 C -4.896619 -3.166292 -3.003234 0
M  V30 33 C -2.120669 -2.253262 -0.753081 0
M  V30 34 C -1.489207 -1.196446 -0.085403 0
M  V30 35 C -0.019390 1.257590 0.855284 0
M  V30 36 N 1.016933 0.399288 0.814661 0
M  V30 37 C 4.525915 -0.309533 1.660809 0
M  V30 38 H 5.779490 -3.636479 3.204434 0
M  V30 39 H 6.606723 -3.213156 4.773171 0
M  V30 40 H 5.293712 -2.130673 4.179016 0
M  V30 41 H 9.171906 -2.454431 2.695351 0
M  V30 42 H 8.818222 -1.006329 3.786388 0
M  V30 43 H 8.680447 -2.647555 4.460396 0
M  V30 44 H 5.697903 -3.394604 0.719120 0
M  V30 45 H 3.420773 -3.588240 -0.111501 0
M  V30 46 H 1.871808 -1.740013 0.164401 0
M  V30 47 H 3.466926 2.052241 2.339211 0
M  V30 48 H 1.622641 3.728925 2.470898 0
M  V30 49 H -4.060614 1.419118 1.908100 0
M  V30 50 H -6.379921 2.205860 1.626484 0
M  V30 51 H -6.778184 4.112957 0.095952 0
M  V30 52 H -5.034155 5.226589 -1.109022 0
M  V30 53 H -2.669125 4.426706 -0.822953 0
M  V30 54 H -3.413103 1.250655 -1.307354 0
M  V30 55 H -4.460158 -0.661140 -2.437509 0
M  V30 56 H -2.823905 -4.363814 -3.761457 0
M  V30 57 H -2.548256 -5.102419 -2.277378 0
M  V30 58 H -4.357718 -3.983676 -0.115424 0
M  V30 59 H -4.742505 -5.122542 -1.566865 0
M  V30 60 H -5.680973 -2.246258 -1.165230 0
M  V30 61 H -6.696779 -3.690101 -1.782515 0
M  V30 62 H -4.912914 -2.236103 -3.584494 0
M  V30 63 H -5.166772 -4.082944 -3.583709 0
M  V30 64 H -1.635321 -3.192386 -0.488101 0
M  V30 65 H -0.646406 -1.301743 0.584003 0
M  V30 66 H 4.855021 0.576373 2.154982 0
M  V30 END ATOM
M  V30 BEGIN BOND
M  V30 1 1 1 2
M  V30 2 1 2 3
M  V30 3 1 2 4
M  V30 4 2 4 5
M  V30 5 1 4 6
M  V30 6 2 6 7
M  V30 7 1 7 8
M  V30 8 2 8 9
M  V30 9 1 9 10
M  V30 10 1 10 11
M  V30 11 2 11 12
M  V30 12 1 12 13
M  V30 13 2 13 14
M  V30 14 1 14 15
M  V30 15 2 15 16
M  V30 16 1 16 17
M  V30 17 2 17 18
M  V30 18 1 18 19
M  V30 19 2 19 20
M  V30 20 1 20 21
M  V30 21 2 21 22
M  V30 22 1 16 23
M  V30 23 1 23 24
M  V30 24 2 24 25
M  V30 25 1 25 26
M  V30 26 2 26 27
M  V30 27 1 27 28
M  V30 28 1 28 29
M  V30 29 1 28 30
M  V30 30 1 30 31
M  V30 31 1 31 32
M  V30 32 1 27 33
M  V30 33 2 33 34
M  V30 34 1 23 35
M  V30 35 2 35 36
M  V30 36 2 10 37
M  V30 37 1 37 6
M  V30 38 1 36 11
M  V30 39 1 35 14
M  V30 40 1 22 17
M  V30 41 1 34 24
M  V30 42 1 32 28
M  V30 43 1 1 38
M  V30 44 1 1 39
M  V30 45 1 1 40
M  V30 46 1 3 41
M  V30 47 1 3 42
M  V30 48 1 3 43
M  V30 49 1 7 44
M  V30 50 1 8 45
M  V30 51 1 9 46
M  V30 52 1 12 47
M  V30 53 1 13 48
M  V30 54 1 18 49
M  V30 55 1 19 50
M  V30 56 1 20 51
M  V30 57 1 21 52
M  V30 58 1 22 53
M  V30 59 1 25 54
M  V30 60 1 26 55
M  V30 61 1 29 56
M  V30 62 1 29 57
M  V30 63 1 30 58
M  V30 64 1 30 59
M  V30 65 1 31 60
M  V30 66 1 31 61
M  V30 67 1 32 62
M  V30 68 1 32 63
M  V30 69 1 33 64
M  V30 70 1 34 65
M  V30 71 1 37 66
M  V30 END BOND
M  V30 END CTAB
M  END
>  <Dataset>  (646) 
ChEMBL_Kinases

>  <Ligand_Instance>  (646) 
nan

>  <PDB_ID>  (646) 
nan

>  <Standardized_SMILES>  (646) 
CN(C)C(=O)c1cccc(-c2ccc3nc(-c4ccccc4)n(-c4ccc(C5(N)CCC5)cc4)c3n2)c1

>  <Name>  (646) 
nan

>  <Pocket>  (646) 
nan

>  <ATP_Site>  (646) 
nan

>  <Peripheral>  (646) 
nan

>  <Num_H_Atoms_ProtBoundConf>  (646) 
nan

>  <Num_Resolved_Atoms>  (646) 
nan

>  <Num_Not_Resolved_Atoms>  (646) 
nan

$$$$
CHEMBL3649685
     RDKit          3D

  0  0  0  0  0  0  0  0  0  0999 V3000
M  V30 BEGIN CTAB
M  V30 COUNTS 67 73 0 0 0
M  V30 BEGIN ATOM
M  V30 1 N 4.291815 -1.359427 2.039415 0
M  V30 2 C 3.700999 -0.319893 2.864827 0
M  V30 3 C 2.455757 0.258863 2.316851 0
M  V30 4 C 2.501764 0.391190 0.927344 0
M  V30 5 C 1.450908 0.905805 0.201908 0
M  V30 6 C 0.306742 1.308477 0.858807 0
M  V30 7 N -0.905475 1.865085 0.360480 0
M  V30 8 C -1.112701 3.183600 0.515007 0
M  V30 9 C -0.314478 4.242335 1.121787 0
M  V30 10 C -0.593072 4.698399 2.369854 0
M  V30 11 C 0.166866 5.696742 2.931285 0
M  V30 12 N 1.206273 6.230668 2.228600 0
M  V30 13 N 1.507502 5.808174 1.003464 0
M  V30 14 C 0.752188 4.834009 0.477523 0
M  V30 15 N -2.329134 3.453247 -0.040052 0
M  V30 16 C -2.859077 2.317135 -0.527251 0
M  V30 17 C -4.016161 1.928957 -1.180118 0
M  V30 18 C -4.181423 0.608301 -1.520151 0
M  V30 19 C -3.251526 -0.369204 -1.246975 0
M  V30 20 C -3.451476 -1.774440 -1.621556 0
M  V30 21 C -4.583317 -2.220880 -2.271726 0
M  V30 22 C -4.714950 -3.559157 -2.601068 0
M  V30 23 C -3.692060 -4.421742 -2.263464 0
M  V30 24 C -2.550919 -4.029391 -1.619355 0
M  V30 25 N -1.530083 -4.957760 -1.292569 0
M  V30 26 C -1.562910 -6.374466 -1.443078 0
M  V30 27 C -0.548130 -6.809825 -2.480290 0
M  V30 28 O 0.502693 -5.896040 -2.574725 0
M  V30 29 C 0.868389 -5.486447 -1.292750 0
M  V30 30 C -0.239864 -4.599930 -0.740816 0
M  V30 31 C -2.461826 -2.693697 -1.311407 0
M  V30 32 N -2.128900 0.009658 -0.613197 0
M  V30 33 C -1.959004 1.300815 -0.276593 0
M  V30 34 C 0.251154 1.179612 2.252035 0
M  V30 35 C 1.309408 0.663539 2.962030 0
M  V30 36 C 4.694763 0.774366 3.176945 0
M  V30 37 C 4.237534 0.717871 4.616153 0
M  V30 38 C 3.685134 -0.659213 4.337043 0
M  V30 39 H 3.984579 -2.305317 2.354171 0
M  V30 40 H 5.331391 -1.282863 2.113714 0
M  V30 41 H 3.338981 0.114744 0.279304 0
M  V30 42 H 1.379741 1.050743 -0.853062 0
M  V30 43 H -1.423835 4.259056 2.908739 0
M  V30 44 H -0.123442 5.997900 3.926103 0
M  V30 45 H 1.021100 4.507242 -0.526209 0
M  V30 46 H -4.760194 2.707446 -1.399269 0
M  V30 47 H -5.095385 0.392250 -2.018833 0
M  V30 48 H -5.374691 -1.540267 -2.530902 0
M  V30 49 H -5.618961 -3.859449 -3.109122 0
M  V30 50 H -3.894432 -5.439193 -2.566585 0
M  V30 51 H -1.330408 -6.864849 -0.468224 0
M  V30 52 H -2.572728 -6.692340 -1.728629 0
M  V30 53 H -0.184392 -7.811159 -2.209771 0
M  V30 54 H -1.044196 -6.854008 -3.466588 0
M  V30 55 H 1.052249 -6.300223 -0.589581 0
M  V30 56 H 1.788635 -4.868771 -1.389669 0
M  V30 57 H -0.334174 -4.689070 0.369457 0
M  V30 58 H -0.023425 -3.543727 -1.012099 0
M  V30 59 H -1.601433 -2.314483 -0.806789 0
M  V30 60 H -0.585101 1.455910 2.893811 0
M  V30 61 H 1.349248 0.528738 4.024880 0
M  V30 62 H 5.743768 0.417621 3.094398 0
M  V30 63 H 4.462323 1.724076 2.655161 0
M  V30 64 H 5.061577 0.742167 5.360961 0
M  V30 65 H 3.406136 1.424261 4.833585 0
M  V30 66 H 4.460377 -1.433741 4.539468 0
M  V30 67 H 2.694052 -0.868245 4.782135 0
M  V30 END ATOM
M  V30 BEGIN BOND
M  V30 1 1 1 2
M  V30 2 1 2 3
M  V30 3 2 3 4
M  V30 4 1 4 5
M  V30 5 2 5 6
M  V30 6 1 6 7
M  V30 7 1 7 8
M  V30 8 1 8 9
M  V30 9 2 9 10
M  V30 10 1 10 11
M  V30 11 2 11 12
M  V30 12 1 12 13
M  V30 13 2 13 14
M  V30 14 2 8 15
M  V30 15 1 15 16
M  V30 16 2 16 17
M  V30 17 1 17 18
M  V30 18 2 18 19
M  V30 19 1 19 20
M  V30 20 2 20 21
M  V30 21 1 21 22
M  V30 22 2 22 23
M  V30 23 1 23 24
M  V30 24 1 24 25
M  V30 25 1 25 26
M  V30 26 1 26 27
M  V30 27 1 27 28
M  V30 28 1 28 29
M  V30 29 1 29 30
M  V30 30 2 24 31
M  V30 31 1 19 32
M  V30 32 2 32 33
M  V30 33 1 6 34
M  V30 34 2 34 35
M  V30 35 1 2 36
M  V30 36 1 36 37
M  V30 37 1 37 38
M  V30 38 1 38 2
M  V30 39 1 35 3
M  V30 40 1 33 7
M  V30 41 1 14 9
M  V30 42 1 33 16
M  V30 43 1 31 20
M  V30 44 1 30 25
M  V30 45 1 1 39
M  V30 46 1 1 40
M  V30 47 1 4 41
M  V30 48 1 5 42
M  V30 49 1 10 43
M  V30 50 1 11 44
M  V30 51 1 14 45
M  V30 52 1 17 46
M  V30 53 1 18 47
M  V30 54 1 21 48
M  V30 55 1 22 49
M  V30 56 1 23 50
M  V30 57 1 26 51
M  V30 58 1 26 52
M  V30 59 1 27 53
M  V30 60 1 27 54
M  V30 61 1 29 55
M  V30 62 1 29 56
M  V30 63 1 30 57
M  V30 64 1 30 58
M  V30 65 1 31 59
M  V30 66 1 34 60
M  V30 67 1 35 61
M  V30 68 1 36 62
M  V30 69 1 36 63
M  V30 70 1 37 64
M  V30 71 1 37 65
M  V30 72 1 38 66
M  V30 73 1 38 67
M  V30 END BOND
M  V30 END CTAB
M  END
>  <Dataset>  (647) 
ChEMBL_Kinases

>  <Ligand_Instance>  (647) 
nan

>  <PDB_ID>  (647) 
nan

>  <Standardized_SMILES>  (647) 
NC1(c2ccc(-n3c(-c4ccnnc4)nc4ccc(-c5cccc(N6CCOCC6)c5)nc43)cc2)CCC1

>  <Name>  (647) 
nan

>  <Pocket>  (647) 
nan

>  <ATP_Site>  (647) 
nan

>  <Peripheral>  (647) 
nan

>  <Num_H_Atoms_ProtBoundConf>  (647) 
nan

>  <Num_Resolved_Atoms>  (647) 
nan

>  <Num_Not_Resolved_Atoms>  (647) 
nan

$$$$
CHEMBL3649684
     RDKit          3D

  0  0  0  0  0  0  0  0  0  0999 V3000
M  V30 BEGIN CTAB
M  V30 COUNTS 67 73 0 0 0
M  V30 BEGIN ATOM
M  V30 1 N 4.730156 -0.468920 2.008629 0
M  V30 2 C 3.500673 -0.359196 2.789617 0
M  V30 3 C 2.417518 0.378228 2.107446 0
M  V30 4 C 1.542584 1.361496 2.518035 0
M  V30 5 C 0.622132 1.879127 1.664788 0
M  V30 6 C 0.505092 1.458941 0.347706 0
M  V30 7 N -0.488115 2.069579 -0.444739 0
M  V30 8 C -0.548372 3.355207 -0.780340 0
M  V30 9 C 0.384776 4.411883 -0.411678 0
M  V30 10 N 1.478293 4.233994 0.347361 0
M  V30 11 C 2.345460 5.173673 0.699402 0
M  V30 12 C 2.117525 6.458284 0.252744 0
M  V30 13 C 1.011488 6.698516 -0.528957 0
M  V30 14 N 0.192688 5.675018 -0.829848 0
M  V30 15 N -1.655834 3.529296 -1.547374 0
M  V30 16 C -2.269760 2.339061 -1.676239 0
M  V30 17 C -3.427228 1.946061 -2.345627 0
M  V30 18 C -3.760709 0.609917 -2.257011 0
M  V30 19 C -3.046082 -0.341471 -1.568897 0
M  V30 20 C -3.428173 -1.746266 -1.496354 0
M  V30 21 C -4.551400 -2.249412 -2.118046 0
M  V30 22 C -4.845009 -3.584670 -2.003275 0
M  V30 23 C -4.005826 -4.405686 -1.263016 0
M  V30 24 C -2.871428 -3.957606 -0.621221 0
M  V30 25 N -2.053828 -4.843794 0.125426 0
M  V30 26 C -2.366744 -6.211117 0.372163 0
M  V30 27 C -1.283610 -7.069740 -0.295269 0
M  V30 28 O -0.113414 -6.780023 0.438628 0
M  V30 29 C 0.252515 -5.471073 0.232158 0
M  V30 30 C -0.801712 -4.473104 0.723618 0
M  V30 31 C -2.625319 -2.610871 -0.769877 0
M  V30 32 N -1.943722 0.117193 -0.950720 0
M  V30 33 C -1.537337 1.399756 -0.979158 0
M  V30 34 C 1.372174 0.472098 -0.089878 0
M  V30 35 C 2.324843 -0.068044 0.782331 0
M  V30 36 C 3.764834 -0.016036 4.226079 0
M  V30 37 C 2.987980 -1.231709 4.691464 0
M  V30 38 C 3.104315 -1.751177 3.258346 0
M  V30 39 H 5.337145 -1.187128 2.459017 0
M  V30 40 H 5.253491 0.414763 1.980430 0
M  V30 41 H 1.711857 1.615705 3.545847 0
M  V30 42 H 0.001766 2.639019 2.112129 0
M  V30 43 H 3.211386 4.975497 1.313721 0
M  V30 44 H 2.763079 7.303873 0.481091 0
M  V30 45 H 0.728097 7.661609 -0.937790 0
M  V30 46 H -4.014818 2.668390 -2.897560 0
M  V30 47 H -4.661534 0.334643 -2.785016 0
M  V30 48 H -5.203778 -1.608391 -2.694115 0
M  V30 49 H -5.738691 -3.939268 -2.508382 0
M  V30 50 H -4.345672 -5.430493 -1.251951 0
M  V30 51 H -2.208941 -6.407499 1.474505 0
M  V30 52 H -3.367653 -6.542981 0.088024 0
M  V30 53 H -1.514804 -8.135501 -0.205894 0
M  V30 54 H -1.178712 -6.710796 -1.330424 0
M  V30 55 H 0.397768 -5.230633 -0.834542 0
M  V30 56 H 1.146165 -5.280712 0.865681 0
M  V30 57 H -0.436382 -3.475403 0.442423 0
M  V30 58 H -0.856180 -4.552245 1.844630 0
M  V30 59 H -1.765513 -2.180777 -0.302502 0
M  V30 60 H 1.239050 0.186432 -1.109752 0
M  V30 61 H 2.917687 -0.826901 0.273728 0
M  V30 62 H 4.820908 -0.135130 4.545032 0
M  V30 63 H 3.286708 0.903010 4.594058 0
M  V30 64 H 3.531581 -1.897440 5.397551 0
M  V30 65 H 1.949220 -1.037723 4.997146 0
M  V30 66 H 3.857484 -2.537533 3.112080 0
M  V30 67 H 2.118625 -2.014016 2.827191 0
M  V30 END ATOM
M  V30 BEGIN BOND
M  V30 1 1 1 2
M  V30 2 1 2 3
M  V30 3 2 3 4
M  V30 4 1 4 5
M  V30 5 2 5 6
M  V30 6 1 6 7
M  V30 7 1 7 8
M  V30 8 1 8 9
M  V30 9 2 9 10
M  V30 10 1 10 11
M  V30 11 2 11 12
M  V30 12 1 12 13
M  V30 13 2 13 14
M  V30 14 2 8 15
M  V30 15 1 15 16
M  V30 16 2 16 17
M  V30 17 1 17 18
M  V30 18 2 18 19
M  V30 19 1 19 20
M  V30 20 2 20 21
M  V30 21 1 21 22
M  V30 22 2 22 23
M  V30 23 1 23 24
M  V30 24 1 24 25
M  V30 25 1 25 26
M  V30 26 1 26 27
M  V30 27 1 27 28
M  V30 28 1 28 29
M  V30 29 1 29 30
M  V30 30 2 24 31
M  V30 31 1 19 32
M  V30 32 2 32 33
M  V30 33 1 6 34
M  V30 34 2 34 35
M  V30 35 1 2 36
M  V30 36 1 36 37
M  V30 37 1 37 38
M  V30 38 1 38 2
M  V30 39 1 35 3
M  V30 40 1 33 7
M  V30 41 1 14 9
M  V30 42 1 33 16
M  V30 43 1 31 20
M  V30 44 1 30 25
M  V30 45 1 1 39
M  V30 46 1 1 40
M  V30 47 1 4 41
M  V30 48 1 5 42
M  V30 49 1 11 43
M  V30 50 1 12 44
M  V30 51 1 13 45
M  V30 52 1 17 46
M  V30 53 1 18 47
M  V30 54 1 21 48
M  V30 55 1 22 49
M  V30 56 1 23 50
M  V30 57 1 26 51
M  V30 58 1 26 52
M  V30 59 1 27 53
M  V30 60 1 27 54
M  V30 61 1 29 55
M  V30 62 1 29 56
M  V30 63 1 30 57
M  V30 64 1 30 58
M  V30 65 1 31 59
M  V30 66 1 34 60
M  V30 67 1 35 61
M  V30 68 1 36 62
M  V30 69 1 36 63
M  V30 70 1 37 64
M  V30 71 1 37 65
M  V30 72 1 38 66
M  V30 73 1 38 67
M  V30 END BOND
M  V30 END CTAB
M  END
>  <Dataset>  (648) 
ChEMBL_Kinases

>  <Ligand_Instance>  (648) 
nan

>  <PDB_ID>  (648) 
nan

>  <Standardized_SMILES>  (648) 
NC1(c2ccc(-n3c(-c4ncccn4)nc4ccc(-c5cccc(N6CCOCC6)c5)nc43)cc2)CCC1

>  <Name>  (648) 
nan

>  <Pocket>  (648) 
nan

>  <ATP_Site>  (648) 
nan

>  <Peripheral>  (648) 
nan

>  <Num_H_Atoms_ProtBoundConf>  (648) 
nan

>  <Num_Resolved_Atoms>  (648) 
nan

>  <Num_Not_Resolved_Atoms>  (648) 
nan

$$$$
CHEMBL3649683
     RDKit          3D

  0  0  0  0  0  0  0  0  0  0999 V3000
M  V30 BEGIN CTAB
M  V30 COUNTS 69 75 0 0 0
M  V30 BEGIN ATOM
M  V30 1 N 3.636931 2.827438 4.165193 0
M  V30 2 C 2.246293 2.579002 4.531168 0
M  V30 3 C 1.425108 2.354032 3.337795 0
M  V30 4 C 1.904077 1.441044 2.420621 0
M  V30 5 C 1.206605 1.154850 1.260466 0
M  V30 6 C 0.002392 1.757088 0.950944 0
M  V30 7 N -0.785897 1.546437 -0.185537 0
M  V30 8 C -1.435030 2.506166 -0.856378 0
M  V30 9 C -1.512556 3.952889 -0.625426 0
M  V30 10 C -0.256579 4.564016 -0.539828 0
M  V30 11 C -0.240686 5.927389 -0.323281 0
M  V30 12 C -1.401154 6.662434 -0.195766 0
M  V30 13 Cl -1.354960 8.406244 0.081020 0
M  V30 14 C -2.642580 6.035183 -0.284030 0
M  V30 15 C -2.676207 4.683877 -0.498522 0
M  V30 16 N -2.107281 1.990678 -1.904075 0
M  V30 17 C -1.897491 0.648964 -1.928465 0
M  V30 18 C -2.310691 -0.387800 -2.740860 0
M  V30 19 C -1.881264 -1.680583 -2.450972 0
M  V30 20 C -1.067239 -1.914830 -1.383076 0
M  V30 21 C -0.574277 -3.238318 -1.013248 0
M  V30 22 C 0.245607 -3.350777 0.090823 0
M  V30 23 C 0.743657 -4.594914 0.485882 0
M  V30 24 C 0.403111 -5.697668 -0.242090 0
M  V30 25 C -0.423861 -5.645665 -1.370048 0
M  V30 26 N -0.763074 -6.811812 -2.111524 0
M  V30 27 C -1.621199 -6.651296 -3.248370 0
M  V30 28 C -1.790817 -7.914593 -4.050616 0
M  V30 29 O -1.539647 -9.069704 -3.346321 0
M  V30 30 C -0.276089 -9.111214 -2.810320 0
M  V30 31 C -0.229231 -8.086852 -1.683765 0
M  V30 32 C -0.879276 -4.392256 -1.704191 0
M  V30 33 N -0.677952 -0.887211 -0.605868 0
M  V30 34 C -1.077060 0.395954 -0.856161 0
M  V30 35 C -0.479809 2.680489 1.880829 0
M  V30 36 C 0.222144 2.960228 3.035643 0
M  V30 37 C 1.793079 3.546567 5.557180 0
M  V30 38 C 1.281435 2.346996 6.365387 0
M  V30 39 C 2.193463 1.451941 5.554301 0
M  V30 40 H 4.075302 2.046962 3.660258 0
M  V30 41 H 4.185687 3.218960 4.954665 0
M  V30 42 H 2.836530 0.888254 2.526532 0
M  V30 43 H 1.558038 0.438584 0.515695 0
M  V30 44 H 0.687832 4.044530 -0.630972 0
M  V30 45 H 0.715794 6.429210 -0.252392 0
M  V30 46 H -3.560119 6.594784 -0.186647 0
M  V30 47 H -3.596782 4.122457 -0.579159 0
M  V30 48 H -2.954352 -0.165606 -3.576492 0
M  V30 49 H -2.198013 -2.484003 -3.075682 0
M  V30 50 H 0.539153 -2.490266 0.697039 0
M  V30 51 H 1.384831 -4.667181 1.353024 0
M  V30 52 H 0.805061 -6.643252 0.090520 0
M  V30 53 H -2.604711 -6.250931 -2.885015 0
M  V30 54 H -1.171934 -5.864332 -3.890664 0
M  V30 55 H -1.229509 -7.826098 -5.001742 0
M  V30 56 H -2.866575 -7.955160 -4.341814 0
M  V30 57 H 0.519182 -8.886940 -3.548071 0
M  V30 58 H -0.072053 -10.088803 -2.375613 0
M  V30 59 H 0.852975 -8.035861 -1.397487 0
M  V30 60 H -0.831208 -8.422470 -0.833863 0
M  V30 61 H -1.514584 -4.334825 -2.566638 0
M  V30 62 H -1.423707 3.231184 1.759620 0
M  V30 63 H -0.149584 3.669756 3.748888 0
M  V30 64 H 2.637652 4.064308 6.085433 0
M  V30 65 H 0.972245 4.226631 5.358823 0
M  V30 66 H 1.491754 2.450820 7.428748 0
M  V30 67 H 0.232262 2.080283 6.181429 0
M  V30 68 H 3.133552 1.309909 6.114729 0
M  V30 69 H 1.752118 0.508907 5.212661 0
M  V30 END ATOM
M  V30 BEGIN BOND
M  V30 1 1 1 2
M  V30 2 1 2 3
M  V30 3 2 3 4
M  V30 4 1 4 5
M  V30 5 2 5 6
M  V30 6 1 6 7
M  V30 7 1 7 8
M  V30 8 1 8 9
M  V30 9 2 9 10
M  V30 10 1 10 11
M  V30 11 2 11 12
M  V30 12 1 12 13
M  V30 13 1 12 14
M  V30 14 2 14 15
M  V30 15 2 8 16
M  V30 16 1 16 17
M  V30 17 2 17 18
M  V30 18 1 18 19
M  V30 19 2 19 20
M  V30 20 1 20 21
M  V30 21 2 21 22
M  V30 22 1 22 23
M  V30 23 2 23 24
M  V30 24 1 24 25
M  V30 25 1 25 26
M  V30 26 1 26 27
M  V30 27 1 27 28
M  V30 28 1 28 29
M  V30 29 1 29 30
M  V30 30 1 30 31
M  V30 31 2 25 32
M  V30 32 1 20 33
M  V30 33 2 33 34
M  V30 34 1 6 35
M  V30 35 2 35 36
M  V30 36 1 2 37
M  V30 37 1 37 38
M  V30 38 1 38 39
M  V30 39 1 39 2
M  V30 40 1 36 3
M  V30 41 1 34 7
M  V30 42 1 15 9
M  V30 43 1 34 17
M  V30 44 1 32 21
M  V30 45 1 31 26
M  V30 46 1 1 40
M  V30 47 1 1 41
M  V30 48 1 4 42
M  V30 49 1 5 43
M  V30 50 1 10 44
M  V30 51 1 11 45
M  V30 52 1 14 46
M  V30 53 1 15 47
M  V30 54 1 18 48
M  V30 55 1 19 49
M  V30 56 1 22 50
M  V30 57 1 23 51
M  V30 58 1 24 52
M  V30 59 1 27 53
M  V30 60 1 27 54
M  V30 61 1 28 55
M  V30 62 1 28 56
M  V30 63 1 30 57
M  V30 64 1 30 58
M  V30 65 1 31 59
M  V30 66 1 31 60
M  V30 67 1 32 61
M  V30 68 1 35 62
M  V30 69 1 36 63
M  V30 70 1 37 64
M  V30 71 1 37 65
M  V30 72 1 38 66
M  V30 73 1 38 67
M  V30 74 1 39 68
M  V30 75 1 39 69
M  V30 END BOND
M  V30 END CTAB
M  END
>  <Dataset>  (649) 
ChEMBL_Kinases

>  <Ligand_Instance>  (649) 
nan

>  <PDB_ID>  (649) 
nan

>  <Standardized_SMILES>  (649) 
NC1(c2ccc(-n3c(-c4ccc(Cl)cc4)nc4ccc(-c5cccc(N6CCOCC6)c5)nc43)cc2)CCC1

>  <Name>  (649) 
nan

>  <Pocket>  (649) 
nan

>  <ATP_Site>  (649) 
nan

>  <Peripheral>  (649) 
nan

>  <Num_H_Atoms_ProtBoundConf>  (649) 
nan

>  <Num_Resolved_Atoms>  (649) 
nan

>  <Num_Not_Resolved_Atoms>  (649) 
nan

$$$$
CHEMBL3649682
     RDKit          3D

  0  0  0  0  0  0  0  0  0  0999 V3000
M  V30 BEGIN CTAB
M  V30 COUNTS 69 75 0 0 0
M  V30 BEGIN ATOM
M  V30 1 N 3.098268 2.948367 4.361135 0
M  V30 2 C 1.712680 2.560962 4.608680 0
M  V30 3 C 1.009817 2.353693 3.328252 0
M  V30 4 C 1.639362 1.565849 2.384399 0
M  V30 5 C 1.059148 1.314787 1.155646 0
M  V30 6 C -0.185528 1.841136 0.806844 0
M  V30 7 N -0.755977 1.569106 -0.455593 0
M  V30 8 C -1.178718 2.553546 -1.265908 0
M  V30 9 C -1.150623 3.993465 -1.053002 0
M  V30 10 C 0.137486 4.479053 -1.255517 0
M  V30 11 C 0.433863 5.838827 -1.112313 0
M  V30 12 C -0.590045 6.689811 -0.763208 0
M  V30 13 C -1.867202 6.206768 -0.562617 0
M  V30 14 Cl -3.216354 7.230897 -0.117501 0
M  V30 15 C -2.149277 4.862436 -0.706581 0
M  V30 16 N -1.685145 2.023295 -2.417376 0
M  V30 17 C -1.588579 0.684906 -2.350042 0
M  V30 18 C -1.891864 -0.413965 -3.122289 0
M  V30 19 C -1.619811 -1.688720 -2.668758 0
M  V30 20 C -1.040654 -1.929666 -1.441574 0
M  V30 21 C -0.728331 -3.249620 -0.905121 0
M  V30 22 C -0.148569 -3.290607 0.346119 0
M  V30 23 C 0.172536 -4.510477 0.911336 0
M  V30 24 C -0.089995 -5.672577 0.218782 0
M  V30 25 C -0.668953 -5.650983 -1.032725 0
M  V30 26 N -0.968844 -6.808164 -1.804128 0
M  V30 27 C -1.557485 -6.804903 -3.135415 0
M  V30 28 C -1.081015 -8.065476 -3.835436 0
M  V30 29 O 0.248751 -8.353879 -3.540856 0
M  V30 30 C 0.459146 -8.647136 -2.217875 0
M  V30 31 C -0.732529 -8.173851 -1.376851 0
M  V30 32 C -0.970768 -4.428118 -1.555906 0
M  V30 33 N -0.753729 -0.844172 -0.706125 0
M  V30 34 C -1.010079 0.420729 -1.126659 0
M  V30 35 C -0.799145 2.631415 1.774957 0
M  V30 36 C -0.222934 2.878589 2.990547 0
M  V30 37 C 1.063682 3.401709 5.642779 0
M  V30 38 C 1.453483 2.378986 6.689641 0
M  V30 39 C 1.655495 1.389409 5.562752 0
M  V30 40 H 3.659950 2.087915 4.136788 0
M  V30 41 H 3.452850 3.322363 5.275192 0
M  V30 42 H 2.609338 1.115462 2.569554 0
M  V30 43 H 1.542800 0.693909 0.397022 0
M  V30 44 H 1.033167 3.908329 -1.534616 0
M  V30 45 H 1.407824 6.267451 -1.256064 0
M  V30 46 H -0.428292 7.744293 -0.637434 0
M  V30 47 H -3.099450 4.359847 -0.579167 0
M  V30 48 H -2.345259 -0.231233 -4.083865 0
M  V30 49 H -1.864583 -2.527202 -3.286988 0
M  V30 50 H 0.090538 -2.422602 0.956716 0
M  V30 51 H 0.627492 -4.585141 1.888558 0
M  V30 52 H 0.159869 -6.624739 0.657870 0
M  V30 53 H -2.662342 -6.892137 -3.046537 0
M  V30 54 H -1.263551 -5.958243 -3.756757 0
M  V30 55 H -1.778235 -8.888997 -3.652534 0
M  V30 56 H -1.109860 -7.872511 -4.927521 0
M  V30 57 H 0.733422 -9.680572 -1.998918 0
M  V30 58 H 1.318158 -8.002000 -1.878457 0
M  V30 59 H -1.573989 -8.858093 -1.624167 0
M  V30 60 H -0.473962 -8.286064 -0.325778 0
M  V30 61 H -1.418097 -4.355549 -2.515720 0
M  V30 62 H -1.760849 3.061227 1.555428 0
M  V30 63 H -0.713280 3.487218 3.714942 0
M  V30 64 H -0.032628 3.506232 5.640744 0
M  V30 65 H 1.568114 4.374960 5.829167 0
M  V30 66 H 0.632112 2.015754 7.345842 0
M  V30 67 H 2.409717 2.628438 7.202186 0
M  V30 68 H 2.599216 0.819349 5.600891 0
M  V30 69 H 0.797082 0.701130 5.385455 0
M  V30 END ATOM
M  V30 BEGIN BOND
M  V30 1 1 1 2
M  V30 2 1 2 3
M  V30 3 2 3 4
M  V30 4 1 4 5
M  V30 5 2 5 6
M  V30 6 1 6 7
M  V30 7 1 7 8
M  V30 8 1 8 9
M  V30 9 2 9 10
M  V30 10 1 10 11
M  V30 11 2 11 12
M  V30 12 1 12 13
M  V30 13 1 13 14
M  V30 14 2 13 15
M  V30 15 2 8 16
M  V30 16 1 16 17
M  V30 17 2 17 18
M  V30 18 1 18 19
M  V30 19 2 19 20
M  V30 20 1 20 21
M  V30 21 2 21 22
M  V30 22 1 22 23
M  V30 23 2 23 24
M  V30 24 1 24 25
M  V30 25 1 25 26
M  V30 26 1 26 27
M  V30 27 1 27 28
M  V30 28 1 28 29
M  V30 29 1 29 30
M  V30 30 1 30 31
M  V30 31 2 25 32
M  V30 32 1 20 33
M  V30 33 2 33 34
M  V30 34 1 6 35
M  V30 35 2 35 36
M  V30 36 1 2 37
M  V30 37 1 37 38
M  V30 38 1 38 39
M  V30 39 1 39 2
M  V30 40 1 36 3
M  V30 41 1 34 7
M  V30 42 1 15 9
M  V30 43 1 34 17
M  V30 44 1 32 21
M  V30 45 1 31 26
M  V30 46 1 1 40
M  V30 47 1 1 41
M  V30 48 1 4 42
M  V30 49 1 5 43
M  V30 50 1 10 44
M  V30 51 1 11 45
M  V30 52 1 12 46
M  V30 53 1 15 47
M  V30 54 1 18 48
M  V30 55 1 19 49
M  V30 56 1 22 50
M  V30 57 1 23 51
M  V30 58 1 24 52
M  V30 59 1 27 53
M  V30 60 1 27 54
M  V30 61 1 28 55
M  V30 62 1 28 56
M  V30 63 1 30 57
M  V30 64 1 30 58
M  V30 65 1 31 59
M  V30 66 1 31 60
M  V30 67 1 32 61
M  V30 68 1 35 62
M  V30 69 1 36 63
M  V30 70 1 37 64
M  V30 71 1 37 65
M  V30 72 1 38 66
M  V30 73 1 38 67
M  V30 74 1 39 68
M  V30 75 1 39 69
M  V30 END BOND
M  V30 END CTAB
M  END
>  <Dataset>  (650) 
ChEMBL_Kinases

>  <Ligand_Instance>  (650) 
nan

>  <PDB_ID>  (650) 
nan

>  <Standardized_SMILES>  (650) 
NC1(c2ccc(-n3c(-c4cccc(Cl)c4)nc4ccc(-c5cccc(N6CCOCC6)c5)nc43)cc2)CCC1

>  <Name>  (650) 
nan

>  <Pocket>  (650) 
nan

>  <ATP_Site>  (650) 
nan

>  <Peripheral>  (650) 
nan

>  <Num_H_Atoms_ProtBoundConf>  (650) 
nan

>  <Num_Resolved_Atoms>  (650) 
nan

>  <Num_Not_Resolved_Atoms>  (650) 
nan

$$$$
CHEMBL3649681
     RDKit          3D

  0  0  0  0  0  0  0  0  0  0999 V3000
M  V30 BEGIN CTAB
M  V30 COUNTS 69 75 0 0 0
M  V30 BEGIN ATOM
M  V30 1 N 3.160205 2.772226 4.377056 0
M  V30 2 C 1.729542 2.588823 4.626433 0
M  V30 3 C 1.038845 2.382504 3.333390 0
M  V30 4 C 1.591029 1.411470 2.504800 0
M  V30 5 C 0.994289 1.165967 1.277847 0
M  V30 6 C -0.132565 1.829857 0.808907 0
M  V30 7 N -0.718581 1.559280 -0.444352 0
M  V30 8 C -1.161861 2.532844 -1.257011 0
M  V30 9 C -1.176636 3.980655 -1.122687 0
M  V30 10 C 0.093011 4.555635 -1.155305 0
M  V30 11 C 0.297593 5.917903 -1.043618 0
M  V30 12 C -0.851929 6.699271 -0.894177 0
M  V30 13 C -2.120054 6.170512 -0.857422 0
M  V30 14 F -3.218275 6.951073 -0.711748 0
M  V30 15 C -2.272889 4.800784 -0.973256 0
M  V30 16 N -1.674088 1.971621 -2.388763 0
M  V30 17 C -1.565639 0.636958 -2.315297 0
M  V30 18 C -1.873874 -0.466513 -3.083764 0
M  V30 19 C -1.586283 -1.736930 -2.629541 0
M  V30 20 C -0.988109 -1.972212 -1.409693 0
M  V30 21 C -0.658433 -3.287696 -0.872784 0
M  V30 22 C -0.060362 -3.311934 0.370968 0
M  V30 23 C 0.281064 -4.523132 0.944188 0
M  V30 24 C 0.017849 -5.688006 0.262572 0
M  V30 25 C -0.578681 -5.687219 -0.980673 0
M  V30 26 N -0.887020 -6.840378 -1.754054 0
M  V30 27 C -1.508548 -6.809294 -3.075277 0
M  V30 28 C -1.239993 -8.126241 -3.774855 0
M  V30 29 O 0.064578 -8.555432 -3.621946 0
M  V30 30 C 0.450277 -8.714657 -2.315044 0
M  V30 31 C -0.633567 -8.211405 -1.350662 0
M  V30 32 C -0.901034 -4.466673 -1.513121 0
M  V30 33 N -0.701604 -0.876521 -0.687350 0
M  V30 34 C -0.971107 0.385367 -1.104877 0
M  V30 35 C -0.632336 2.783846 1.682012 0
M  V30 36 C -0.080403 3.064184 2.904147 0
M  V30 37 C 1.190770 3.607910 5.554239 0
M  V30 38 C 1.352194 2.604070 6.695334 0
M  V30 39 C 1.513103 1.523657 5.652792 0
M  V30 40 H 3.571002 1.827953 4.174509 0
M  V30 41 H 3.572520 3.037890 5.320872 0
M  V30 42 H 2.461331 0.842796 2.775147 0
M  V30 43 H 1.437727 0.402776 0.639443 0
M  V30 44 H 1.007515 3.985769 -1.269452 0
M  V30 45 H 1.287096 6.362057 -1.069537 0
M  V30 46 H -0.718049 7.768334 -0.804485 0
M  V30 47 H -3.222652 4.296665 -0.955850 0
M  V30 48 H -2.342026 -0.292878 -4.039388 0
M  V30 49 H -1.833640 -2.584254 -3.241667 0
M  V30 50 H 0.183299 -2.440658 0.978513 0
M  V30 51 H 0.742869 -4.612869 1.896272 0
M  V30 52 H 0.274087 -6.639058 0.688262 0
M  V30 53 H -2.609802 -6.727504 -2.981042 0
M  V30 54 H -1.123904 -5.992323 -3.715774 0
M  V30 55 H -2.008408 -8.880841 -3.537505 0
M  V30 56 H -1.353003 -7.915920 -4.877923 0
M  V30 57 H 0.766211 -9.748557 -2.067983 0
M  V30 58 H 1.326846 -8.062138 -2.124753 0
M  V30 59 H -1.509704 -8.859795 -1.556910 0
M  V30 60 H -0.234992 -8.319025 -0.342238 0
M  V30 61 H -1.362006 -4.403072 -2.466045 0
M  V30 62 H -1.502591 3.358147 1.420962 0
M  V30 63 H -0.485455 3.802023 3.553743 0
M  V30 64 H 0.140185 3.904022 5.493118 0
M  V30 65 H 1.872468 4.463887 5.728951 0
M  V30 66 H 0.436712 2.420723 7.286012 0
M  V30 67 H 2.231206 2.767782 7.341198 0
M  V30 68 H 2.419638 0.907682 5.896873 0
M  V30 69 H 0.603879 0.902439 5.503595 0
M  V30 END ATOM
M  V30 BEGIN BOND
M  V30 1 1 1 2
M  V30 2 1 2 3
M  V30 3 2 3 4
M  V30 4 1 4 5
M  V30 5 2 5 6
M  V30 6 1 6 7
M  V30 7 1 7 8
M  V30 8 1 8 9
M  V30 9 2 9 10
M  V30 10 1 10 11
M  V30 11 2 11 12
M  V30 12 1 12 13
M  V30 13 1 13 14
M  V30 14 2 13 15
M  V30 15 2 8 16
M  V30 16 1 16 17
M  V30 17 2 17 18
M  V30 18 1 18 19
M  V30 19 2 19 20
M  V30 20 1 20 21
M  V30 21 2 21 22
M  V30 22 1 22 23
M  V30 23 2 23 24
M  V30 24 1 24 25
M  V30 25 1 25 26
M  V30 26 1 26 27
M  V30 27 1 27 28
M  V30 28 1 28 29
M  V30 29 1 29 30
M  V30 30 1 30 31
M  V30 31 2 25 32
M  V30 32 1 20 33
M  V30 33 2 33 34
M  V30 34 1 6 35
M  V30 35 2 35 36
M  V30 36 1 2 37
M  V30 37 1 37 38
M  V30 38 1 38 39
M  V30 39 1 39 2
M  V30 40 1 36 3
M  V30 41 1 34 7
M  V30 42 1 15 9
M  V30 43 1 34 17
M  V30 44 1 32 21
M  V30 45 1 31 26
M  V30 46 1 1 40
M  V30 47 1 1 41
M  V30 48 1 4 42
M  V30 49 1 5 43
M  V30 50 1 10 44
M  V30 51 1 11 45
M  V30 52 1 12 46
M  V30 53 1 15 47
M  V30 54 1 18 48
M  V30 55 1 19 49
M  V30 56 1 22 50
M  V30 57 1 23 51
M  V30 58 1 24 52
M  V30 59 1 27 53
M  V30 60 1 27 54
M  V30 61 1 28 55
M  V30 62 1 28 56
M  V30 63 1 30 57
M  V30 64 1 30 58
M  V30 65 1 31 59
M  V30 66 1 31 60
M  V30 67 1 32 61
M  V30 68 1 35 62
M  V30 69 1 36 63
M  V30 70 1 37 64
M  V30 71 1 37 65
M  V30 72 1 38 66
M  V30 73 1 38 67
M  V30 74 1 39 68
M  V30 75 1 39 69
M  V30 END BOND
M  V30 END CTAB
M  END
>  <Dataset>  (651) 
ChEMBL_Kinases

>  <Ligand_Instance>  (651) 
nan

>  <PDB_ID>  (651) 
nan

>  <Standardized_SMILES>  (651) 
NC1(c2ccc(-n3c(-c4cccc(F)c4)nc4ccc(-c5cccc(N6CCOCC6)c5)nc43)cc2)CCC1

>  <Name>  (651) 
nan

>  <Pocket>  (651) 
nan

>  <ATP_Site>  (651) 
nan

>  <Peripheral>  (651) 
nan

>  <Num_H_Atoms_ProtBoundConf>  (651) 
nan

>  <Num_Resolved_Atoms>  (651) 
nan

>  <Num_Not_Resolved_Atoms>  (651) 
nan

$$$$
CHEMBL3649680
     RDKit          3D

  0  0  0  0  0  0  0  0  0  0999 V3000
M  V30 BEGIN CTAB
M  V30 COUNTS 73 79 0 0 0
M  V30 BEGIN ATOM
M  V30 1 C 2.454904 -1.919677 8.917262 0
M  V30 2 O 1.160911 -1.545580 8.463526 0
M  V30 3 C 0.833636 -1.741428 7.140294 0
M  V30 4 C -0.418059 -1.386686 6.671616 0
M  V30 5 C -0.760741 -1.576722 5.348445 0
M  V30 6 C 0.149502 -2.127733 4.469912 0
M  V30 7 C -0.039362 -2.398988 3.047010 0
M  V30 8 N -0.182830 -3.662468 2.549485 0
M  V30 9 C -0.337648 -3.587713 1.218620 0
M  V30 10 C -0.522109 -4.451071 0.158967 0
M  V30 11 C -0.642571 -3.951694 -1.120456 0
M  V30 12 C -0.590332 -2.608737 -1.427384 0
M  V30 13 C -0.713480 -2.044704 -2.765441 0
M  V30 14 C -0.631836 -0.665481 -2.848332 0
M  V30 15 C -0.736022 -0.011831 -4.081153 0
M  V30 16 C -0.921599 -0.810596 -5.188171 0
M  V30 17 C -1.008333 -2.184886 -5.150737 0
M  V30 18 N -1.194674 -3.011485 -6.290371 0
M  V30 19 C -1.380880 -4.448083 -6.231460 0
M  V30 20 C -2.331121 -4.792785 -7.384511 0
M  V30 21 O -3.252280 -3.754059 -7.502755 0
M  V30 22 C -2.684123 -2.650964 -8.118495 0
M  V30 23 C -1.220411 -2.550490 -7.664168 0
M  V30 24 C -0.899690 -2.780658 -3.913067 0
M  V30 25 N -0.410704 -1.782971 -0.387387 0
M  V30 26 C -0.288212 -2.251265 0.891824 0
M  V30 27 N -0.103534 -1.537299 2.036129 0
M  V30 28 C 0.000541 -0.123557 2.120477 0
M  V30 29 C -1.017311 0.761968 1.805918 0
M  V30 30 C -0.829118 2.131123 1.917278 0
M  V30 31 C 0.388821 2.669612 2.349142 0
M  V30 32 C 0.308475 4.146605 2.372928 0
M  V30 33 N -0.873152 4.634628 3.071753 0
M  V30 34 C 1.528617 4.887602 2.817962 0
M  V30 35 C 1.821781 5.163489 1.349663 0
M  V30 36 C 0.392825 4.793627 0.999167 0
M  V30 37 C 1.398058 1.782392 2.660676 0
M  V30 38 C 1.192121 0.441925 2.544320 0
M  V30 39 C 1.420349 -2.493205 4.923644 0
M  V30 40 C 1.735056 -2.291401 6.252311 0
M  V30 41 H 2.656755 -2.996930 8.716393 0
M  V30 42 H 3.238096 -1.328485 8.369500 0
M  V30 43 H 2.546883 -1.700807 9.987438 0
M  V30 44 H -1.177973 -0.946872 7.321600 0
M  V30 45 H -1.728402 -1.322913 4.901314 0
M  V30 46 H -0.566832 -5.506261 0.369041 0
M  V30 47 H -0.782923 -4.657519 -1.899390 0
M  V30 48 H -0.485799 -0.006161 -1.993281 0
M  V30 49 H -0.675289 1.061981 -4.169630 0
M  V30 50 H -1.001585 -0.294140 -6.133072 0
M  V30 51 H -1.814313 -4.805537 -5.276205 0
M  V30 52 H -0.428010 -4.993062 -6.461208 0
M  V30 53 H -2.825247 -5.767867 -7.203378 0
M  V30 54 H -1.776904 -4.854028 -8.334735 0
M  V30 55 H -2.695453 -2.667701 -9.212786 0
M  V30 56 H -3.175926 -1.742300 -7.670375 0
M  V30 57 H -0.576617 -3.215779 -8.310175 0
M  V30 58 H -0.874693 -1.508314 -7.734137 0
M  V30 59 H -0.946900 -3.834362 -3.734915 0
M  V30 60 H -1.935832 0.296520 1.478063 0
M  V30 61 H -1.737747 2.681952 1.628174 0
M  V30 62 H -1.742393 4.534275 2.480287 0
M  V30 63 H -0.700546 5.643812 3.299742 0
M  V30 64 H 1.313898 5.854663 3.361139 0
M  V30 65 H 2.312412 4.288324 3.275962 0
M  V30 66 H 2.088126 6.207730 1.170454 0
M  V30 67 H 2.586287 4.483588 0.913623 0
M  V30 68 H 0.377885 4.026039 0.221734 0
M  V30 69 H -0.283421 5.663325 0.854250 0
M  V30 70 H 2.280191 2.291296 2.977058 0
M  V30 71 H 2.061455 -0.157168 2.818407 0
M  V30 72 H 2.203738 -2.935648 4.299775 0
M  V30 73 H 2.712350 -2.566032 6.628019 0
M  V30 END ATOM
M  V30 BEGIN BOND
M  V30 1 1 1 2
M  V30 2 1 2 3
M  V30 3 2 3 4
M  V30 4 1 4 5
M  V30 5 2 5 6
M  V30 6 1 6 7
M  V30 7 2 7 8
M  V30 8 1 8 9
M  V30 9 2 9 10
M  V30 10 1 10 11
M  V30 11 2 11 12
M  V30 12 1 12 13
M  V30 13 2 13 14
M  V30 14 1 14 15
M  V30 15 2 15 16
M  V30 16 1 16 17
M  V30 17 1 17 18
M  V30 18 1 18 19
M  V30 19 1 19 20
M  V30 20 1 20 21
M  V30 21 1 21 22
M  V30 22 1 22 23
M  V30 23 2 17 24
M  V30 24 1 12 25
M  V30 25 2 25 26
M  V30 26 1 26 27
M  V30 27 1 27 28
M  V30 28 2 28 29
M  V30 29 1 29 30
M  V30 30 2 30 31
M  V30 31 1 31 32
M  V30 32 1 32 33
M  V30 33 1 32 34
M  V30 34 1 34 35
M  V30 35 1 35 36
M  V30 36 1 31 37
M  V30 37 2 37 38
M  V30 38 1 6 39
M  V30 39 2 39 40
M  V30 40 1 40 3
M  V30 41 1 27 7
M  V30 42 1 38 28
M  V30 43 1 26 9
M  V30 44 1 36 32
M  V30 45 1 24 13
M  V30 46 1 23 18
M  V30 47 1 1 41
M  V30 48 1 1 42
M  V30 49 1 1 43
M  V30 50 1 4 44
M  V30 51 1 5 45
M  V30 52 1 10 46
M  V30 53 1 11 47
M  V30 54 1 14 48
M  V30 55 1 15 49
M  V30 56 1 16 50
M  V30 57 1 19 51
M  V30 58 1 19 52
M  V30 59 1 20 53
M  V30 60 1 20 54
M  V30 61 1 22 55
M  V30 62 1 22 56
M  V30 63 1 23 57
M  V30 64 1 23 58
M  V30 65 1 24 59
M  V30 66 1 29 60
M  V30 67 1 30 61
M  V30 68 1 33 62
M  V30 69 1 33 63
M  V30 70 1 34 64
M  V30 71 1 34 65
M  V30 72 1 35 66
M  V30 73 1 35 67
M  V30 74 1 36 68
M  V30 75 1 36 69
M  V30 76 1 37 70
M  V30 77 1 38 71
M  V30 78 1 39 72
M  V30 79 1 40 73
M  V30 END BOND
M  V30 END CTAB
M  END
>  <Dataset>  (652) 
ChEMBL_Kinases

>  <Ligand_Instance>  (652) 
nan

>  <PDB_ID>  (652) 
nan

>  <Standardized_SMILES>  (652) 
COc1ccc(-c2nc3ccc(-c4cccc(N5CCOCC5)c4)nc3n2-c2ccc(C3(N)CCC3)cc2)cc1

>  <Name>  (652) 
nan

>  <Pocket>  (652) 
nan

>  <ATP_Site>  (652) 
nan

>  <Peripheral>  (652) 
nan

>  <Num_H_Atoms_ProtBoundConf>  (652) 
nan

>  <Num_Resolved_Atoms>  (652) 
nan

>  <Num_Not_Resolved_Atoms>  (652) 
nan

$$$$
CHEMBL3649679
     RDKit          3D

  0  0  0  0  0  0  0  0  0  0999 V3000
M  V30 BEGIN CTAB
M  V30 COUNTS 70 76 0 0 0
M  V30 BEGIN ATOM
M  V30 1 N 3.999838 -0.882907 2.618558 0
M  V30 2 C 2.689923 -0.668422 3.208437 0
M  V30 3 C 1.723729 -0.072009 2.280478 0
M  V30 4 C 0.362570 -0.262435 2.171757 0
M  V30 5 C -0.395944 0.392342 1.224847 0
M  V30 6 C 0.187855 1.275958 0.337428 0
M  V30 7 N -0.746222 1.854572 -0.563287 0
M  V30 8 C -0.884153 3.182497 -0.697653 0
M  V30 9 C -0.191767 4.249665 -0.032254 0
M  V30 10 C 0.896155 4.920730 -0.565214 0
M  V30 11 C 1.553906 5.948345 0.088598 0
M  V30 12 C 1.052878 6.275073 1.331877 0
M  V30 13 C -0.037274 5.631858 1.911805 0
M  V30 14 O -0.477115 6.030903 3.179420 0
M  V30 15 C -0.665138 4.605457 1.216320 0
M  V30 16 N -1.853696 3.394967 -1.631552 0
M  V30 17 C -2.315939 2.216678 -2.075318 0
M  V30 18 C -3.255606 1.762805 -2.979626 0
M  V30 19 C -3.399562 0.390398 -3.116676 0
M  V30 20 C -2.670712 -0.538429 -2.413815 0
M  V30 21 C -2.866980 -1.979743 -2.601759 0
M  V30 22 C -3.762842 -2.561512 -3.463628 0
M  V30 23 C -3.895553 -3.922820 -3.590885 0
M  V30 24 C -3.091576 -4.725861 -2.816971 0
M  V30 25 C -2.168851 -4.220760 -1.929243 0
M  V30 26 N -1.322304 -5.020341 -1.114989 0
M  V30 27 C -1.296919 -6.448163 -1.100691 0
M  V30 28 C 0.079007 -7.054713 -1.004592 0
M  V30 29 O 0.996569 -6.251325 -0.331515 0
M  V30 30 C 0.282938 -5.488814 0.590427 0
M  V30 31 C -0.396822 -4.393284 -0.212896 0
M  V30 32 C -2.099754 -2.852948 -1.863190 0
M  V30 33 N -1.758915 -0.081067 -1.536328 0
M  V30 34 C -1.613907 1.247471 -1.398165 0
M  V30 35 C 1.548805 1.488022 0.420971 0
M  V30 36 C 2.296360 0.826813 1.372651 0
M  V30 37 C 2.869625 0.123535 4.507871 0
M  V30 38 C 2.049507 -0.903455 5.263878 0
M  V30 39 C 2.250232 -1.818742 4.049295 0
M  V30 40 H 4.519519 -1.517190 3.279716 0
M  V30 41 H 3.935484 -1.281616 1.654295 0
M  V30 42 H -0.037448 -0.957531 2.885767 0
M  V30 43 H -1.453659 0.144715 1.256361 0
M  V30 44 H 1.246005 4.621506 -1.544898 0
M  V30 45 H 2.394199 6.441146 -0.363051 0
M  V30 46 H 1.509342 7.068508 1.911550 0
M  V30 47 H -0.776215 6.989152 3.352296 0
M  V30 48 H -1.498401 4.135487 1.693570 0
M  V30 49 H -3.821890 2.493727 -3.525745 0
M  V30 50 H -4.149661 0.099267 -3.838564 0
M  V30 51 H -4.381494 -1.905997 -4.059083 0
M  V30 52 H -4.623452 -4.329176 -4.291179 0
M  V30 53 H -3.197845 -5.796258 -2.918604 0
M  V30 54 H -1.897629 -6.776938 -0.207373 0
M  V30 55 H -1.804770 -6.925337 -1.962280 0
M  V30 56 H -0.008895 -7.992593 -0.401914 0
M  V30 57 H 0.481095 -7.368025 -1.992965 0
M  V30 58 H -0.457758 -6.129169 1.083884 0
M  V30 59 H 0.924558 -5.079768 1.397967 0
M  V30 60 H -0.830652 -3.629844 0.447589 0
M  V30 61 H 0.415239 -3.952333 -0.845378 0
M  V30 62 H -1.374112 -2.427939 -1.165015 0
M  V30 63 H 1.929790 2.183737 -0.296749 0
M  V30 64 H 3.357994 1.072648 1.344208 0
M  V30 65 H 3.905496 0.139765 4.892357 0
M  V30 66 H 2.444909 1.135372 4.492323 0
M  V30 67 H 1.000233 -0.631799 5.443657 0
M  V30 68 H 2.517126 -1.304260 6.186328 0
M  V30 69 H 1.294546 -2.237439 3.715540 0
M  V30 70 H 3.047769 -2.586477 4.259519 0
M  V30 END ATOM
M  V30 BEGIN BOND
M  V30 1 1 1 2
M  V30 2 1 2 3
M  V30 3 2 3 4
M  V30 4 1 4 5
M  V30 5 2 5 6
M  V30 6 1 6 7
M  V30 7 1 7 8
M  V30 8 1 8 9
M  V30 9 2 9 10
M  V30 10 1 10 11
M  V30 11 2 11 12
M  V30 12 1 12 13
M  V30 13 1 13 14
M  V30 14 2 13 15
M  V30 15 2 8 16
M  V30 16 1 16 17
M  V30 17 2 17 18
M  V30 18 1 18 19
M  V30 19 2 19 20
M  V30 20 1 20 21
M  V30 21 2 21 22
M  V30 22 1 22 23
M  V30 23 2 23 24
M  V30 24 1 24 25
M  V30 25 1 25 26
M  V30 26 1 26 27
M  V30 27 1 27 28
M  V30 28 1 28 29
M  V30 29 1 29 30
M  V30 30 1 30 31
M  V30 31 2 25 32
M  V30 32 1 20 33
M  V30 33 2 33 34
M  V30 34 1 6 35
M  V30 35 2 35 36
M  V30 36 1 2 37
M  V30 37 1 37 38
M  V30 38 1 38 39
M  V30 39 1 39 2
M  V30 40 1 36 3
M  V30 41 1 34 7
M  V30 42 1 15 9
M  V30 43 1 34 17
M  V30 44 1 32 21
M  V30 45 1 31 26
M  V30 46 1 1 40
M  V30 47 1 1 41
M  V30 48 1 4 42
M  V30 49 1 5 43
M  V30 50 1 10 44
M  V30 51 1 11 45
M  V30 52 1 12 46
M  V30 53 1 14 47
M  V30 54 1 15 48
M  V30 55 1 18 49
M  V30 56 1 19 50
M  V30 57 1 22 51
M  V30 58 1 23 52
M  V30 59 1 24 53
M  V30 60 1 27 54
M  V30 61 1 27 55
M  V30 62 1 28 56
M  V30 63 1 28 57
M  V30 64 1 30 58
M  V30 65 1 30 59
M  V30 66 1 31 60
M  V30 67 1 31 61
M  V30 68 1 32 62
M  V30 69 1 35 63
M  V30 70 1 36 64
M  V30 71 1 37 65
M  V30 72 1 37 66
M  V30 73 1 38 67
M  V30 74 1 38 68
M  V30 75 1 39 69
M  V30 76 1 39 70
M  V30 END BOND
M  V30 END CTAB
M  END
>  <Dataset>  (653) 
ChEMBL_Kinases

>  <Ligand_Instance>  (653) 
nan

>  <PDB_ID>  (653) 
nan

>  <Standardized_SMILES>  (653) 
NC1(c2ccc(-n3c(-c4cccc(O)c4)nc4ccc(-c5cccc(N6CCOCC6)c5)nc43)cc2)CCC1

>  <Name>  (653) 
nan

>  <Pocket>  (653) 
nan

>  <ATP_Site>  (653) 
nan

>  <Peripheral>  (653) 
nan

>  <Num_H_Atoms_ProtBoundConf>  (653) 
nan

>  <Num_Resolved_Atoms>  (653) 
nan

>  <Num_Not_Resolved_Atoms>  (653) 
nan

$$$$
CHEMBL3649678
     RDKit          3D

  0  0  0  0  0  0  0  0  0  0999 V3000
M  V30 BEGIN CTAB
M  V30 COUNTS 66 72 0 0 0
M  V30 BEGIN ATOM
M  V30 1 N 4.611635 -2.513060 0.945884 0
M  V30 2 C 3.733741 -1.888003 1.902113 0
M  V30 3 C 2.896103 -0.799764 1.366433 0
M  V30 4 C 2.586690 0.340027 2.073731 0
M  V30 5 C 1.793491 1.371432 1.567756 0
M  V30 6 C 1.285318 1.251114 0.285345 0
M  V30 7 N 0.468929 2.257275 -0.303073 0
M  V30 8 C 0.841328 3.530786 -0.618518 0
M  V30 9 C 2.181078 4.058382 -0.387119 0
M  V30 10 C 2.579781 5.357760 -0.703951 0
M  V30 11 C 3.922116 5.525466 -0.350342 0
M  V30 12 N 4.279703 4.322501 0.165013 0
M  V30 13 N 3.259089 3.483550 0.136341 0
M  V30 14 N -0.212800 4.198887 -1.165735 0
M  V30 15 C -1.275817 3.348163 -1.203787 0
M  V30 16 C -2.579900 3.397784 -1.619067 0
M  V30 17 C -3.365936 2.276927 -1.481498 0
M  V30 18 C -2.943996 1.080762 -0.949390 0
M  V30 19 C -3.788698 -0.098870 -0.810097 0
M  V30 20 C -5.108651 -0.119800 -1.206404 0
M  V30 21 C -5.834807 -1.289369 -1.034429 0
M  V30 22 C -5.224567 -2.404152 -0.472518 0
M  V30 23 C -3.917097 -2.402533 -0.073351 0
M  V30 24 N -3.346546 -3.567698 0.497258 0
M  V30 25 C -4.047097 -4.797911 0.782896 0
M  V30 26 C -3.527405 -5.840866 -0.183028 0
M  V30 27 O -2.346394 -5.418386 -0.801651 0
M  V30 28 C -1.447217 -4.951499 0.141473 0
M  V30 29 C -1.965901 -3.732011 0.888282 0
M  V30 30 C -3.205465 -1.240249 -0.247375 0
M  V30 31 N -1.646906 1.088338 -0.555558 0
M  V30 32 C -0.842562 2.163957 -0.672255 0
M  V30 33 C 1.598196 0.105303 -0.421584 0
M  V30 34 C 2.390449 -0.920007 0.089806 0
M  V30 35 C 2.878278 -2.919441 2.617559 0
M  V30 36 C 3.246131 -2.243388 3.923167 0
M  V30 37 C 4.415386 -1.626991 3.200221 0
M  V30 38 H 4.082104 -3.246224 0.409316 0
M  V30 39 H 5.384179 -3.017540 1.434369 0
M  V30 40 H 2.960356 0.472941 3.071228 0
M  V30 41 H 1.581930 2.242255 2.163620 0
M  V30 42 H 1.959529 6.126518 -1.153001 0
M  V30 43 H 4.456792 6.451832 -0.499497 0
M  V30 44 H 5.267440 4.174271 0.516982 0
M  V30 45 H -2.935924 4.327304 -2.041113 0
M  V30 46 H -4.377939 2.379822 -1.825364 0
M  V30 47 H -5.571401 0.754687 -1.642419 0
M  V30 48 H -6.857637 -1.247584 -1.361016 0
M  V30 49 H -5.898858 -3.221843 -0.405066 0
M  V30 50 H -3.805731 -5.181791 1.819383 0
M  V30 51 H -5.145381 -4.689291 0.728428 0
M  V30 52 H -3.292892 -6.794481 0.335472 0
M  V30 53 H -4.307945 -5.992304 -0.944465 0
M  V30 54 H -1.184308 -5.791534 0.789063 0
M  V30 55 H -0.528735 -4.637261 -0.394221 0
M  V30 56 H -1.930245 -4.028798 1.977844 0
M  V30 57 H -1.330455 -2.856775 0.748083 0
M  V30 58 H -2.167465 -1.170460 0.046820 0
M  V30 59 H 1.228166 -0.047728 -1.435985 0
M  V30 60 H 2.599690 -1.796354 -0.518263 0
M  V30 61 H 3.234717 -3.962103 2.526548 0
M  V30 62 H 1.793199 -2.836209 2.422748 0
M  V30 63 H 2.487427 -1.532742 4.301069 0
M  V30 64 H 3.535108 -2.966507 4.706886 0
M  V30 65 H 5.316294 -2.278325 3.345669 0
M  V30 66 H 4.665085 -0.592494 3.471573 0
M  V30 END ATOM
M  V30 BEGIN BOND
M  V30 1 1 1 2
M  V30 2 1 2 3
M  V30 3 2 3 4
M  V30 4 1 4 5
M  V30 5 2 5 6
M  V30 6 1 6 7
M  V30 7 1 7 8
M  V30 8 1 8 9
M  V30 9 1 9 10
M  V30 10 2 10 11
M  V30 11 1 11 12
M  V30 12 1 12 13
M  V30 13 2 8 14
M  V30 14 1 14 15
M  V30 15 2 15 16
M  V30 16 1 16 17
M  V30 17 2 17 18
M  V30 18 1 18 19
M  V30 19 2 19 20
M  V30 20 1 20 21
M  V30 21 2 21 22
M  V30 22 1 22 23
M  V30 23 1 23 24
M  V30 24 1 24 25
M  V30 25 1 25 26
M  V30 26 1 26 27
M  V30 27 1 27 28
M  V30 28 1 28 29
M  V30 29 2 23 30
M  V30 30 1 18 31
M  V30 31 2 31 32
M  V30 32 1 6 33
M  V30 33 2 33 34
M  V30 34 1 2 35
M  V30 35 1 35 36
M  V30 36 1 36 37
M  V30 37 1 37 2
M  V30 38 1 34 3
M  V30 39 1 32 7
M  V30 40 2 13 9
M  V30 41 1 32 15
M  V30 42 1 30 19
M  V30 43 1 29 24
M  V30 44 1 1 38
M  V30 45 1 1 39
M  V30 46 1 4 40
M  V30 47 1 5 41
M  V30 48 1 10 42
M  V30 49 1 11 43
M  V30 50 1 12 44
M  V30 51 1 16 45
M  V30 52 1 17 46
M  V30 53 1 20 47
M  V30 54 1 21 48
M  V30 55 1 22 49
M  V30 56 1 25 50
M  V30 57 1 25 51
M  V30 58 1 26 52
M  V30 59 1 26 53
M  V30 60 1 28 54
M  V30 61 1 28 55
M  V30 62 1 29 56
M  V30 63 1 29 57
M  V30 64 1 30 58
M  V30 65 1 33 59
M  V30 66 1 34 60
M  V30 67 1 35 61
M  V30 68 1 35 62
M  V30 69 1 36 63
M  V30 70 1 36 64
M  V30 71 1 37 65
M  V30 72 1 37 66
M  V30 END BOND
M  V30 END CTAB
M  END
>  <Dataset>  (654) 
ChEMBL_Kinases

>  <Ligand_Instance>  (654) 
nan

>  <PDB_ID>  (654) 
nan

>  <Standardized_SMILES>  (654) 
NC1(c2ccc(-n3c(-c4cc[nH]n4)nc4ccc(-c5cccc(N6CCOCC6)c5)nc43)cc2)CCC1

>  <Name>  (654) 
nan

>  <Pocket>  (654) 
nan

>  <ATP_Site>  (654) 
nan

>  <Peripheral>  (654) 
nan

>  <Num_H_Atoms_ProtBoundConf>  (654) 
nan

>  <Num_Resolved_Atoms>  (654) 
nan

>  <Num_Not_Resolved_Atoms>  (654) 
nan

$$$$
CHEMBL3649677
     RDKit          3D

  0  0  0  0  0  0  0  0  0  0999 V3000
M  V30 BEGIN CTAB
M  V30 COUNTS 68 74 0 0 0
M  V30 BEGIN ATOM
M  V30 1 N 4.680612 0.901208 2.601887 0
M  V30 2 C 3.996522 -0.004975 1.672962 0
M  V30 3 C 2.686405 0.463425 1.216752 0
M  V30 4 C 2.175355 0.490494 -0.047933 0
M  V30 5 C 0.917817 0.967342 -0.298090 0
M  V30 6 C 0.092555 1.449430 0.717531 0
M  V30 7 N -1.181967 1.908740 0.292925 0
M  V30 8 C -1.488287 3.219664 0.245403 0
M  V30 9 C -0.607351 4.340547 0.604782 0
M  V30 10 C -1.097860 5.625577 0.491773 0
M  V30 11 C -0.295697 6.694476 0.821325 0
M  V30 12 C 0.999264 6.486630 1.265037 0
M  V30 13 C 1.466418 5.189992 1.369333 0
M  V30 14 N 0.653140 4.152849 1.037362 0
M  V30 15 N -2.775573 3.315045 -0.200571 0
M  V30 16 C -3.238886 2.071422 -0.419226 0
M  V30 17 C -4.452864 1.594274 -0.865390 0
M  V30 18 C -4.571595 0.210579 -0.969721 0
M  V30 19 C -3.564972 -0.678396 -0.658046 0
M  V30 20 C -3.737316 -2.121007 -0.783767 0
M  V30 21 C -4.880993 -2.761206 -1.212901 0
M  V30 22 C -4.992721 -4.111659 -1.313444 0
M  V30 23 C -3.923820 -4.907918 -0.975856 0
M  V30 24 C -2.764082 -4.303291 -0.542731 0
M  V30 25 N -1.638146 -5.067306 -0.184297 0
M  V30 26 C -1.495627 -6.508048 -0.209279 0
M  V30 27 C -0.275563 -6.822065 -1.061202 0
M  V30 28 O 0.894910 -6.333366 -0.489333 0
M  V30 29 C 0.644626 -5.473937 0.569755 0
M  V30 30 C -0.411320 -4.457446 0.282442 0
M  V30 31 C -2.682668 -2.942873 -0.452294 0
M  V30 32 N -2.404413 -0.150261 -0.228219 0
M  V30 33 C -2.249235 1.160554 -0.114445 0
M  V30 34 C 0.603151 1.425093 2.000040 0
M  V30 35 C 1.872770 0.942669 2.245788 0
M  V30 36 C 4.954809 -0.537637 0.674327 0
M  V30 37 C 4.688541 -1.984738 1.109341 0
M  V30 38 C 3.964032 -1.391802 2.304872 0
M  V30 39 H 4.216792 0.966244 3.520217 0
M  V30 40 H 4.874942 1.822568 2.145251 0
M  V30 41 H 2.830506 0.114016 -0.810730 0
M  V30 42 H 0.616803 0.940439 -1.341310 0
M  V30 43 H -2.091577 5.792637 0.151622 0
M  V30 44 H -0.629815 7.737545 0.752043 0
M  V30 45 H 1.617008 7.321557 1.519406 0
M  V30 46 H 2.473454 4.959669 1.711200 0
M  V30 47 H -5.260066 2.267695 -1.117145 0
M  V30 48 H -5.534630 -0.131257 -1.322047 0
M  V30 49 H -5.722206 -2.149589 -1.479447 0
M  V30 50 H -5.925339 -4.538322 -1.659062 0
M  V30 51 H -4.045503 -5.959229 -1.066223 0
M  V30 52 H -1.315610 -6.856081 0.828010 0
M  V30 53 H -2.342903 -7.006035 -0.693411 0
M  V30 54 H -0.211354 -7.928530 -1.137397 0
M  V30 55 H -0.421342 -6.374291 -2.060728 0
M  V30 56 H 0.402127 -5.991065 1.507583 0
M  V30 57 H 1.603908 -4.913054 0.762620 0
M  V30 58 H -0.068255 -3.608917 -0.345135 0
M  V30 59 H -0.673940 -3.990481 1.276722 0
M  V30 60 H -1.760514 -2.482517 -0.108828 0
M  V30 61 H -0.067699 1.806969 2.755357 0
M  V30 62 H 2.144925 0.981806 3.292681 0
M  V30 63 H 4.743045 -0.456191 -0.390302 0
M  V30 64 H 6.027955 -0.231685 0.836600 0
M  V30 65 H 3.953082 -2.517065 0.476504 0
M  V30 66 H 5.626838 -2.507908 1.324974 0
M  V30 67 H 2.960029 -1.777947 2.510341 0
M  V30 68 H 4.602140 -1.523924 3.198508 0
M  V30 END ATOM
M  V30 BEGIN BOND
M  V30 1 1 1 2
M  V30 2 1 2 3
M  V30 3 2 3 4
M  V30 4 1 4 5
M  V30 5 2 5 6
M  V30 6 1 6 7
M  V30 7 1 7 8
M  V30 8 1 8 9
M  V30 9 2 9 10
M  V30 10 1 10 11
M  V30 11 2 11 12
M  V30 12 1 12 13
M  V30 13 2 13 14
M  V30 14 2 8 15
M  V30 15 1 15 16
M  V30 16 2 16 17
M  V30 17 1 17 18
M  V30 18 2 18 19
M  V30 19 1 19 20
M  V30 20 2 20 21
M  V30 21 1 21 22
M  V30 22 2 22 23
M  V30 23 1 23 24
M  V30 24 1 24 25
M  V30 25 1 25 26
M  V30 26 1 26 27
M  V30 27 1 27 28
M  V30 28 1 28 29
M  V30 29 1 29 30
M  V30 30 2 24 31
M  V30 31 1 19 32
M  V30 32 2 32 33
M  V30 33 1 6 34
M  V30 34 2 34 35
M  V30 35 1 2 36
M  V30 36 1 36 37
M  V30 37 1 37 38
M  V30 38 1 38 2
M  V30 39 1 35 3
M  V30 40 1 33 7
M  V30 41 1 14 9
M  V30 42 1 33 16
M  V30 43 1 31 20
M  V30 44 1 30 25
M  V30 45 1 1 39
M  V30 46 1 1 40
M  V30 47 1 4 41
M  V30 48 1 5 42
M  V30 49 1 10 43
M  V30 50 1 11 44
M  V30 51 1 12 45
M  V30 52 1 13 46
M  V30 53 1 17 47
M  V30 54 1 18 48
M  V30 55 1 21 49
M  V30 56 1 22 50
M  V30 57 1 23 51
M  V30 58 1 26 52
M  V30 59 1 26 53
M  V30 60 1 27 54
M  V30 61 1 27 55
M  V30 62 1 29 56
M  V30 63 1 29 57
M  V30 64 1 30 58
M  V30 65 1 30 59
M  V30 66 1 31 60
M  V30 67 1 34 61
M  V30 68 1 35 62
M  V30 69 1 36 63
M  V30 70 1 36 64
M  V30 71 1 37 65
M  V30 72 1 37 66
M  V30 73 1 38 67
M  V30 74 1 38 68
M  V30 END BOND
M  V30 END CTAB
M  END
>  <Dataset>  (655) 
ChEMBL_Kinases

>  <Ligand_Instance>  (655) 
nan

>  <PDB_ID>  (655) 
nan

>  <Standardized_SMILES>  (655) 
NC1(c2ccc(-n3c(-c4ccccn4)nc4ccc(-c5cccc(N6CCOCC6)c5)nc43)cc2)CCC1

>  <Name>  (655) 
nan

>  <Pocket>  (655) 
nan

>  <ATP_Site>  (655) 
nan

>  <Peripheral>  (655) 
nan

>  <Num_H_Atoms_ProtBoundConf>  (655) 
nan

>  <Num_Resolved_Atoms>  (655) 
nan

>  <Num_Not_Resolved_Atoms>  (655) 
nan

$$$$
CHEMBL3649676
     RDKit          3D

  0  0  0  0  0  0  0  0  0  0999 V3000
M  V30 BEGIN CTAB
M  V30 COUNTS 58 63 0 0 0
M  V30 BEGIN ATOM
M  V30 1 N 4.771013 -1.009027 3.216404 0
M  V30 2 C 4.100989 -2.188163 2.812855 0
M  V30 3 C 4.752515 -3.338857 3.168426 0
M  V30 4 C 4.214825 -4.562904 2.840478 0
M  V30 5 C 3.023061 -4.514619 2.157430 0
M  V30 6 C 2.390312 -3.344121 1.812945 0
M  V30 7 C 2.908631 -2.113873 2.129870 0
M  V30 8 C 2.367197 -0.820911 1.839689 0
M  V30 9 N 2.927061 0.330882 2.179223 0
M  V30 10 C 2.212416 1.373116 1.785554 0
M  V30 11 C 2.411110 2.728130 1.921029 0
M  V30 12 C 1.431606 3.562424 1.372070 0
M  V30 13 C 0.321177 3.056614 0.726761 0
M  V30 14 C -0.695204 3.934959 0.157313 0
M  V30 15 C -0.659231 5.308844 0.199702 0
M  V30 16 C -1.637983 6.108352 -0.349417 0
M  V30 17 C -2.721622 5.548151 -0.980248 0
M  V30 18 C -2.784295 4.173713 -1.037965 0
M  V30 19 C -1.788973 3.385292 -0.479164 0
M  V30 20 N 0.189720 1.719688 0.630157 0
M  V30 21 C 1.101526 0.867645 1.139993 0
M  V30 22 N 1.245297 -0.468543 1.201375 0
M  V30 23 C 0.257135 -1.301387 0.621074 0
M  V30 24 C -0.851754 -1.738468 1.364110 0
M  V30 25 C -1.800510 -2.538314 0.757447 0
M  V30 26 C -1.713481 -2.935313 -0.559222 0
M  V30 27 C -2.591415 -3.759708 -1.370679 0
M  V30 28 N -1.929561 -4.904333 -2.018812 0
M  V30 29 C -3.824372 -4.270766 -0.671760 0
M  V30 30 C -4.616739 -4.045810 -1.945087 0
M  V30 31 C -3.488017 -3.109065 -2.375158 0
M  V30 32 C -0.608266 -2.495723 -1.288263 0
M  V30 33 C 0.383398 -1.684119 -0.725330 0
M  V30 34 H 5.253742 -0.156386 3.527769 0
M  V30 35 H 5.141455 -0.519656 2.361885 0
M  V30 36 H 5.686982 -3.354043 3.704380 0
M  V30 37 H 4.642408 -5.505464 3.070824 0
M  V30 38 H 2.561175 -5.443633 1.877701 0
M  V30 39 H 1.465236 -3.396453 1.281342 0
M  V30 40 H 3.280021 3.144670 2.426307 0
M  V30 41 H 1.601606 4.607072 1.486183 0
M  V30 42 H 0.163747 5.791037 0.679694 0
M  V30 43 H -1.542260 7.187590 -0.277420 0
M  V30 44 H -3.500257 6.157371 -1.417538 0
M  V30 45 H -3.631407 3.744703 -1.530963 0
M  V30 46 H -1.870850 2.313827 -0.543094 0
M  V30 47 H -0.972890 -1.462424 2.389958 0
M  V30 48 H -2.680791 -2.918087 1.253861 0
M  V30 49 H -1.678077 -5.616605 -1.303377 0
M  V30 50 H -1.071927 -4.616466 -2.537384 0
M  V30 51 H -3.809722 -5.342638 -0.393491 0
M  V30 52 H -4.216897 -3.672790 0.166088 0
M  V30 53 H -5.579286 -3.568365 -1.736277 0
M  V30 54 H -4.721216 -4.963016 -2.568271 0
M  V30 55 H -3.695917 -2.041639 -2.261976 0
M  V30 56 H -3.240411 -3.327360 -3.437096 0
M  V30 57 H -0.383162 -2.709892 -2.323454 0
M  V30 58 H 1.245744 -1.322992 -1.241187 0
M  V30 END ATOM
M  V30 BEGIN BOND
M  V30 1 1 1 2
M  V30 2 2 2 3
M  V30 3 1 3 4
M  V30 4 2 4 5
M  V30 5 1 5 6
M  V30 6 2 6 7
M  V30 7 1 7 8
M  V30 8 2 8 9
M  V30 9 1 9 10
M  V30 10 2 10 11
M  V30 11 1 11 12
M  V30 12 2 12 13
M  V30 13 1 13 14
M  V30 14 2 14 15
M  V30 15 1 15 16
M  V30 16 2 16 17
M  V30 17 1 17 18
M  V30 18 2 18 19
M  V30 19 1 13 20
M  V30 20 2 20 21
M  V30 21 1 21 22
M  V30 22 1 22 23
M  V30 23 2 23 24
M  V30 24 1 24 25
M  V30 25 2 25 26
M  V30 26 1 26 27
M  V30 27 1 27 28
M  V30 28 1 27 29
M  V30 29 1 29 30
M  V30 30 1 30 31
M  V30 31 1 26 32
M  V30 32 2 32 33
M  V30 33 1 7 2
M  V30 34 1 22 8
M  V30 35 1 33 23
M  V30 36 1 21 10
M  V30 37 1 31 27
M  V30 38 1 19 14
M  V30 39 1 1 34
M  V30 40 1 1 35
M  V30 41 1 3 36
M  V30 42 1 4 37
M  V30 43 1 5 38
M  V30 44 1 6 39
M  V30 45 1 11 40
M  V30 46 1 12 41
M  V30 47 1 15 42
M  V30 48 1 16 43
M  V30 49 1 17 44
M  V30 50 1 18 45
M  V30 51 1 19 46
M  V30 52 1 24 47
M  V30 53 1 25 48
M  V30 54 1 28 49
M  V30 55 1 28 50
M  V30 56 1 29 51
M  V30 57 1 29 52
M  V30 58 1 30 53
M  V30 59 1 30 54
M  V30 60 1 31 55
M  V30 61 1 31 56
M  V30 62 1 32 57
M  V30 63 1 33 58
M  V30 END BOND
M  V30 END CTAB
M  END
>  <Dataset>  (656) 
ChEMBL_Kinases

>  <Ligand_Instance>  (656) 
nan

>  <PDB_ID>  (656) 
nan

>  <Standardized_SMILES>  (656) 
Nc1ccccc1-c1nc2ccc(-c3ccccc3)nc2n1-c1ccc(C2(N)CCC2)cc1

>  <Name>  (656) 
nan

>  <Pocket>  (656) 
nan

>  <ATP_Site>  (656) 
nan

>  <Peripheral>  (656) 
nan

>  <Num_H_Atoms_ProtBoundConf>  (656) 
nan

>  <Num_Resolved_Atoms>  (656) 
nan

>  <Num_Not_Resolved_Atoms>  (656) 
nan

$$$$
CHEMBL3649675
     RDKit          3D

  0  0  0  0  0  0  0  0  0  0999 V3000
M  V30 BEGIN CTAB
M  V30 COUNTS 55 60 0 0 0
M  V30 BEGIN ATOM
M  V30 1 N 1.400045 -1.274946 -4.275580 0
M  V30 2 C 1.322905 -2.111198 -3.097079 0
M  V30 3 C 1.125359 -1.409002 -1.827578 0
M  V30 4 C 1.751724 -1.709253 -0.636681 0
M  V30 5 C 1.473592 -0.963839 0.492017 0
M  V30 6 C 0.551246 0.086186 0.384528 0
M  V30 7 N 0.290723 0.808574 1.560875 0
M  V30 8 C 0.891799 1.899805 2.049876 0
M  V30 9 C 1.979890 2.654483 1.517083 0
M  V30 10 C 2.699761 2.465022 0.363753 0
M  V30 11 C 3.741918 3.233519 -0.093568 0
M  V30 12 C 4.127703 4.310932 0.659053 0
M  V30 13 N 3.466938 4.558286 1.803080 0
M  V30 14 C 2.454215 3.776367 2.206641 0
M  V30 15 F 1.874246 4.150860 3.393769 0
M  V30 16 N 0.262181 2.178301 3.188832 0
M  V30 17 C -0.697980 1.299891 3.412087 0
M  V30 18 C -1.607368 1.184353 4.455552 0
M  V30 19 C -2.503010 0.130054 4.390812 0
M  V30 20 C -2.514112 -0.776630 3.352047 0
M  V30 21 C -3.465021 -1.881056 3.300658 0
M  V30 22 C -4.427628 -2.131439 4.256284 0
M  V30 23 C -5.315179 -3.173334 4.195519 0
M  V30 24 C -5.240761 -4.027779 3.106875 0
M  V30 25 C -4.305594 -3.840206 2.113846 0
M  V30 26 C -3.435692 -2.758585 2.243595 0
M  V30 27 N -1.611958 -0.619091 2.366760 0
M  V30 28 C -0.719704 0.385717 2.378377 0
M  V30 29 C -0.102108 0.415857 -0.813083 0
M  V30 30 C 0.206702 -0.362261 -1.932217 0
M  V30 31 C 0.401347 -3.282483 -3.352219 0
M  V30 32 C 1.574267 -3.897978 -4.128071 0
M  V30 33 C 2.464659 -3.112983 -3.154148 0
M  V30 34 H 1.813626 -0.343835 -4.122147 0
M  V30 35 H 0.482391 -1.159276 -4.749778 0
M  V30 36 H 2.451616 -2.533395 -0.629368 0
M  V30 37 H 1.946378 -1.175662 1.430887 0
M  V30 38 H 2.424609 1.626197 -0.254841 0
M  V30 39 H 4.244922 3.006352 -1.009587 0
M  V30 40 H 4.931516 4.982185 0.397609 0
M  V30 41 H -1.621618 1.890321 5.294023 0
M  V30 42 H -3.190518 0.063855 5.204278 0
M  V30 43 H -4.500199 -1.485622 5.100177 0
M  V30 44 H -6.063834 -3.331695 4.980973 0
M  V30 45 H -5.946131 -4.851697 3.063330 0
M  V30 46 H -4.242213 -4.499980 1.265505 0
M  V30 47 H -2.710843 -2.644915 1.437067 0
M  V30 48 H -0.800593 1.232297 -0.837209 0
M  V30 49 H -0.320747 -0.067049 -2.820396 0
M  V30 50 H -0.435142 -2.951897 -3.991462 0
M  V30 51 H 0.137180 -3.909011 -2.500633 0
M  V30 52 H 1.645599 -5.002079 -4.009437 0
M  V30 53 H 1.587435 -3.519257 -5.157269 0
M  V30 54 H 2.596812 -3.749045 -2.262087 0
M  V30 55 H 3.399735 -2.723866 -3.604085 0
M  V30 END ATOM
M  V30 BEGIN BOND
M  V30 1 1 1 2
M  V30 2 1 2 3
M  V30 3 2 3 4
M  V30 4 1 4 5
M  V30 5 2 5 6
M  V30 6 1 6 7
M  V30 7 1 7 8
M  V30 8 1 8 9
M  V30 9 2 9 10
M  V30 10 1 10 11
M  V30 11 2 11 12
M  V30 12 1 12 13
M  V30 13 2 13 14
M  V30 14 1 14 15
M  V30 15 2 8 16
M  V30 16 1 16 17
M  V30 17 2 17 18
M  V30 18 1 18 19
M  V30 19 2 19 20
M  V30 20 1 20 21
M  V30 21 2 21 22
M  V30 22 1 22 23
M  V30 23 2 23 24
M  V30 24 1 24 25
M  V30 25 2 25 26
M  V30 26 1 20 27
M  V30 27 2 27 28
M  V30 28 1 6 29
M  V30 29 2 29 30
M  V30 30 1 2 31
M  V30 31 1 31 32
M  V30 32 1 32 33
M  V30 33 1 33 2
M  V30 34 1 30 3
M  V30 35 1 28 7
M  V30 36 1 14 9
M  V30 37 1 28 17
M  V30 38 1 26 21
M  V30 39 1 1 34
M  V30 40 1 1 35
M  V30 41 1 4 36
M  V30 42 1 5 37
M  V30 43 1 10 38
M  V30 44 1 11 39
M  V30 45 1 12 40
M  V30 46 1 18 41
M  V30 47 1 19 42
M  V30 48 1 22 43
M  V30 49 1 23 44
M  V30 50 1 24 45
M  V30 51 1 25 46
M  V30 52 1 26 47
M  V30 53 1 29 48
M  V30 54 1 30 49
M  V30 55 1 31 50
M  V30 56 1 31 51
M  V30 57 1 32 52
M  V30 58 1 32 53
M  V30 59 1 33 54
M  V30 60 1 33 55
M  V30 END BOND
M  V30 END CTAB
M  END
>  <Dataset>  (657) 
ChEMBL_Kinases

>  <Ligand_Instance>  (657) 
nan

>  <PDB_ID>  (657) 
nan

>  <Standardized_SMILES>  (657) 
NC1(c2ccc(-n3c(-c4cccnc4F)nc4ccc(-c5ccccc5)nc43)cc2)CCC1

>  <Name>  (657) 
nan

>  <Pocket>  (657) 
nan

>  <ATP_Site>  (657) 
nan

>  <Peripheral>  (657) 
nan

>  <Num_H_Atoms_ProtBoundConf>  (657) 
nan

>  <Num_Resolved_Atoms>  (657) 
nan

>  <Num_Not_Resolved_Atoms>  (657) 
nan

$$$$
CHEMBL3652579
     RDKit          3D

  0  0  0  0  0  0  0  0  0  0999 V3000
M  V30 BEGIN CTAB
M  V30 COUNTS 59 63 0 0 0
M  V30 BEGIN ATOM
M  V30 1 C 2.545722 -1.806367 5.595458 0
M  V30 2 N 3.420858 -1.168733 4.602836 0
M  V30 3 C 3.010450 -0.352018 3.607630 0
M  V30 4 C 4.124046 0.060319 2.866232 0
M  V30 5 C 3.985138 0.955137 1.707437 0
M  V30 6 C 5.012639 1.847730 1.400499 0
M  V30 7 N 4.855511 2.636631 0.340068 0
M  V30 8 C 3.756206 2.611498 -0.444029 0
M  V30 9 N 3.331349 3.248112 -1.528673 0
M  V30 10 C 2.134984 2.816654 -1.902888 0
M  V30 11 C 1.677539 1.814660 -1.038540 0
M  V30 12 C 0.412918 1.188116 -1.240726 0
M  V30 13 C -0.237099 0.211585 -0.562063 0
M  V30 14 C -1.460075 -0.362950 -0.812117 0
M  V30 15 N -1.974823 -1.386363 0.038650 0
M  V30 16 C -2.932965 -1.034781 1.041312 0
M  V30 17 C -4.261128 -0.592201 0.441513 0
M  V30 18 O -5.089407 -0.291608 1.494205 0
M  V30 19 C -4.871175 -1.705227 -0.383844 0
M  V30 20 O -6.106175 -1.268681 -0.837767 0
M  V30 21 C -1.434788 -2.692575 -0.257793 0
M  V30 22 C -0.484385 -2.948690 -1.254906 0
M  V30 23 C -0.054788 -4.244395 -1.442771 0
M  V30 24 C -0.506595 -5.313105 -0.702840 0
M  V30 25 C -1.446935 -5.074487 0.286942 0
M  V30 26 C -1.924422 -6.199336 1.066290 0
M  V30 27 N -2.320633 -7.082931 1.687099 0
M  V30 28 C -1.881844 -3.768952 0.478854 0
M  V30 29 N -2.103243 0.135978 -1.909417 0
M  V30 30 C -1.522363 1.107323 -2.634220 0
M  V30 31 N -2.186118 1.628909 -3.776236 0
M  V30 32 N -0.326529 1.582102 -2.286575 0
M  V30 33 C 2.729505 1.740448 -0.161932 0
M  V30 34 C 2.860904 0.916025 0.921540 0
M  V30 35 C 5.194604 -0.557020 3.481184 0
M  V30 36 N 4.734138 -1.288326 4.522123 0
M  V30 37 H 1.520761 -1.422973 5.461692 0
M  V30 38 H 2.655339 -2.896890 5.452717 0
M  V30 39 H 2.998155 -1.567373 6.587246 0
M  V30 40 H 1.979434 -0.068271 3.426200 0
M  V30 41 H 5.910193 1.925591 1.975317 0
M  V30 42 H 3.941329 3.991369 -1.971242 0
M  V30 43 H 1.686065 3.278090 -2.795827 0
M  V30 44 H 0.243464 -0.195053 0.307104 0
M  V30 45 H -3.102823 -1.839553 1.759896 0
M  V30 46 H -2.577696 -0.145173 1.621671 0
M  V30 47 H -4.095025 0.295672 -0.183585 0
M  V30 48 H -6.026374 -0.573840 1.360877 0
M  V30 49 H -4.228794 -1.953545 -1.265176 0
M  V30 50 H -5.014586 -2.619484 0.212895 0
M  V30 51 H -6.803436 -1.989606 -0.712229 0
M  V30 52 H -0.154949 -2.082599 -1.813583 0
M  V30 53 H 0.688736 -4.316368 -2.250082 0
M  V30 54 H -0.128148 -6.286649 -0.907059 0
M  V30 55 H -2.610765 -3.722248 1.274913 0
M  V30 56 H -2.882592 2.333119 -3.427585 0
M  V30 57 H -2.318522 1.651370 -4.805107 0
M  V30 58 H 2.126413 0.226248 1.204261 0
M  V30 59 H 6.201666 -0.399251 3.093701 0
M  V30 END ATOM
M  V30 BEGIN BOND
M  V30 1 1 1 2
M  V30 2 1 2 3
M  V30 3 2 3 4
M  V30 4 1 4 5
M  V30 5 2 5 6
M  V30 6 1 6 7
M  V30 7 2 7 8
M  V30 8 1 8 9
M  V30 9 1 9 10
M  V30 10 2 10 11
M  V30 11 1 11 12
M  V30 12 2 12 13
M  V30 13 1 13 14
M  V30 14 1 14 15
M  V30 15 1 15 16
M  V30 16 1 16 17
M  V30 17 1 17 18
M  V30 18 1 17 19
M  V30 19 1 19 20
M  V30 20 1 15 21
M  V30 21 2 21 22
M  V30 22 1 22 23
M  V30 23 2 23 24
M  V30 24 1 24 25
M  V30 25 1 25 26
M  V30 26 3 26 27
M  V30 27 2 25 28
M  V30 28 2 14 29
M  V30 29 1 29 30
M  V30 30 1 30 31
M  V30 31 2 30 32
M  V30 32 1 11 33
M  V30 33 2 33 34
M  V30 34 1 4 35
M  V30 35 2 35 36
M  V30 36 1 36 2
M  V30 37 1 34 5
M  V30 38 1 33 8
M  V30 39 1 32 12
M  V30 40 1 28 21
M  V30 41 1 1 37
M  V30 42 1 1 38
M  V30 43 1 1 39
M  V30 44 1 3 40
M  V30 45 1 6 41
M  V30 46 1 9 42
M  V30 47 1 10 43
M  V30 48 1 13 44
M  V30 49 1 16 45
M  V30 50 1 16 46
M  V30 51 1 17 47
M  V30 52 1 18 48
M  V30 53 1 19 49
M  V30 54 1 19 50
M  V30 55 1 20 51
M  V30 56 1 22 52
M  V30 57 1 23 53
M  V30 58 1 24 54
M  V30 59 1 28 55
M  V30 60 1 31 56
M  V30 61 1 31 57
M  V30 62 1 34 58
M  V30 63 1 35 59
M  V30 END BOND
M  V30 END CTAB
M  END
>  <Dataset>  (658) 
ChEMBL_Kinases

>  <Ligand_Instance>  (658) 
nan

>  <PDB_ID>  (658) 
nan

>  <Standardized_SMILES>  (658) 
Cn1cc(-c2cnc3[nH]cc(-c4cc(N(CC(O)CO)c5cccc(C#N)c5)nc(N)n4)c3c2)cn1

>  <Name>  (658) 
nan

>  <Pocket>  (658) 
nan

>  <ATP_Site>  (658) 
nan

>  <Peripheral>  (658) 
nan

>  <Num_H_Atoms_ProtBoundConf>  (658) 
nan

>  <Num_Resolved_Atoms>  (658) 
nan

>  <Num_Not_Resolved_Atoms>  (658) 
nan

$$$$
CHEMBL3649500
     RDKit          3D

  0  0  0  0  0  0  0  0  0  0999 V3000
M  V30 BEGIN CTAB
M  V30 COUNTS 43 46 0 0 0
M  V30 BEGIN ATOM
M  V30 1 C 1.249722 1.157104 -3.371296 0
M  V30 2 C 2.331519 0.636748 -2.505682 0
M  V30 3 C 3.444323 0.206490 -3.239206 0
M  V30 4 C 4.545698 -0.313540 -2.589930 0
M  V30 5 C 4.474408 -0.376956 -1.216332 0
M  V30 6 C 5.632088 -0.922950 -0.520388 0
M  V30 7 N 5.682088 -1.041496 0.886957 0
M  V30 8 O 6.687014 -1.339802 -1.063180 0
M  V30 9 C 3.403201 0.033534 -0.457985 0
M  V30 10 C 2.307587 0.552691 -1.129455 0
M  V30 11 C 1.119037 1.035763 -0.436942 0
M  V30 12 N 0.662317 2.293649 -0.568276 0
M  V30 13 N -0.412940 2.743869 0.049488 0
M  V30 14 C -1.158306 1.974478 0.876982 0
M  V30 15 C -0.723892 0.672450 1.040075 0
M  V30 16 N -1.472484 -0.084080 1.859347 0
M  V30 17 C -1.186225 -1.371317 2.118766 0
M  V30 18 O -1.816016 -2.304488 2.915930 0
M  V30 19 C -2.940378 -2.100197 3.658339 0
M  V30 20 C -3.711987 -0.981445 3.800300 0
M  V30 21 C -4.835583 -0.892588 4.585166 0
M  V30 22 C -5.225162 -2.031786 5.297054 0
M  V30 23 F -6.334520 -1.890311 6.052338 0
M  V30 24 C -4.469824 -3.203371 5.187138 0
M  V30 25 C -3.340472 -3.230150 4.374539 0
M  V30 26 C -0.046565 -1.855346 1.465886 0
M  V30 27 C 0.741307 -1.097109 0.617617 0
M  V30 28 C 0.402983 0.216880 0.386707 0
M  V30 29 H 0.410161 1.585923 -2.803002 0
M  V30 30 H 0.901751 0.316318 -4.039550 0
M  V30 31 H 1.696524 1.923497 -4.070139 0
M  V30 32 H 3.518082 0.248316 -4.324862 0
M  V30 33 H 5.456217 -0.673853 -3.046621 0
M  V30 34 H 5.654135 -1.150392 1.905021 0
M  V30 35 H 6.519117 -0.791952 1.474492 0
M  V30 36 H 3.406887 -0.038455 0.619418 0
M  V30 37 H -2.011955 2.437600 1.329163 0
M  V30 38 H -3.389933 -0.129018 3.244112 0
M  V30 39 H -5.358890 0.043591 4.613821 0
M  V30 40 H -4.848920 -4.017209 5.769301 0
M  V30 41 H -2.879822 -4.225139 4.412364 0
M  V30 42 H 0.296656 -2.891712 1.592451 0
M  V30 43 H 1.596022 -1.503617 0.138865 0
M  V30 END ATOM
M  V30 BEGIN BOND
M  V30 1 1 1 2
M  V30 2 2 2 3
M  V30 3 1 3 4
M  V30 4 2 4 5
M  V30 5 1 5 6
M  V30 6 1 6 7
M  V30 7 2 6 8
M  V30 8 1 5 9
M  V30 9 2 9 10
M  V30 10 1 10 11
M  V30 11 2 11 12
M  V30 12 1 12 13
M  V30 13 2 13 14
M  V30 14 1 14 15
M  V30 15 2 15 16
M  V30 16 1 16 17
M  V30 17 1 17 18
M  V30 18 1 18 19
M  V30 19 2 19 20
M  V30 20 1 20 21
M  V30 21 2 21 22
M  V30 22 1 22 23
M  V30 23 1 22 24
M  V30 24 2 24 25
M  V30 25 2 17 26
M  V30 26 1 26 27
M  V30 27 2 27 28
M  V30 28 1 10 2
M  V30 29 1 28 11
M  V30 30 1 28 15
M  V30 31 1 25 19
M  V30 32 1 1 29
M  V30 33 1 1 30
M  V30 34 1 1 31
M  V30 35 1 3 32
M  V30 36 1 4 33
M  V30 37 1 7 34
M  V30 38 1 7 35
M  V30 39 1 9 36
M  V30 40 1 14 37
M  V30 41 1 20 38
M  V30 42 1 21 39
M  V30 43 1 24 40
M  V30 44 1 25 41
M  V30 45 1 26 42
M  V30 46 1 27 43
M  V30 END BOND
M  V30 END CTAB
M  END
>  <Dataset>  (659) 
ChEMBL_Kinases

>  <Ligand_Instance>  (659) 
nan

>  <PDB_ID>  (659) 
nan

>  <Standardized_SMILES>  (659) 
Cc1ccc(C(N)=O)cc1-c1nncc2nc(Oc3ccc(F)cc3)ccc12

>  <Name>  (659) 
nan

>  <Pocket>  (659) 
nan

>  <ATP_Site>  (659) 
nan

>  <Peripheral>  (659) 
nan

>  <Num_H_Atoms_ProtBoundConf>  (659) 
nan

>  <Num_Resolved_Atoms>  (659) 
nan

>  <Num_Not_Resolved_Atoms>  (659) 
nan

$$$$
CHEMBL3649501
     RDKit          3D

  0  0  0  0  0  0  0  0  0  0999 V3000
M  V30 BEGIN CTAB
M  V30 COUNTS 38 41 0 0 0
M  V30 BEGIN ATOM
M  V30 1 C 2.659004 -1.580737 4.267679 0
M  V30 2 C 2.660656 -2.565282 3.160062 0
M  V30 3 N 2.520662 -3.903245 3.297883 0
M  V30 4 O 2.570335 -4.447474 2.122483 0
M  V30 5 C 2.737961 -3.542673 1.186645 0
M  V30 6 C 2.836705 -3.836165 -0.278286 0
M  V30 7 C 2.798926 -2.328216 1.825092 0
M  V30 8 C 2.978574 -1.044485 1.169439 0
M  V30 9 N 4.185541 -0.520156 0.943775 0
M  V30 10 N 4.298177 0.638170 0.350336 0
M  V30 11 C 3.232427 1.367380 -0.065499 0
M  V30 12 C 1.953761 0.886269 0.135205 0
M  V30 13 N 0.839452 1.559411 -0.253439 0
M  V30 14 C -0.411968 1.056747 -0.040583 0
M  V30 15 O -1.348665 1.950824 -0.536902 0
M  V30 16 C -2.707765 1.696335 -0.442961 0
M  V30 17 C -3.282375 1.629398 -1.718001 0
M  V30 18 C -4.646208 1.381441 -1.855431 0
M  V30 19 C -5.472992 1.194411 -0.747999 0
M  V30 20 F -6.798415 0.952453 -0.852887 0
M  V30 21 C -4.858064 1.270222 0.484689 0
M  V30 22 C -3.518700 1.512648 0.657936 0
M  V30 23 F -2.860905 1.603624 1.820724 0
M  V30 24 C -0.539674 -0.166341 0.585491 0
M  V30 25 C 0.600077 -0.838910 0.974886 0
M  V30 26 C 1.869022 -0.338845 0.764134 0
M  V30 27 H 3.301730 -1.906652 5.114069 0
M  V30 28 H 2.916291 -0.604148 3.859083 0
M  V30 29 H 1.599564 -1.531528 4.650803 0
M  V30 30 H 2.371807 -2.987074 -0.845883 0
M  V30 31 H 2.256665 -4.731383 -0.535257 0
M  V30 32 H 3.888679 -3.939075 -0.611679 0
M  V30 33 H 3.336048 2.327388 -0.556953 0
M  V30 34 H -2.776634 1.752405 -2.674390 0
M  V30 35 H -5.147502 1.318347 -2.815569 0
M  V30 36 H -5.437922 1.135010 1.392753 0
M  V30 37 H -1.559904 -0.449728 0.690714 0
M  V30 38 H 0.430348 -1.791499 1.460017 0
M  V30 END ATOM
M  V30 BEGIN BOND
M  V30 1 1 1 2
M  V30 2 2 2 3
M  V30 3 1 3 4
M  V30 4 1 4 5
M  V30 5 1 5 6
M  V30 6 2 5 7
M  V30 7 1 7 8
M  V30 8 2 8 9
M  V30 9 1 9 10
M  V30 10 2 10 11
M  V30 11 1 11 12
M  V30 12 2 12 13
M  V30 13 1 13 14
M  V30 14 1 14 15
M  V30 15 1 15 16
M  V30 16 2 16 17
M  V30 17 1 17 18
M  V30 18 2 18 19
M  V30 19 1 19 20
M  V30 20 1 19 21
M  V30 21 2 21 22
M  V30 22 1 22 23
M  V30 23 2 14 24
M  V30 24 1 24 25
M  V30 25 2 25 26
M  V30 26 1 7 2
M  V30 27 1 26 8
M  V30 28 1 26 12
M  V30 29 1 22 16
M  V30 30 1 1 27
M  V30 31 1 1 28
M  V30 32 1 1 29
M  V30 33 1 6 30
M  V30 34 1 6 31
M  V30 35 1 6 32
M  V30 36 1 11 33
M  V30 37 1 17 34
M  V30 38 1 18 35
M  V30 39 1 21 36
M  V30 40 1 24 37
M  V30 41 1 25 38
M  V30 END BOND
M  V30 END CTAB
M  END
>  <Dataset>  (660) 
ChEMBL_Kinases

>  <Ligand_Instance>  (660) 
nan

>  <PDB_ID>  (660) 
nan

>  <Standardized_SMILES>  (660) 
Cc1noc(C)c1-c1nncc2nc(Oc3ccc(F)cc3F)ccc12

>  <Name>  (660) 
nan

>  <Pocket>  (660) 
nan

>  <ATP_Site>  (660) 
nan

>  <Peripheral>  (660) 
nan

>  <Num_H_Atoms_ProtBoundConf>  (660) 
nan

>  <Num_Resolved_Atoms>  (660) 
nan

>  <Num_Not_Resolved_Atoms>  (660) 
nan

$$$$
CHEMBL3649502
     RDKit          3D

  0  0  0  0  0  0  0  0  0  0999 V3000
M  V30 BEGIN CTAB
M  V30 COUNTS 42 45 0 0 0
M  V30 BEGIN ATOM
M  V30 1 C 0.067487 -4.319764 0.038392 0
M  V30 2 C 1.502538 -4.386190 -0.376223 0
M  V30 3 C 2.211537 -5.429819 0.231271 0
M  V30 4 C 3.559344 -5.648802 -0.050880 0
M  V30 5 F 4.208402 -6.668630 0.555504 0
M  V30 6 C 4.126143 -4.782188 -0.949999 0
M  V30 7 C 3.459485 -3.745354 -1.566070 0
M  V30 8 C 2.123636 -3.542735 -1.274345 0
M  V30 9 O 1.378364 -2.528429 -1.847011 0
M  V30 10 C 0.778357 -1.481519 -1.175450 0
M  V30 11 C 0.889737 -1.294752 0.186501 0
M  V30 12 C 0.282035 -0.242061 0.837029 0
M  V30 13 C -0.451398 0.631877 0.075055 0
M  V30 14 C -1.072882 1.697392 0.677410 0
M  V30 15 C -1.017661 1.985021 2.105365 0
M  V30 16 C -1.429437 1.069907 3.081808 0
M  V30 17 C -1.331554 1.480885 4.394688 0
M  V30 18 C -0.867370 2.704609 4.820852 0
M  V30 19 C -0.462235 3.602698 3.834867 0
M  V30 20 C -0.544017 3.228972 2.501480 0
M  V30 21 C -0.106761 4.191814 1.448701 0
M  V30 22 N -1.803472 2.582073 -0.059599 0
M  V30 23 N -1.895395 2.379915 -1.379591 0
M  V30 24 C -1.317367 1.369469 -2.011482 0
M  V30 25 C -0.568057 0.448357 -1.310893 0
M  V30 26 N 0.043083 -0.597053 -1.913913 0
M  V30 27 H -0.567539 -3.806589 -0.721077 0
M  V30 28 H -0.330691 -5.369470 0.122624 0
M  V30 29 H 0.002311 -3.904392 1.046014 0
M  V30 30 H 1.753585 -6.115855 0.946518 0
M  V30 31 H 5.186715 -4.978830 -1.152283 0
M  V30 32 H 3.944188 -3.083875 -2.270815 0
M  V30 33 H 1.463330 -1.956257 0.808434 0
M  V30 34 H 0.377824 -0.104858 1.891100 0
M  V30 35 H -1.805044 0.100586 2.786300 0
M  V30 36 H -1.660383 0.741897 5.122239 0
M  V30 37 H -0.843548 2.898959 5.884467 0
M  V30 38 H -0.095094 4.569213 4.152437 0
M  V30 39 H -0.934247 4.848340 1.103898 0
M  V30 40 H 0.689978 4.827665 1.919923 0
M  V30 41 H 0.331668 3.600151 0.598110 0
M  V30 42 H -1.410703 1.235075 -3.079643 0
M  V30 END ATOM
M  V30 BEGIN BOND
M  V30 1 1 1 2
M  V30 2 2 2 3
M  V30 3 1 3 4
M  V30 4 1 4 5
M  V30 5 2 4 6
M  V30 6 1 6 7
M  V30 7 2 7 8
M  V30 8 1 8 9
M  V30 9 1 9 10
M  V30 10 2 10 11
M  V30 11 1 11 12
M  V30 12 2 12 13
M  V30 13 1 13 14
M  V30 14 1 14 15
M  V30 15 2 15 16
M  V30 16 1 16 17
M  V30 17 2 17 18
M  V30 18 1 18 19
M  V30 19 2 19 20
M  V30 20 1 20 21
M  V30 21 2 14 22
M  V30 22 1 22 23
M  V30 23 2 23 24
M  V30 24 1 24 25
M  V30 25 2 25 26
M  V30 26 1 8 2
M  V30 27 1 26 10
M  V30 28 1 25 13
M  V30 29 1 20 15
M  V30 30 1 1 27
M  V30 31 1 1 28
M  V30 32 1 1 29
M  V30 33 1 3 30
M  V30 34 1 6 31
M  V30 35 1 7 32
M  V30 36 1 11 33
M  V30 37 1 12 34
M  V30 38 1 16 35
M  V30 39 1 17 36
M  V30 40 1 18 37
M  V30 41 1 19 38
M  V30 42 1 21 39
M  V30 43 1 21 40
M  V30 44 1 21 41
M  V30 45 1 24 42
M  V30 END BOND
M  V30 END CTAB
M  END
>  <Dataset>  (661) 
ChEMBL_Kinases

>  <Ligand_Instance>  (661) 
nan

>  <PDB_ID>  (661) 
nan

>  <Standardized_SMILES>  (661) 
Cc1cc(F)ccc1Oc1ccc2c(-c3ccccc3C)nncc2n1

>  <Name>  (661) 
nan

>  <Pocket>  (661) 
nan

>  <ATP_Site>  (661) 
nan

>  <Peripheral>  (661) 
nan

>  <Num_H_Atoms_ProtBoundConf>  (661) 
nan

>  <Num_Resolved_Atoms>  (661) 
nan

>  <Num_Not_Resolved_Atoms>  (661) 
nan

$$$$
CHEMBL3649503
     RDKit          3D

  0  0  0  0  0  0  0  0  0  0999 V3000
M  V30 BEGIN CTAB
M  V30 COUNTS 46 49 0 0 0
M  V30 BEGIN ATOM
M  V30 1 C 3.619130 -0.330022 -1.216731 0
M  V30 2 C 4.250587 -1.443061 -0.502186 0
M  V30 3 C 5.484746 -1.462199 0.110300 0
M  V30 4 C 6.082407 -2.518653 0.766203 0
M  V30 5 F 7.309788 -2.376614 1.318154 0
M  V30 6 C 5.323520 -3.672006 0.789017 0
M  V30 7 C 4.074162 -3.753069 0.204099 0
M  V30 8 C 3.525100 -2.637347 -0.447059 0
M  V30 9 O 2.289530 -2.917765 -0.954725 0
M  V30 10 C 1.090265 -2.335516 -0.597031 0
M  V30 11 C 1.004449 -1.387704 0.399289 0
M  V30 12 C -0.193789 -0.810325 0.756561 0
M  V30 13 C -1.329583 -1.205272 0.087985 0
M  V30 14 C -2.561163 -0.673923 0.410958 0
M  V30 15 C -2.686715 0.322667 1.478794 0
M  V30 16 C -2.000219 1.521573 1.272919 0
M  V30 17 C -2.035080 2.575647 2.168534 0
M  V30 18 C -1.314951 3.815286 1.927424 0
M  V30 19 N -0.570227 3.928701 0.723198 0
M  V30 20 O -1.351269 4.762202 2.758948 0
M  V30 21 C -2.800272 2.402381 3.323839 0
M  V30 22 C -3.484903 1.214536 3.535763 0
M  V30 23 C -3.436507 0.175261 2.627690 0
M  V30 24 C -4.147916 -1.092935 2.834767 0
M  V30 25 N -3.638342 -1.114944 -0.274613 0
M  V30 26 N -3.555082 -2.033692 -1.240733 0
M  V30 27 C -2.372069 -2.566739 -1.575263 0
M  V30 28 C -1.227116 -2.166259 -0.918307 0
M  V30 29 N -0.036358 -2.722621 -1.255865 0
M  V30 30 H 3.149695 0.356872 -0.486972 0
M  V30 31 H 4.349824 0.253701 -1.832925 0
M  V30 32 H 2.864162 -0.714131 -1.934954 0
M  V30 33 H 6.001652 -0.506220 0.036995 0
M  V30 34 H 5.769464 -4.535626 1.302161 0
M  V30 35 H 3.601237 -4.720874 0.303723 0
M  V30 36 H 1.871582 -1.078966 0.929508 0
M  V30 37 H -0.200430 -0.074078 1.544521 0
M  V30 38 H -1.396267 1.693421 0.392451 0
M  V30 39 H 0.404230 3.570483 0.517747 0
M  V30 40 H -0.615011 4.306766 -0.246492 0
M  V30 41 H -2.810706 3.247968 4.017475 0
M  V30 42 H -4.068499 1.124445 4.451702 0
M  V30 43 H -5.232096 -0.896249 2.809937 0
M  V30 44 H -3.895975 -1.833234 2.062833 0
M  V30 45 H -3.895400 -1.430385 3.868933 0
M  V30 46 H -2.321288 -3.307953 -2.360670 0
M  V30 END ATOM
M  V30 BEGIN BOND
M  V30 1 1 1 2
M  V30 2 2 2 3
M  V30 3 1 3 4
M  V30 4 1 4 5
M  V30 5 2 4 6
M  V30 6 1 6 7
M  V30 7 2 7 8
M  V30 8 1 8 9
M  V30 9 1 9 10
M  V30 10 2 10 11
M  V30 11 1 11 12
M  V30 12 2 12 13
M  V30 13 1 13 14
M  V30 14 1 14 15
M  V30 15 2 15 16
M  V30 16 1 16 17
M  V30 17 1 17 18
M  V30 18 1 18 19
M  V30 19 2 18 20
M  V30 20 2 17 21
M  V30 21 1 21 22
M  V30 22 2 22 23
M  V30 23 1 23 24
M  V30 24 2 14 25
M  V30 25 1 25 26
M  V30 26 2 26 27
M  V30 27 1 27 28
M  V30 28 2 28 29
M  V30 29 1 8 2
M  V30 30 1 29 10
M  V30 31 1 28 13
M  V30 32 1 23 15
M  V30 33 1 1 30
M  V30 34 1 1 31
M  V30 35 1 1 32
M  V30 36 1 3 33
M  V30 37 1 6 34
M  V30 38 1 7 35
M  V30 39 1 11 36
M  V30 40 1 12 37
M  V30 41 1 16 38
M  V30 42 1 19 39
M  V30 43 1 19 40
M  V30 44 1 21 41
M  V30 45 1 22 42
M  V30 46 1 24 43
M  V30 47 1 24 44
M  V30 48 1 24 45
M  V30 49 1 27 46
M  V30 END BOND
M  V30 END CTAB
M  END
>  <Dataset>  (662) 
ChEMBL_Kinases

>  <Ligand_Instance>  (662) 
nan

>  <PDB_ID>  (662) 
nan

>  <Standardized_SMILES>  (662) 
Cc1cc(F)ccc1Oc1ccc2c(-c3cc(C(N)=O)ccc3C)nncc2n1

>  <Name>  (662) 
nan

>  <Pocket>  (662) 
nan

>  <ATP_Site>  (662) 
nan

>  <Peripheral>  (662) 
nan

>  <Num_H_Atoms_ProtBoundConf>  (662) 
nan

>  <Num_Resolved_Atoms>  (662) 
nan

>  <Num_Not_Resolved_Atoms>  (662) 
nan

$$$$
CHEMBL3649655
     RDKit          3D

  0  0  0  0  0  0  0  0  0  0999 V3000
M  V30 BEGIN CTAB
M  V30 COUNTS 44 47 0 0 0
M  V30 BEGIN ATOM
M  V30 1 C 0.782451 -3.366088 2.442951 0
M  V30 2 N -0.047224 -2.971026 1.314098 0
M  V30 3 C 0.470714 -1.993447 0.401111 0
M  V30 4 O 1.732981 -2.052142 0.499047 0
M  V30 5 C -0.397992 -1.156955 -0.424350 0 CFG=1
M  V30 6 C 0.277128 -0.157629 -1.282192 0
M  V30 7 C 1.094346 0.857590 -0.629036 0
M  V30 8 C 0.389370 1.986049 -0.219726 0
M  V30 9 C 0.973971 3.065705 0.406395 0
M  V30 10 C 2.327565 3.070962 0.660961 0
M  V30 11 C 3.108013 4.119257 1.305368 0
M  V30 12 C 4.257250 4.078922 2.103494 0
M  V30 13 N 4.566739 5.359666 2.440086 0
M  V30 14 N 3.671917 6.187173 1.893627 0
M  V30 15 C 2.768921 5.457869 1.194846 0
M  V30 16 C 3.051587 1.959866 0.263557 0
M  V30 17 C 2.448579 0.893894 -0.359599 0
M  V30 18 N -1.234059 -1.969460 -1.327075 0
M  V30 19 C -2.078563 -3.090692 -1.052987 0
M  V30 20 O -2.743540 -3.563572 -2.018351 0
M  V30 21 C -2.234620 -3.736417 0.261373 0
M  V30 22 C -3.427601 -4.420460 0.311363 0
M  V30 23 C -3.731756 -5.085007 1.475610 0
M  V30 24 Cl -5.237981 -5.961083 1.568273 0
M  V30 25 C -2.839316 -5.032917 2.518210 0
M  V30 26 C -1.642878 -4.346084 2.466013 0
M  V30 27 C -1.311682 -3.670570 1.311229 0
M  V30 28 H 0.932174 -4.462971 2.516136 0
M  V30 29 H 0.496446 -2.876726 3.390661 0
M  V30 30 H 1.813038 -2.969154 2.227532 0
M  V30 31 H -1.161185 -0.598799 0.198701 0
M  V30 32 H 0.944165 -0.715811 -1.998933 0
M  V30 33 H -0.519097 0.330088 -1.910468 0
M  V30 34 H -0.678535 2.119934 -0.354503 0
M  V30 35 H 0.445267 3.941786 0.727877 0
M  V30 36 H 4.714494 3.126791 2.332866 0
M  V30 37 H 3.741454 7.231774 2.040696 0
M  V30 38 H 1.933212 5.889296 0.652705 0
M  V30 39 H 4.124306 1.856040 0.413743 0
M  V30 40 H 2.989140 0.018628 -0.688019 0
M  V30 41 H -1.264467 -1.743612 -2.366496 0
M  V30 42 H -4.082193 -4.418457 -0.548267 0
M  V30 43 H -3.080955 -5.558693 3.437437 0
M  V30 44 H -0.943699 -4.304335 3.281622 0
M  V30 END ATOM
M  V30 BEGIN BOND
M  V30 1 1 1 2
M  V30 2 1 2 3
M  V30 3 2 3 4
M  V30 4 1 3 5
M  V30 5 1 5 6
M  V30 6 1 6 7
M  V30 7 2 7 8
M  V30 8 1 8 9
M  V30 9 2 9 10
M  V30 10 1 10 11
M  V30 11 1 11 12
M  V30 12 2 12 13
M  V30 13 1 13 14
M  V30 14 1 14 15
M  V30 15 1 10 16
M  V30 16 2 16 17
M  V30 17 1 5 18
M  V30 18 1 18 19
M  V30 19 2 19 20
M  V30 20 1 19 21
M  V30 21 2 21 22
M  V30 22 1 22 23
M  V30 23 1 23 24
M  V30 24 2 23 25
M  V30 25 1 25 26
M  V30 26 2 26 27
M  V30 27 1 27 2
M  V30 28 1 17 7
M  V30 29 1 27 21
M  V30 30 2 15 11
M  V30 31 1 1 28
M  V30 32 1 1 29
M  V30 33 1 1 30
M  V30 34 1 5 31 CFG=1
M  V30 35 1 6 32
M  V30 36 1 6 33
M  V30 37 1 8 34
M  V30 38 1 9 35
M  V30 39 1 12 36
M  V30 40 1 14 37
M  V30 41 1 15 38
M  V30 42 1 16 39
M  V30 43 1 17 40
M  V30 44 1 18 41
M  V30 45 1 22 42
M  V30 46 1 25 43
M  V30 47 1 26 44
M  V30 END BOND
M  V30 END CTAB
M  END
>  <Dataset>  (663) 
ChEMBL_Kinases

>  <Ligand_Instance>  (663) 
nan

>  <PDB_ID>  (663) 
nan

>  <Standardized_SMILES>  (663) 
CN1C(=O)[C@@H](Cc2ccc(-c3cn[nH]c3)cc2)NC(=O)c2cc(Cl)ccc21

>  <Name>  (663) 
nan

>  <Pocket>  (663) 
nan

>  <ATP_Site>  (663) 
nan

>  <Peripheral>  (663) 
nan

>  <Num_H_Atoms_ProtBoundConf>  (663) 
nan

>  <Num_Resolved_Atoms>  (663) 
nan

>  <Num_Not_Resolved_Atoms>  (663) 
nan

$$$$
CHEMBL3649656
     RDKit          3D

  0  0  0  0  0  0  0  0  0  0999 V3000
M  V30 BEGIN CTAB
M  V30 COUNTS 48 51 0 0 0
M  V30 BEGIN ATOM
M  V30 1 C -0.785294 -5.862482 2.473836 0
M  V30 2 N -1.044426 -4.515681 2.047345 0
M  V30 3 C -0.019173 -3.540923 2.155495 0
M  V30 4 O 1.006716 -4.020477 2.725736 0
M  V30 5 C 0.193965 -2.135905 1.796163 0 CFG=1
M  V30 6 C 1.035646 -1.997866 0.523326 0
M  V30 7 C 1.182789 -0.528975 0.262065 0
M  V30 8 C 2.295279 0.075508 0.857089 0
M  V30 9 C 2.500721 1.438735 0.660826 0
M  V30 10 C 1.628846 2.194611 -0.106311 0
M  V30 11 C 1.927743 3.615404 -0.253925 0
M  V30 12 C 0.938872 4.566078 -0.407358 0
M  V30 13 C 1.149337 5.922391 -0.551635 0
M  V30 14 N 2.439840 6.322814 -0.537772 0
M  V30 15 C 3.430364 5.397844 -0.387137 0
M  V30 16 N 4.783902 5.847685 -0.376116 0
M  V30 17 C 3.242379 4.040400 -0.241659 0
M  V30 18 C 0.528855 1.578178 -0.690051 0
M  V30 19 C 0.308195 0.225218 -0.506475 0
M  V30 20 N -1.028722 -1.393260 1.558379 0
M  V30 21 C -2.393339 -1.675042 1.279878 0
M  V30 22 O -3.162701 -0.700663 1.095810 0
M  V30 23 C -2.927578 -3.029984 1.200590 0
M  V30 24 C -4.226397 -2.984199 0.705659 0
M  V30 25 C -4.962725 -4.152939 0.533489 0
M  V30 26 Cl -6.597456 -4.098829 -0.089052 0
M  V30 27 C -4.382894 -5.370071 0.862999 0
M  V30 28 C -3.092694 -5.394179 1.352687 0
M  V30 29 C -2.346498 -4.238130 1.529757 0
M  V30 30 H 0.205100 -5.820027 3.017412 0
M  V30 31 H -1.487794 -6.219768 3.265331 0
M  V30 32 H -0.638273 -6.567270 1.653451 0
M  V30 33 H 0.811840 -1.631045 2.583879 0
M  V30 34 H 0.467573 -2.407930 -0.337557 0
M  V30 35 H 2.025287 -2.450213 0.636682 0
M  V30 36 H 3.017792 -0.457312 1.470170 0
M  V30 37 H 3.347702 1.901387 1.113365 0
M  V30 38 H -0.088499 4.217705 -0.414963 0
M  V30 39 H 0.310979 6.594333 -0.666521 0
M  V30 40 H 5.586748 6.373971 -0.780457 0
M  V30 41 H 5.336864 5.511012 0.452473 0
M  V30 42 H 4.053439 3.361174 -0.127375 0
M  V30 43 H -0.144409 2.173483 -1.285240 0
M  V30 44 H -0.533888 -0.290382 -0.942741 0
M  V30 45 H -0.827987 -0.357108 1.611148 0
M  V30 46 H -4.715643 -2.046823 0.435607 0
M  V30 47 H -4.940361 -6.288674 0.735779 0
M  V30 48 H -2.665999 -6.348984 1.600648 0
M  V30 END ATOM
M  V30 BEGIN BOND
M  V30 1 1 1 2
M  V30 2 1 2 3
M  V30 3 2 3 4
M  V30 4 1 3 5
M  V30 5 1 5 6
M  V30 6 1 6 7
M  V30 7 2 7 8
M  V30 8 1 8 9
M  V30 9 2 9 10
M  V30 10 1 10 11
M  V30 11 2 11 12
M  V30 12 1 12 13
M  V30 13 2 13 14
M  V30 14 1 14 15
M  V30 15 1 15 16
M  V30 16 2 15 17
M  V30 17 1 10 18
M  V30 18 2 18 19
M  V30 19 1 5 20
M  V30 20 1 20 21
M  V30 21 2 21 22
M  V30 22 1 21 23
M  V30 23 2 23 24
M  V30 24 1 24 25
M  V30 25 1 25 26
M  V30 26 2 25 27
M  V30 27 1 27 28
M  V30 28 2 28 29
M  V30 29 1 29 2
M  V30 30 1 19 7
M  V30 31 1 29 23
M  V30 32 1 17 11
M  V30 33 1 1 30
M  V30 34 1 1 31
M  V30 35 1 1 32
M  V30 36 1 5 33 CFG=1
M  V30 37 1 6 34
M  V30 38 1 6 35
M  V30 39 1 8 36
M  V30 40 1 9 37
M  V30 41 1 12 38
M  V30 42 1 13 39
M  V30 43 1 16 40
M  V30 44 1 16 41
M  V30 45 1 17 42
M  V30 46 1 18 43
M  V30 47 1 19 44
M  V30 48 1 20 45
M  V30 49 1 24 46
M  V30 50 1 27 47
M  V30 51 1 28 48
M  V30 END BOND
M  V30 END CTAB
M  END
>  <Dataset>  (664) 
ChEMBL_Kinases

>  <Ligand_Instance>  (664) 
nan

>  <PDB_ID>  (664) 
nan

>  <Standardized_SMILES>  (664) 
CN1C(=O)[C@@H](Cc2ccc(-c3ccnc(N)c3)cc2)NC(=O)c2cc(Cl)ccc21

>  <Name>  (664) 
nan

>  <Pocket>  (664) 
nan

>  <ATP_Site>  (664) 
nan

>  <Peripheral>  (664) 
nan

>  <Num_H_Atoms_ProtBoundConf>  (664) 
nan

>  <Num_Resolved_Atoms>  (664) 
nan

>  <Num_Not_Resolved_Atoms>  (664) 
nan

$$$$
CHEMBL3649657
     RDKit          3D

  0  0  0  0  0  0  0  0  0  0999 V3000
M  V30 BEGIN CTAB
M  V30 COUNTS 52 55 0 0 0
M  V30 BEGIN ATOM
M  V30 1 C 3.246365 -1.770243 -5.336917 0
M  V30 2 O 4.339304 -1.210272 -4.649014 0
M  V30 3 C 4.239522 -0.825869 -3.336055 0
M  V30 4 C 5.285468 -0.269755 -2.614602 0
M  V30 5 C 5.185027 0.119764 -1.284819 0
M  V30 6 C 3.973800 -0.046895 -0.612465 0
M  V30 7 C 2.937510 -0.596562 -1.323008 0
M  V30 8 C 3.064954 -0.978974 -2.657133 0
M  V30 9 C 1.581394 -0.875608 -0.861643 0
M  V30 10 O 0.871628 -1.678783 -1.513705 0
M  V30 11 N 0.972486 -0.305078 0.291583 0
M  V30 12 C 1.474823 0.188602 1.523378 0 CFG=1
M  V30 13 C 0.900321 -0.618442 2.692919 0
M  V30 14 C -0.574398 -0.532367 2.729009 0
M  V30 15 C -1.225041 -1.530123 1.996708 0
M  V30 16 C -2.612568 -1.599730 1.921983 0
M  V30 17 C -3.389611 -0.668469 2.581140 0
M  V30 18 C -4.841879 -0.767258 2.485334 0
M  V30 19 C -5.686524 0.322584 2.525391 0
M  V30 20 C -7.060958 0.231811 2.435922 0
M  V30 21 N -7.612209 -1.008188 2.300253 0
M  V30 22 C -6.804608 -2.095889 2.258152 0
M  V30 23 N -7.445500 -3.377532 2.113754 0
M  V30 24 C -5.421224 -2.030481 2.346000 0
M  V30 25 C -2.742056 0.314994 3.303028 0
M  V30 26 C -1.365897 0.390400 3.381742 0
M  V30 27 C 2.925403 0.328663 1.644660 0
M  V30 28 O 3.281410 0.414553 2.869159 0
M  V30 29 N 4.024339 0.390905 0.720124 0
M  V30 30 C 5.265722 0.941532 1.194331 0
M  V30 31 H 2.358209 -1.115907 -5.315181 0
M  V30 32 H 3.521604 -1.929784 -6.407507 0
M  V30 33 H 2.935957 -2.747916 -4.908372 0
M  V30 34 H 6.228698 -0.146522 -3.158386 0
M  V30 35 H 6.012446 0.544139 -0.763339 0
M  V30 36 H 2.202174 -1.412494 -3.172696 0
M  V30 37 H -0.077069 -0.214691 0.257188 0
M  V30 38 H 1.045127 1.211011 1.661856 0
M  V30 39 H 1.248240 -1.653017 2.686429 0
M  V30 40 H 1.259588 -0.143358 3.643326 0
M  V30 41 H -0.696582 -2.296079 1.452527 0
M  V30 42 H -3.093893 -2.390778 1.341725 0
M  V30 43 H -5.241251 1.286026 2.631792 0
M  V30 44 H -7.657296 1.153745 2.476848 0
M  V30 45 H -6.997781 -3.922494 1.344664 0
M  V30 46 H -8.236270 -3.526785 2.800767 0
M  V30 47 H -4.855901 -2.946888 2.303820 0
M  V30 48 H -3.334326 1.057579 3.829063 0
M  V30 49 H -0.822685 1.128550 3.924458 0
M  V30 50 H 5.125000 1.228971 2.278394 0
M  V30 51 H 5.554713 1.890405 0.706551 0
M  V30 52 H 6.098635 0.192455 1.244552 0
M  V30 END ATOM
M  V30 BEGIN BOND
M  V30 1 1 1 2
M  V30 2 1 2 3
M  V30 3 2 3 4
M  V30 4 1 4 5
M  V30 5 2 5 6
M  V30 6 1 6 7
M  V30 7 2 7 8
M  V30 8 1 7 9
M  V30 9 2 9 10
M  V30 10 1 9 11
M  V30 11 1 11 12
M  V30 12 1 12 13
M  V30 13 1 13 14
M  V30 14 2 14 15
M  V30 15 1 15 16
M  V30 16 2 16 17
M  V30 17 1 17 18
M  V30 18 2 18 19
M  V30 19 1 19 20
M  V30 20 2 20 21
M  V30 21 1 21 22
M  V30 22 1 22 23
M  V30 23 2 22 24
M  V30 24 1 17 25
M  V30 25 2 25 26
M  V30 26 1 12 27
M  V30 27 2 27 28
M  V30 28 1 27 29
M  V30 29 1 29 30
M  V30 30 1 8 3
M  V30 31 1 26 14
M  V30 32 1 29 6
M  V30 33 1 24 18
M  V30 34 1 1 31
M  V30 35 1 1 32
M  V30 36 1 1 33
M  V30 37 1 4 34
M  V30 38 1 5 35
M  V30 39 1 8 36
M  V30 40 1 11 37
M  V30 41 1 12 38 CFG=1
M  V30 42 1 13 39
M  V30 43 1 13 40
M  V30 44 1 15 41
M  V30 45 1 16 42
M  V30 46 1 19 43
M  V30 47 1 20 44
M  V30 48 1 23 45
M  V30 49 1 23 46
M  V30 50 1 24 47
M  V30 51 1 25 48
M  V30 52 1 26 49
M  V30 53 1 30 50
M  V30 54 1 30 51
M  V30 55 1 30 52
M  V30 END BOND
M  V30 END CTAB
M  END
>  <Dataset>  (665) 
ChEMBL_Kinases

>  <Ligand_Instance>  (665) 
nan

>  <PDB_ID>  (665) 
nan

>  <Standardized_SMILES>  (665) 
COc1ccc2c(c1)C(=O)N[C@@H](Cc1ccc(-c3ccnc(N)c3)cc1)C(=O)N2C

>  <Name>  (665) 
nan

>  <Pocket>  (665) 
nan

>  <ATP_Site>  (665) 
nan

>  <Peripheral>  (665) 
nan

>  <Num_H_Atoms_ProtBoundConf>  (665) 
nan

>  <Num_Resolved_Atoms>  (665) 
nan

>  <Num_Not_Resolved_Atoms>  (665) 
nan

$$$$
CHEMBL3649674
     RDKit          3D

  0  0  0  0  0  0  0  0  0  0999 V3000
M  V30 BEGIN CTAB
M  V30 COUNTS 57 62 0 0 0
M  V30 BEGIN ATOM
M  V30 1 N -1.074934 -1.708675 -4.293911 0
M  V30 2 C 0.273954 -1.763330 -3.754218 0
M  V30 3 C 0.390863 -1.380270 -2.337889 0
M  V30 4 C 1.036969 -2.111438 -1.360136 0
M  V30 5 C 1.090641 -1.662264 -0.054259 0
M  V30 6 C 0.465934 -0.439040 0.240468 0
M  V30 7 N 0.472581 0.066608 1.553892 0
M  V30 8 C 1.335721 0.869600 2.159087 0
M  V30 9 C 2.530820 1.471898 1.663131 0
M  V30 10 C 3.097244 1.366783 0.415956 0
M  V30 11 C 4.252725 1.961005 -0.034396 0
M  V30 12 C 4.937705 2.759263 0.853566 0
M  V30 13 C 4.452275 2.925652 2.120044 0
M  V30 14 C 3.287408 2.297322 2.498200 0
M  V30 15 O 2.848965 2.511958 3.808580 0
M  V30 16 N 0.858730 1.030060 3.405895 0
M  V30 17 C -0.266437 0.343792 3.560479 0
M  V30 18 C -1.096853 0.213109 4.659133 0
M  V30 19 C -2.219600 -0.579046 4.533531 0
M  V30 20 C -2.496079 -1.217148 3.342863 0
M  V30 21 C -3.664072 -2.055019 3.177041 0
M  V30 22 C -4.604336 -2.305913 4.151648 0
M  V30 23 C -5.709234 -3.113873 3.955871 0
M  V30 24 C -5.918196 -3.713498 2.751027 0
M  V30 25 C -5.003457 -3.496520 1.731928 0
M  V30 26 C -3.914288 -2.680667 1.975684 0
M  V30 27 N -1.648044 -1.048647 2.312570 0
M  V30 28 C -0.540085 -0.293887 2.366029 0
M  V30 29 C -0.200975 0.336733 -0.718173 0
M  V30 30 C -0.220972 -0.171458 -2.023352 0
M  V30 31 C 0.941434 -3.079204 -4.100399 0
M  V30 32 C 1.181667 -2.449965 -5.477596 0
M  V30 33 C 1.234160 -1.117183 -4.716884 0
M  V30 34 H -1.809421 -1.922248 -3.579660 0
M  V30 35 H -1.224097 -0.761384 -4.710138 0
M  V30 36 H 1.495437 -3.039656 -1.648273 0
M  V30 37 H 1.586952 -2.209720 0.730900 0
M  V30 38 H 2.592745 0.751129 -0.308783 0
M  V30 39 H 4.616503 1.817394 -1.032462 0
M  V30 40 H 5.851521 3.253301 0.559877 0
M  V30 41 H 4.974839 3.546009 2.827074 0
M  V30 42 H 3.469921 2.295387 4.583686 0
M  V30 43 H -0.903053 0.709639 5.622976 0
M  V30 44 H -2.854633 -0.670145 5.396895 0
M  V30 45 H -4.481215 -1.852233 5.123551 0
M  V30 46 H -6.416785 -3.274049 4.763809 0
M  V30 47 H -6.788890 -4.332999 2.641928 0
M  V30 48 H -5.189577 -3.978835 0.794315 0
M  V30 49 H -3.226677 -2.542182 1.145369 0
M  V30 50 H -0.664156 1.255014 -0.471754 0
M  V30 51 H -0.739473 0.442163 -2.743215 0
M  V30 52 H 1.923961 -3.242376 -3.630826 0
M  V30 53 H 0.264664 -3.954272 -4.113051 0
M  V30 54 H 2.129806 -2.744998 -5.955791 0
M  V30 55 H 0.254080 -2.551288 -6.066440 0
M  V30 56 H 0.817906 -0.271715 -5.281880 0
M  V30 57 H 2.269422 -1.002425 -4.322426 0
M  V30 END ATOM
M  V30 BEGIN BOND
M  V30 1 1 1 2
M  V30 2 1 2 3
M  V30 3 2 3 4
M  V30 4 1 4 5
M  V30 5 2 5 6
M  V30 6 1 6 7
M  V30 7 1 7 8
M  V30 8 1 8 9
M  V30 9 2 9 10
M  V30 10 1 10 11
M  V30 11 2 11 12
M  V30 12 1 12 13
M  V30 13 2 13 14
M  V30 14 1 14 15
M  V30 15 2 8 16
M  V30 16 1 16 17
M  V30 17 2 17 18
M  V30 18 1 18 19
M  V30 19 2 19 20
M  V30 20 1 20 21
M  V30 21 2 21 22
M  V30 22 1 22 23
M  V30 23 2 23 24
M  V30 24 1 24 25
M  V30 25 2 25 26
M  V30 26 1 20 27
M  V30 27 2 27 28
M  V30 28 1 6 29
M  V30 29 2 29 30
M  V30 30 1 2 31
M  V30 31 1 31 32
M  V30 32 1 32 33
M  V30 33 1 33 2
M  V30 34 1 30 3
M  V30 35 1 28 7
M  V30 36 1 14 9
M  V30 37 1 28 17
M  V30 38 1 26 21
M  V30 39 1 1 34
M  V30 40 1 1 35
M  V30 41 1 4 36
M  V30 42 1 5 37
M  V30 43 1 10 38
M  V30 44 1 11 39
M  V30 45 1 12 40
M  V30 46 1 13 41
M  V30 47 1 15 42
M  V30 48 1 18 43
M  V30 49 1 19 44
M  V30 50 1 22 45
M  V30 51 1 23 46
M  V30 52 1 24 47
M  V30 53 1 25 48
M  V30 54 1 26 49
M  V30 55 1 29 50
M  V30 56 1 30 51
M  V30 57 1 31 52
M  V30 58 1 31 53
M  V30 59 1 32 54
M  V30 60 1 32 55
M  V30 61 1 33 56
M  V30 62 1 33 57
M  V30 END BOND
M  V30 END CTAB
M  END
>  <Dataset>  (666) 
ChEMBL_Kinases

>  <Ligand_Instance>  (666) 
nan

>  <PDB_ID>  (666) 
nan

>  <Standardized_SMILES>  (666) 
NC1(c2ccc(-n3c(-c4ccccc4O)nc4ccc(-c5ccccc5)nc43)cc2)CCC1

>  <Name>  (666) 
nan

>  <Pocket>  (666) 
nan

>  <ATP_Site>  (666) 
nan

>  <Peripheral>  (666) 
nan

>  <Num_H_Atoms_ProtBoundConf>  (666) 
nan

>  <Num_Resolved_Atoms>  (666) 
nan

>  <Num_Not_Resolved_Atoms>  (666) 
nan

$$$$
CHEMBL3649666
     RDKit          3D

  0  0  0  0  0  0  0  0  0  0999 V3000
M  V30 BEGIN CTAB
M  V30 COUNTS 72 78 0 0 0
M  V30 BEGIN ATOM
M  V30 1 C 5.546433 -2.962657 1.241842 0
M  V30 2 C 5.543194 -1.604814 1.879385 0
M  V30 3 C 6.713158 -1.170866 2.515334 0
M  V30 4 C 6.795239 0.060659 3.127381 0
M  V30 5 C 5.683533 0.871092 3.100870 0
M  V30 6 C 4.556453 0.404777 2.465180 0
M  V30 7 C 4.416339 -0.809141 1.840087 0
M  V30 8 C 3.233686 -1.299406 1.171008 0
M  V30 9 N 3.100909 -2.483718 0.556102 0
M  V30 10 C 1.894612 -2.648691 0.034119 0
M  V30 11 C 1.360623 -3.700188 -0.665860 0
M  V30 12 C 0.042850 -3.546072 -1.076762 0
M  V30 13 C -0.675546 -2.412442 -0.798070 0
M  V30 14 C -2.063279 -2.229461 -1.213378 0
M  V30 15 C -2.690989 -1.028765 -0.858944 0
M  V30 16 C -4.005053 -0.768180 -1.209165 0
M  V30 17 C -4.678334 -1.737567 -1.923733 0
M  V30 18 C -4.103197 -2.933957 -2.295469 0
M  V30 19 N -4.798303 -3.926373 -3.026884 0
M  V30 20 C -4.250214 -5.143775 -3.562621 0
M  V30 21 C -4.928204 -6.309831 -2.869526 0
M  V30 22 O -6.292461 -6.260373 -3.011766 0
M  V30 23 C -6.826678 -5.057351 -2.584114 0
M  V30 24 C -6.206864 -3.883526 -3.358815 0
M  V30 25 C -2.810861 -3.121783 -1.917270 0
M  V30 26 N -0.097825 -1.416616 -0.108898 0
M  V30 27 C 1.175566 -1.513775 0.312686 0
M  V30 28 N 2.046031 -0.720696 1.011106 0
M  V30 29 C 1.556373 0.541513 1.433109 0
M  V30 30 C 0.903334 0.826307 2.643433 0
M  V30 31 C 0.466445 2.114603 2.878096 0
M  V30 32 C 0.665046 3.128549 1.934032 0
M  V30 33 C 0.115986 4.435966 2.369092 0
M  V30 34 N 0.348039 4.674605 3.766962 0
M  V30 35 C 0.282101 5.591933 1.432629 0
M  V30 36 C -1.071727 5.258145 0.790551 0
M  V30 37 C -1.393085 4.540360 2.084210 0
M  V30 38 C 1.308594 2.840606 0.746423 0
M  V30 39 C 1.748533 1.565636 0.498263 0
M  V30 40 H 6.513221 -3.461723 1.488462 0
M  V30 41 H 4.783244 -3.561639 1.814174 0
M  V30 42 H 5.385470 -2.942730 0.162905 0
M  V30 43 H 7.564594 -1.833098 2.515466 0
M  V30 44 H 7.734886 0.316089 3.595470 0
M  V30 45 H 5.731879 1.833565 3.572438 0
M  V30 46 H 3.732341 1.089078 2.485366 0
M  V30 47 H 1.951181 -4.582890 -0.871145 0
M  V30 48 H -0.390937 -4.364381 -1.626796 0
M  V30 49 H -2.179053 -0.252769 -0.297034 0
M  V30 50 H -4.483662 0.160133 -0.931596 0
M  V30 51 H -5.699193 -1.491073 -2.174731 0
M  V30 52 H -4.528251 -5.252123 -4.653690 0
M  V30 53 H -3.165277 -5.241199 -3.510672 0
M  V30 54 H -4.591410 -6.287623 -1.821460 0
M  V30 55 H -4.575436 -7.282157 -3.285877 0
M  V30 56 H -7.912498 -5.042681 -2.641958 0
M  V30 57 H -6.504938 -4.934336 -1.521406 0
M  V30 58 H -6.356122 -4.068081 -4.465208 0
M  V30 59 H -6.734225 -2.983332 -3.037364 0
M  V30 60 H -2.303801 -4.018642 -2.167172 0
M  V30 61 H 0.797466 -0.019196 3.307552 0
M  V30 62 H -0.029655 2.248336 3.839184 0
M  V30 63 H -0.525743 4.453643 4.320957 0
M  V30 64 H 0.535180 5.686153 3.927218 0
M  V30 65 H 1.055652 5.562684 0.674063 0
M  V30 66 H 0.241403 6.556713 2.006013 0
M  V30 67 H -0.988454 4.621128 -0.111544 0
M  V30 68 H -1.642220 6.169287 0.597800 0
M  V30 69 H -1.851925 3.543309 1.942195 0
M  V30 70 H -1.948899 5.185071 2.761448 0
M  V30 71 H 1.425195 3.659287 0.074466 0
M  V30 72 H 2.231799 1.452336 -0.447516 0
M  V30 END ATOM
M  V30 BEGIN BOND
M  V30 1 1 1 2
M  V30 2 2 2 3
M  V30 3 1 3 4
M  V30 4 2 4 5
M  V30 5 1 5 6
M  V30 6 2 6 7
M  V30 7 1 7 8
M  V30 8 2 8 9
M  V30 9 1 9 10
M  V30 10 2 10 11
M  V30 11 1 11 12
M  V30 12 2 12 13
M  V30 13 1 13 14
M  V30 14 2 14 15
M  V30 15 1 15 16
M  V30 16 2 16 17
M  V30 17 1 17 18
M  V30 18 1 18 19
M  V30 19 1 19 20
M  V30 20 1 20 21
M  V30 21 1 21 22
M  V30 22 1 22 23
M  V30 23 1 23 24
M  V30 24 2 18 25
M  V30 25 1 13 26
M  V30 26 2 26 27
M  V30 27 1 27 28
M  V30 28 1 28 29
M  V30 29 2 29 30
M  V30 30 1 30 31
M  V30 31 2 31 32
M  V30 32 1 32 33
M  V30 33 1 33 34
M  V30 34 1 33 35
M  V30 35 1 35 36
M  V30 36 1 36 37
M  V30 37 1 32 38
M  V30 38 2 38 39
M  V30 39 1 7 2
M  V30 40 1 28 8
M  V30 41 1 39 29
M  V30 42 1 27 10
M  V30 43 1 37 33
M  V30 44 1 25 14
M  V30 45 1 24 19
M  V30 46 1 1 40
M  V30 47 1 1 41
M  V30 48 1 1 42
M  V30 49 1 3 43
M  V30 50 1 4 44
M  V30 51 1 5 45
M  V30 52 1 6 46
M  V30 53 1 11 47
M  V30 54 1 12 48
M  V30 55 1 15 49
M  V30 56 1 16 50
M  V30 57 1 17 51
M  V30 58 1 20 52
M  V30 59 1 20 53
M  V30 60 1 21 54
M  V30 61 1 21 55
M  V30 62 1 23 56
M  V30 63 1 23 57
M  V30 64 1 24 58
M  V30 65 1 24 59
M  V30 66 1 25 60
M  V30 67 1 30 61
M  V30 68 1 31 62
M  V30 69 1 34 63
M  V30 70 1 34 64
M  V30 71 1 35 65
M  V30 72 1 35 66
M  V30 73 1 36 67
M  V30 74 1 36 68
M  V30 75 1 37 69
M  V30 76 1 37 70
M  V30 77 1 38 71
M  V30 78 1 39 72
M  V30 END BOND
M  V30 END CTAB
M  END
>  <Dataset>  (667) 
ChEMBL_Kinases

>  <Ligand_Instance>  (667) 
nan

>  <PDB_ID>  (667) 
nan

>  <Standardized_SMILES>  (667) 
Cc1ccccc1-c1nc2ccc(-c3cccc(N4CCOCC4)c3)nc2n1-c1ccc(C2(N)CCC2)cc1

>  <Name>  (667) 
nan

>  <Pocket>  (667) 
nan

>  <ATP_Site>  (667) 
nan

>  <Peripheral>  (667) 
nan

>  <Num_H_Atoms_ProtBoundConf>  (667) 
nan

>  <Num_Resolved_Atoms>  (667) 
nan

>  <Num_Not_Resolved_Atoms>  (667) 
nan

$$$$
CHEMBL3649667
     RDKit          3D

  0  0  0  0  0  0  0  0  0  0999 V3000
M  V30 BEGIN CTAB
M  V30 COUNTS 75 81 0 0 0
M  V30 BEGIN ATOM
M  V30 1 N 1.332622 2.065475 4.829654 0
M  V30 2 C 2.214637 1.277465 3.994739 0
M  V30 3 C 1.683715 1.147561 2.625598 0
M  V30 4 C 2.437210 1.071316 1.455530 0
M  V30 5 C 1.839616 0.951062 0.213363 0
M  V30 6 C 0.440363 0.902800 0.114533 0
M  V30 7 N 0.007070 0.783189 -1.233067 0
M  V30 8 C 0.056559 1.838207 -2.055227 0
M  V30 9 C 0.499681 3.224946 -1.925209 0
M  V30 10 C -0.623067 4.198438 -1.638300 0
M  V30 11 C -1.719738 4.123603 -2.660532 0
M  V30 12 C -1.227008 4.134746 -4.072824 0
M  V30 13 C 0.224660 4.109189 -4.287016 0
M  V30 14 C 1.131145 3.747470 -3.179122 0
M  V30 15 N -0.420695 1.396122 -3.238384 0
M  V30 16 C -0.750450 0.110851 -3.138968 0
M  V30 17 C -1.267301 -0.830098 -3.998665 0
M  V30 18 C -1.481309 -2.107103 -3.526014 0
M  V30 19 C -1.217018 -2.527992 -2.242205 0
M  V30 20 C -1.471616 -3.885648 -1.772157 0
M  V30 21 C -1.989098 -4.865378 -2.632322 0
M  V30 22 C -2.200309 -6.099922 -2.057230 0
M  V30 23 C -1.945108 -6.417778 -0.742146 0
M  V30 24 C -1.442023 -5.406251 0.031649 0
M  V30 25 N -1.186745 -5.728130 1.417553 0
M  V30 26 C -1.534768 -6.981188 2.058055 0
M  V30 27 C -2.150201 -6.631491 3.414048 0
M  V30 28 O -2.654487 -5.328333 3.413665 0
M  V30 29 C -1.615704 -4.398300 3.363855 0
M  V30 30 C -0.545726 -4.858376 2.385118 0
M  V30 31 C -1.193644 -4.153059 -0.427717 0
M  V30 32 N -0.711131 -1.576776 -1.430886 0
M  V30 33 C -0.483920 -0.308827 -1.852672 0
M  V30 34 C -0.320132 0.976750 1.270517 0
M  V30 35 C 0.306027 1.096852 2.495665 0
M  V30 36 C 2.480917 -0.063695 4.691880 0
M  V30 37 C 3.943143 0.110293 4.297653 0
M  V30 38 C 3.679942 1.606148 4.124185 0
M  V30 39 H 1.893944 2.510750 5.601855 0
M  V30 40 H 0.675612 1.402789 5.297051 0
M  V30 41 H 3.509559 1.112651 1.576484 0
M  V30 42 H 2.536148 0.902781 -0.621233 0
M  V30 43 H 1.221618 3.378335 -1.090505 0
M  V30 44 H -1.063637 4.120933 -0.647524 0
M  V30 45 H -0.155522 5.204588 -1.716171 0
M  V30 46 H -2.290395 3.178906 -2.494128 0
M  V30 47 H -2.439532 4.941289 -2.447213 0
M  V30 48 H -1.634847 5.087878 -4.534103 0
M  V30 49 H -1.776396 3.357969 -4.678995 0
M  V30 50 H 0.421182 3.383658 -5.134112 0
M  V30 51 H 0.594654 5.085011 -4.730628 0
M  V30 52 H 1.723296 4.657008 -2.852407 0
M  V30 53 H 1.941435 3.038621 -3.506098 0
M  V30 54 H -1.481656 -0.519255 -5.008896 0
M  V30 55 H -1.885876 -2.772973 -4.261065 0
M  V30 56 H -2.204257 -4.660452 -3.668283 0
M  V30 57 H -2.600623 -6.840264 -2.751944 0
M  V30 58 H -2.168395 -7.425420 -0.470801 0
M  V30 59 H -0.669249 -7.632451 2.262187 0
M  V30 60 H -2.357935 -7.515241 1.520659 0
M  V30 61 H -2.980122 -7.299163 3.669928 0
M  V30 62 H -1.368784 -6.695242 4.192650 0
M  V30 63 H -2.040436 -3.424736 3.129143 0
M  V30 64 H -1.178134 -4.344281 4.375384 0
M  V30 65 H -0.071056 -3.972540 1.964950 0
M  V30 66 H 0.226198 -5.399998 2.987781 0
M  V30 67 H -0.797315 -3.353051 0.179716 0
M  V30 68 H -1.369660 0.930557 1.092850 0
M  V30 69 H -0.382050 1.147318 3.326764 0
M  V30 70 H 1.988785 -0.917974 4.208849 0
M  V30 71 H 2.321164 -0.033928 5.779521 0
M  V30 72 H 4.246169 -0.413481 3.375385 0
M  V30 73 H 4.603380 -0.160247 5.134763 0
M  V30 74 H 4.176936 2.046355 3.260484 0
M  V30 75 H 3.865806 2.108044 5.091952 0
M  V30 END ATOM
M  V30 BEGIN BOND
M  V30 1 1 1 2
M  V30 2 1 2 3
M  V30 3 2 3 4
M  V30 4 1 4 5
M  V30 5 2 5 6
M  V30 6 1 6 7
M  V30 7 1 7 8
M  V30 8 1 8 9
M  V30 9 1 9 10
M  V30 10 1 10 11
M  V30 11 1 11 12
M  V30 12 1 12 13
M  V30 13 1 13 14
M  V30 14 2 8 15
M  V30 15 1 15 16
M  V30 16 2 16 17
M  V30 17 1 17 18
M  V30 18 2 18 19
M  V30 19 1 19 20
M  V30 20 2 20 21
M  V30 21 1 21 22
M  V30 22 2 22 23
M  V30 23 1 23 24
M  V30 24 1 24 25
M  V30 25 1 25 26
M  V30 26 1 26 27
M  V30 27 1 27 28
M  V30 28 1 28 29
M  V30 29 1 29 30
M  V30 30 2 24 31
M  V30 31 1 19 32
M  V30 32 2 32 33
M  V30 33 1 6 34
M  V30 34 2 34 35
M  V30 35 1 2 36
M  V30 36 1 36 37
M  V30 37 1 37 38
M  V30 38 1 38 2
M  V30 39 1 35 3
M  V30 40 1 33 7
M  V30 41 1 14 9
M  V30 42 1 33 16
M  V30 43 1 31 20
M  V30 44 1 30 25
M  V30 45 1 1 39
M  V30 46 1 1 40
M  V30 47 1 4 41
M  V30 48 1 5 42
M  V30 49 1 9 43
M  V30 50 1 10 44
M  V30 51 1 10 45
M  V30 52 1 11 46
M  V30 53 1 11 47
M  V30 54 1 12 48
M  V30 55 1 12 49
M  V30 56 1 13 50
M  V30 57 1 13 51
M  V30 58 1 14 52
M  V30 59 1 14 53
M  V30 60 1 17 54
M  V30 61 1 18 55
M  V30 62 1 21 56
M  V30 63 1 22 57
M  V30 64 1 23 58
M  V30 65 1 26 59
M  V30 66 1 26 60
M  V30 67 1 27 61
M  V30 68 1 27 62
M  V30 69 1 29 63
M  V30 70 1 29 64
M  V30 71 1 30 65
M  V30 72 1 30 66
M  V30 73 1 31 67
M  V30 74 1 34 68
M  V30 75 1 35 69
M  V30 76 1 36 70
M  V30 77 1 36 71
M  V30 78 1 37 72
M  V30 79 1 37 73
M  V30 80 1 38 74
M  V30 81 1 38 75
M  V30 END BOND
M  V30 END CTAB
M  END
>  <Dataset>  (668) 
ChEMBL_Kinases

>  <Ligand_Instance>  (668) 
nan

>  <PDB_ID>  (668) 
nan

>  <Standardized_SMILES>  (668) 
NC1(c2ccc(-n3c(C4CCCCC4)nc4ccc(-c5cccc(N6CCOCC6)c5)nc43)cc2)CCC1

>  <Name>  (668) 
nan

>  <Pocket>  (668) 
nan

>  <ATP_Site>  (668) 
nan

>  <Peripheral>  (668) 
nan

>  <Num_H_Atoms_ProtBoundConf>  (668) 
nan

>  <Num_Resolved_Atoms>  (668) 
nan

>  <Num_Not_Resolved_Atoms>  (668) 
nan

$$$$
CHEMBL3649668
     RDKit          3D

  0  0  0  0  0  0  0  0  0  0999 V3000
M  V30 BEGIN CTAB
M  V30 COUNTS 66 72 0 0 0
M  V30 BEGIN ATOM
M  V30 1 N 4.579434 -2.680415 1.809036 0
M  V30 2 C 3.206256 -2.454389 2.223320 0
M  V30 3 C 2.638063 -1.174854 1.773216 0
M  V30 4 C 1.966802 -0.205793 2.488174 0
M  V30 5 C 1.506736 0.940773 1.868691 0
M  V30 6 C 1.708110 1.152890 0.498120 0
M  V30 7 N 1.139232 2.397507 0.112919 0
M  V30 8 C 1.695334 3.602212 0.022390 0
M  V30 9 C 3.076740 3.993366 0.281067 0
M  V30 10 C 4.145146 3.120665 0.747986 0
M  V30 11 C 4.055988 3.341034 -0.731549 0
M  V30 12 N 0.697889 4.411125 -0.377192 0
M  V30 13 C -0.432517 3.737994 -0.529534 0
M  V30 14 C -1.683949 4.164985 -0.919786 0
M  V30 15 C -2.674619 3.178375 -0.978389 0
M  V30 16 C -2.432269 1.859169 -0.669111 0
M  V30 17 C -3.473894 0.839445 -0.735703 0
M  V30 18 C -4.776376 1.088349 -1.104492 0
M  V30 19 C -5.728992 0.067485 -1.150363 0
M  V30 20 C -5.354544 -1.220892 -0.817909 0
M  V30 21 C -4.058948 -1.502581 -0.444771 0
M  V30 22 N -3.736448 -2.846357 -0.117489 0
M  V30 23 C -4.642902 -3.947339 -0.181723 0
M  V30 24 C -3.832039 -5.190893 -0.559481 0
M  V30 25 O -2.834623 -4.818669 -1.484534 0
M  V30 26 C -1.841519 -4.070713 -0.852580 0
M  V30 27 C -2.443977 -3.319560 0.334145 0
M  V30 28 C -3.162123 -0.470602 -0.414738 0
M  V30 29 N -1.182701 1.527691 -0.297281 0
M  V30 30 C -0.181113 2.423192 -0.218777 0
M  V30 31 C 2.379696 0.181479 -0.213675 0
M  V30 32 C 2.828626 -0.952442 0.425630 0
M  V30 33 C 3.032216 -2.774673 3.687426 0
M  V30 34 C 2.827634 -4.225437 3.292749 0
M  V30 35 C 2.390585 -3.695771 1.919819 0
M  V30 36 H 4.540526 -3.069381 0.827072 0
M  V30 37 H 4.956061 -3.442689 2.415434 0
M  V30 38 H 1.850475 -0.438586 3.537586 0
M  V30 39 H 0.992912 1.612920 2.575204 0
M  V30 40 H 3.239876 5.107342 0.310296 0
M  V30 41 H 5.040762 3.654834 1.189986 0
M  V30 42 H 4.031031 2.123125 1.165453 0
M  V30 43 H 3.715950 2.493641 -1.323361 0
M  V30 44 H 4.774364 4.005337 -1.254065 0
M  V30 45 H -1.859593 5.198478 -1.158350 0
M  V30 46 H -3.643434 3.521729 -1.282800 0
M  V30 47 H -5.074322 2.093675 -1.365250 0
M  V30 48 H -6.731943 0.357942 -1.452428 0
M  V30 49 H -6.170527 -1.908390 -0.891327 0
M  V30 50 H -5.510853 -3.819274 -0.825814 0
M  V30 51 H -4.955131 -4.151103 0.884629 0
M  V30 52 H -3.342043 -5.651562 0.318711 0
M  V30 53 H -4.493389 -5.925696 -1.064456 0
M  V30 54 H -1.043440 -4.747036 -0.524199 0
M  V30 55 H -1.442878 -3.351655 -1.575549 0
M  V30 56 H -2.508231 -3.999858 1.211821 0
M  V30 57 H -1.761559 -2.507975 0.637534 0
M  V30 58 H -2.152716 -0.669649 -0.127524 0
M  V30 59 H 2.469609 0.457887 -1.253633 0
M  V30 60 H 3.340083 -1.624097 -0.271930 0
M  V30 61 H 2.099414 -2.367758 4.106594 0
M  V30 62 H 3.928021 -2.581218 4.308037 0
M  V30 63 H 3.739312 -4.851321 3.260937 0
M  V30 64 H 2.008321 -4.698124 3.863491 0
M  V30 65 H 1.303000 -3.537449 1.848028 0
M  V30 66 H 2.816189 -4.334746 1.141498 0
M  V30 END ATOM
M  V30 BEGIN BOND
M  V30 1 1 1 2
M  V30 2 1 2 3
M  V30 3 2 3 4
M  V30 4 1 4 5
M  V30 5 2 5 6
M  V30 6 1 6 7
M  V30 7 1 7 8
M  V30 8 1 8 9
M  V30 9 1 9 10
M  V30 10 1 10 11
M  V30 11 2 8 12
M  V30 12 1 12 13
M  V30 13 2 13 14
M  V30 14 1 14 15
M  V30 15 2 15 16
M  V30 16 1 16 17
M  V30 17 2 17 18
M  V30 18 1 18 19
M  V30 19 2 19 20
M  V30 20 1 20 21
M  V30 21 1 21 22
M  V30 22 1 22 23
M  V30 23 1 23 24
M  V30 24 1 24 25
M  V30 25 1 25 26
M  V30 26 1 26 27
M  V30 27 2 21 28
M  V30 28 1 16 29
M  V30 29 2 29 30
M  V30 30 1 6 31
M  V30 31 2 31 32
M  V30 32 1 2 33
M  V30 33 1 33 34
M  V30 34 1 34 35
M  V30 35 1 35 2
M  V30 36 1 32 3
M  V30 37 1 30 7
M  V30 38 1 11 9
M  V30 39 1 30 13
M  V30 40 1 28 17
M  V30 41 1 27 22
M  V30 42 1 1 36
M  V30 43 1 1 37
M  V30 44 1 4 38
M  V30 45 1 5 39
M  V30 46 1 9 40
M  V30 47 1 10 41
M  V30 48 1 10 42
M  V30 49 1 11 43
M  V30 50 1 11 44
M  V30 51 1 14 45
M  V30 52 1 15 46
M  V30 53 1 18 47
M  V30 54 1 19 48
M  V30 55 1 20 49
M  V30 56 1 23 50
M  V30 57 1 23 51
M  V30 58 1 24 52
M  V30 59 1 24 53
M  V30 60 1 26 54
M  V30 61 1 26 55
M  V30 62 1 27 56
M  V30 63 1 27 57
M  V30 64 1 28 58
M  V30 65 1 31 59
M  V30 66 1 32 60
M  V30 67 1 33 61
M  V30 68 1 33 62
M  V30 69 1 34 63
M  V30 70 1 34 64
M  V30 71 1 35 65
M  V30 72 1 35 66
M  V30 END BOND
M  V30 END CTAB
M  END
>  <Dataset>  (669) 
ChEMBL_Kinases

>  <Ligand_Instance>  (669) 
nan

>  <PDB_ID>  (669) 
nan

>  <Standardized_SMILES>  (669) 
NC1(c2ccc(-n3c(C4CC4)nc4ccc(-c5cccc(N6CCOCC6)c5)nc43)cc2)CCC1

>  <Name>  (669) 
nan

>  <Pocket>  (669) 
nan

>  <ATP_Site>  (669) 
nan

>  <Peripheral>  (669) 
nan

>  <Num_H_Atoms_ProtBoundConf>  (669) 
nan

>  <Num_Resolved_Atoms>  (669) 
nan

>  <Num_Not_Resolved_Atoms>  (669) 
nan

$$$$
CHEMBL3649669
     RDKit          3D

  0  0  0  0  0  0  0  0  0  0999 V3000
M  V30 BEGIN CTAB
M  V30 COUNTS 56 61 0 0 0
M  V30 BEGIN ATOM
M  V30 1 N 3.586264 -1.140475 4.857153 0
M  V30 2 C 2.708809 -2.253624 4.565631 0
M  V30 3 N 2.941586 -3.231010 5.448371 0
M  V30 4 C 2.302258 -4.396449 5.460246 0
M  V30 5 N 1.384287 -4.542073 4.510471 0
M  V30 6 C 1.148035 -3.563396 3.622970 0
M  V30 7 Cl -0.070911 -3.961534 2.491398 0
M  V30 8 C 1.761574 -2.366289 3.561782 0
M  V30 9 C 1.651274 -1.233445 2.719617 0
M  V30 10 N 2.419069 -0.161784 2.912850 0
M  V30 11 C 2.201213 0.825679 2.040584 0
M  V30 12 C 2.853956 2.049554 2.006870 0
M  V30 13 C 2.442342 2.904759 0.998360 0
M  V30 14 C 1.451191 2.468424 0.149491 0
M  V30 15 C 0.962616 3.308795 -0.937080 0
M  V30 16 C 1.441926 4.573870 -1.193743 0
M  V30 17 C 0.986048 5.378545 -2.220678 0
M  V30 18 C -0.012704 4.889301 -3.044853 0
M  V30 19 C -0.539493 3.635656 -2.849328 0
M  V30 20 C -0.028995 2.893408 -1.799904 0
M  V30 21 N 0.892645 1.255234 0.283368 0
M  V30 22 C 1.210758 0.347664 1.218887 0
M  V30 23 N 0.940644 -0.881593 1.690310 0
M  V30 24 C -0.071769 -1.466011 0.911092 0
M  V30 25 C -1.414080 -1.239140 1.278543 0
M  V30 26 C -2.385335 -1.777524 0.440925 0
M  V30 27 C -2.025150 -2.497504 -0.692941 0
M  V30 28 C -3.160557 -2.989973 -1.457027 0
M  V30 29 N -4.171331 -1.965074 -1.641972 0
M  V30 30 C -2.943092 -3.775377 -2.692625 0
M  V30 31 C -3.683826 -4.952415 -2.102949 0
M  V30 32 C -3.703891 -4.254540 -0.783216 0
M  V30 33 C -0.706634 -2.682552 -0.994506 0
M  V30 34 C 0.334248 -2.189556 -0.228756 0
M  V30 35 H 3.623655 -0.250551 5.402221 0
M  V30 36 H 3.323373 -0.342409 5.485230 0
M  V30 37 H 2.512323 -5.164365 6.184647 0
M  V30 38 H 3.611344 2.280566 2.720361 0
M  V30 39 H 2.908105 3.863141 0.920443 0
M  V30 40 H 2.207254 4.997837 -0.593245 0
M  V30 41 H 1.370367 6.365931 -2.409410 0
M  V30 42 H -0.386746 5.510226 -3.862562 0
M  V30 43 H -1.320929 3.240086 -3.486084 0
M  V30 44 H -0.474653 1.904024 -1.679550 0
M  V30 45 H -1.589495 -0.668133 2.176911 0
M  V30 46 H -3.401535 -1.584429 0.752621 0
M  V30 47 H -4.706484 -2.086873 -2.524599 0
M  V30 48 H -3.779714 -1.005949 -1.523232 0
M  V30 49 H -1.936804 -3.974397 -3.055103 0
M  V30 50 H -3.549901 -3.411941 -3.573792 0
M  V30 51 H -3.045396 -5.882430 -2.138618 0
M  V30 52 H -4.656464 -5.202180 -2.528062 0
M  V30 53 H -3.007471 -4.739983 -0.072484 0
M  V30 54 H -4.696893 -4.119377 -0.312605 0
M  V30 55 H -0.454767 -3.236322 -1.866400 0
M  V30 56 H 1.371362 -2.307882 -0.423187 0
M  V30 END ATOM
M  V30 BEGIN BOND
M  V30 1 1 1 2
M  V30 2 2 2 3
M  V30 3 1 3 4
M  V30 4 2 4 5
M  V30 5 1 5 6
M  V30 6 1 6 7
M  V30 7 2 6 8
M  V30 8 1 8 9
M  V30 9 2 9 10
M  V30 10 1 10 11
M  V30 11 2 11 12
M  V30 12 1 12 13
M  V30 13 2 13 14
M  V30 14 1 14 15
M  V30 15 2 15 16
M  V30 16 1 16 17
M  V30 17 2 17 18
M  V30 18 1 18 19
M  V30 19 2 19 20
M  V30 20 1 14 21
M  V30 21 2 21 22
M  V30 22 1 22 23
M  V30 23 1 23 24
M  V30 24 2 24 25
M  V30 25 1 25 26
M  V30 26 2 26 27
M  V30 27 1 27 28
M  V30 28 1 28 29
M  V30 29 1 28 30
M  V30 30 1 30 31
M  V30 31 1 31 32
M  V30 32 1 27 33
M  V30 33 2 33 34
M  V30 34 1 8 2
M  V30 35 1 23 9
M  V30 36 1 34 24
M  V30 37 1 22 11
M  V30 38 1 32 28
M  V30 39 1 20 15
M  V30 40 1 1 35
M  V30 41 1 1 36
M  V30 42 1 4 37
M  V30 43 1 12 38
M  V30 44 1 13 39
M  V30 45 1 16 40
M  V30 46 1 17 41
M  V30 47 1 18 42
M  V30 48 1 19 43
M  V30 49 1 20 44
M  V30 50 1 25 45
M  V30 51 1 26 46
M  V30 52 1 29 47
M  V30 53 1 29 48
M  V30 54 1 30 49
M  V30 55 1 30 50
M  V30 56 1 31 51
M  V30 57 1 31 52
M  V30 58 1 32 53
M  V30 59 1 32 54
M  V30 60 1 33 55
M  V30 61 1 34 56
M  V30 END BOND
M  V30 END CTAB
M  END
>  <Dataset>  (670) 
ChEMBL_Kinases

>  <Ligand_Instance>  (670) 
nan

>  <PDB_ID>  (670) 
nan

>  <Standardized_SMILES>  (670) 
Nc1ncnc(Cl)c1-c1nc2ccc(-c3ccccc3)nc2n1-c1ccc(C2(N)CCC2)cc1

>  <Name>  (670) 
nan

>  <Pocket>  (670) 
nan

>  <ATP_Site>  (670) 
nan

>  <Peripheral>  (670) 
nan

>  <Num_H_Atoms_ProtBoundConf>  (670) 
nan

>  <Num_Resolved_Atoms>  (670) 
nan

>  <Num_Not_Resolved_Atoms>  (670) 
nan

$$$$
CHEMBL3649670
     RDKit          3D

  0  0  0  0  0  0  0  0  0  0999 V3000
M  V30 BEGIN CTAB
M  V30 COUNTS 58 63 0 0 0
M  V30 BEGIN ATOM
M  V30 1 C 4.068849 -5.365159 4.065646 0
M  V30 2 N 3.176050 -4.514966 3.309504 0
M  V30 3 C 3.172905 -3.180800 3.198830 0
M  V30 4 C 2.158607 -2.708076 2.379359 0
M  V30 5 C 1.952054 -1.306570 2.105506 0
M  V30 6 N 2.710186 -0.321253 2.610272 0
M  V30 7 C 2.312587 0.891410 2.204930 0
M  V30 8 C 2.848849 2.121655 2.519309 0
M  V30 9 C 2.216682 3.211924 1.943493 0
M  V30 10 C 1.127618 3.026020 1.118266 0
M  V30 11 C 0.422230 4.133657 0.486771 0
M  V30 12 C -0.659224 3.860585 -0.324343 0
M  V30 13 C -1.414025 4.815356 -0.980107 0
M  V30 14 C -1.040448 6.132328 -0.795844 0
M  V30 15 C 0.031655 6.470574 0.002829 0
M  V30 16 C 0.749224 5.460175 0.634407 0
M  V30 17 N 0.673319 1.785052 0.867906 0
M  V30 18 C 1.225834 0.670792 1.384180 0
M  V30 19 N 1.058961 -0.663908 1.364001 0
M  V30 20 C 0.005412 -1.143301 0.588488 0
M  V30 21 C -1.285776 -1.307728 1.111589 0
M  V30 22 C -2.250565 -1.766723 0.234627 0
M  V30 23 C -1.962995 -2.054545 -1.105010 0
M  V30 24 C -3.154658 -2.527203 -1.827277 0
M  V30 25 N -4.341943 -1.761087 -1.497908 0
M  V30 26 C -2.999327 -2.879396 -3.269745 0
M  V30 27 C -2.684146 -4.296414 -2.846590 0
M  V30 28 C -3.418758 -4.008935 -1.539960 0
M  V30 29 C -0.679966 -1.876897 -1.571138 0
M  V30 30 C 0.324600 -1.417084 -0.726717 0
M  V30 31 C 1.559923 -3.882902 2.013612 0
M  V30 32 N 0.443824 -4.015968 1.165005 0
M  V30 33 N 2.150819 -4.936643 2.554215 0
M  V30 34 H 3.767574 -5.449306 5.132865 0
M  V30 35 H 5.128450 -5.016330 3.987577 0
M  V30 36 H 4.007825 -6.386285 3.636719 0
M  V30 37 H 3.941007 -2.608918 3.744203 0
M  V30 38 H 3.702079 2.191877 3.171805 0
M  V30 39 H 2.593550 4.201750 2.154388 0
M  V30 40 H -0.996701 2.838677 -0.504456 0
M  V30 41 H -2.256839 4.572810 -1.609821 0
M  V30 42 H -1.601673 6.938414 -1.289674 0
M  V30 43 H 0.365407 7.495848 0.179746 0
M  V30 44 H 1.589642 5.723526 1.260413 0
M  V30 45 H -1.487737 -1.079578 2.150594 0
M  V30 46 H -3.237959 -1.871684 0.713016 0
M  V30 47 H -4.737478 -2.216675 -0.629437 0
M  V30 48 H -4.104324 -0.765409 -1.334094 0
M  V30 49 H -2.182705 -2.336260 -3.764253 0
M  V30 50 H -3.917773 -2.762840 -3.877036 0
M  V30 51 H -3.213395 -5.042286 -3.448117 0
M  V30 52 H -1.622644 -4.457770 -2.618227 0
M  V30 53 H -4.489206 -4.288980 -1.628967 0
M  V30 54 H -2.891972 -4.336384 -0.644234 0
M  V30 55 H -0.538795 -2.116081 -2.595717 0
M  V30 56 H 1.293508 -1.301521 -1.148540 0
M  V30 57 H 0.066903 -4.303837 0.235600 0
M  V30 58 H 0.069504 -4.304578 0.234805 0
M  V30 END ATOM
M  V30 BEGIN BOND
M  V30 1 1 1 2
M  V30 2 1 2 3
M  V30 3 2 3 4
M  V30 4 1 4 5
M  V30 5 2 5 6
M  V30 6 1 6 7
M  V30 7 2 7 8
M  V30 8 1 8 9
M  V30 9 2 9 10
M  V30 10 1 10 11
M  V30 11 2 11 12
M  V30 12 1 12 13
M  V30 13 2 13 14
M  V30 14 1 14 15
M  V30 15 2 15 16
M  V30 16 1 10 17
M  V30 17 2 17 18
M  V30 18 1 18 19
M  V30 19 1 19 20
M  V30 20 2 20 21
M  V30 21 1 21 22
M  V30 22 2 22 23
M  V30 23 1 23 24
M  V30 24 1 24 25
M  V30 25 1 24 26
M  V30 26 1 26 27
M  V30 27 1 27 28
M  V30 28 1 23 29
M  V30 29 2 29 30
M  V30 30 1 4 31
M  V30 31 1 31 32
M  V30 32 2 31 33
M  V30 33 1 33 2
M  V30 34 1 19 5
M  V30 35 1 30 20
M  V30 36 1 18 7
M  V30 37 1 28 24
M  V30 38 1 16 11
M  V30 39 1 1 34
M  V30 40 1 1 35
M  V30 41 1 1 36
M  V30 42 1 3 37
M  V30 43 1 8 38
M  V30 44 1 9 39
M  V30 45 1 12 40
M  V30 46 1 13 41
M  V30 47 1 14 42
M  V30 48 1 15 43
M  V30 49 1 16 44
M  V30 50 1 21 45
M  V30 51 1 22 46
M  V30 52 1 25 47
M  V30 53 1 25 48
M  V30 54 1 26 49
M  V30 55 1 26 50
M  V30 56 1 27 51
M  V30 57 1 27 52
M  V30 58 1 28 53
M  V30 59 1 28 54
M  V30 60 1 29 55
M  V30 61 1 30 56
M  V30 62 1 32 57
M  V30 63 1 32 58
M  V30 END BOND
M  V30 END CTAB
M  END
>  <Dataset>  (671) 
ChEMBL_Kinases

>  <Ligand_Instance>  (671) 
nan

>  <PDB_ID>  (671) 
nan

>  <Standardized_SMILES>  (671) 
Cn1cc(-c2nc3ccc(-c4ccccc4)nc3n2-c2ccc(C3(N)CCC3)cc2)c(N)n1

>  <Name>  (671) 
nan

>  <Pocket>  (671) 
nan

>  <ATP_Site>  (671) 
nan

>  <Peripheral>  (671) 
nan

>  <Num_H_Atoms_ProtBoundConf>  (671) 
nan

>  <Num_Resolved_Atoms>  (671) 
nan

>  <Num_Not_Resolved_Atoms>  (671) 
nan

$$$$
CHEMBL3649671
     RDKit          3D

  0  0  0  0  0  0  0  0  0  0999 V3000
M  V30 BEGIN CTAB
M  V30 COUNTS 56 61 0 0 0
M  V30 BEGIN ATOM
M  V30 1 N 0.802532 -1.105238 5.984374 0
M  V30 2 C 0.235916 -2.157079 5.214147 0
M  V30 3 N -0.052139 -3.318346 5.822822 0
M  V30 4 C -0.590689 -4.333537 5.115358 0
M  V30 5 C -0.858632 -4.206478 3.754160 0
M  V30 6 N -0.556847 -3.019133 3.163215 0
M  V30 7 C -0.019291 -2.004040 3.866529 0
M  V30 8 C 0.306496 -0.727049 3.236301 0
M  V30 9 N 0.844331 0.312951 3.901168 0
M  V30 10 C 1.025616 1.347641 3.032956 0
M  V30 11 C 1.508991 2.632274 3.071746 0
M  V30 12 C 1.515339 3.376970 1.910157 0
M  V30 13 C 1.066174 2.927147 0.686353 0
M  V30 14 C 1.088298 3.743452 -0.521460 0
M  V30 15 C 1.549983 5.036080 -0.589212 0
M  V30 16 C 1.537071 5.743225 -1.774253 0
M  V30 17 C 1.051911 5.155098 -2.932990 0
M  V30 18 C 0.583197 3.856461 -2.886026 0
M  V30 19 C 0.610805 3.178988 -1.684819 0
M  V30 20 N 0.600110 1.662032 0.691253 0
M  V30 21 C 0.578377 0.905652 1.804982 0
M  V30 22 N 0.136813 -0.379047 1.947041 0
M  V30 23 C -0.394386 -1.184021 0.935651 0
M  V30 24 C -1.672654 -1.698355 0.839000 0
M  V30 25 C -2.082764 -2.487290 -0.216943 0
M  V30 26 C -1.181240 -2.790251 -1.242359 0
M  V30 27 C -1.717034 -3.643759 -2.330803 0
M  V30 28 N -3.092985 -3.432835 -2.686959 0
M  V30 29 C -1.480161 -5.111971 -1.985219 0
M  V30 30 C -0.323110 -5.113153 -2.966285 0
M  V30 31 C -0.846178 -3.827968 -3.523890 0
M  V30 32 C 0.102663 -2.290981 -1.173751 0
M  V30 33 C 0.470034 -1.502369 -0.093318 0
M  V30 34 H 0.017430 -0.461366 6.265114 0
M  V30 35 H 1.777467 -0.881968 6.291882 0
M  V30 36 H -0.798536 -5.250237 5.680331 0
M  V30 37 H -1.289952 -5.042021 3.223454 0
M  V30 38 H 1.865700 3.004005 4.020501 0
M  V30 39 H 1.905908 4.373399 2.007843 0
M  V30 40 H 1.925290 5.492093 0.305460 0
M  V30 41 H 1.926967 6.770438 -1.728609 0
M  V30 42 H 1.094059 5.809115 -3.795124 0
M  V30 43 H 0.218053 3.453046 -3.820760 0
M  V30 44 H 0.239386 2.161933 -1.666810 0
M  V30 45 H -2.328814 -1.423201 1.675102 0
M  V30 46 H -3.100111 -2.851765 -0.220154 0
M  V30 47 H -3.359509 -2.442427 -2.532470 0
M  V30 48 H -3.730376 -4.132129 -2.249579 0
M  V30 49 H -2.323678 -5.775056 -2.274545 0
M  V30 50 H -1.125975 -5.291813 -0.951761 0
M  V30 51 H -0.417768 -6.007052 -3.628456 0
M  V30 52 H 0.688694 -5.084557 -2.517889 0
M  V30 53 H -0.120524 -3.034895 -3.766232 0
M  V30 54 H -1.440990 -4.031837 -4.457702 0
M  V30 55 H 0.762666 -2.542977 -1.974067 0
M  V30 56 H 1.491571 -1.161665 -0.131614 0
M  V30 END ATOM
M  V30 BEGIN BOND
M  V30 1 1 1 2
M  V30 2 2 2 3
M  V30 3 1 3 4
M  V30 4 2 4 5
M  V30 5 1 5 6
M  V30 6 2 6 7
M  V30 7 1 7 8
M  V30 8 2 8 9
M  V30 9 1 9 10
M  V30 10 2 10 11
M  V30 11 1 11 12
M  V30 12 2 12 13
M  V30 13 1 13 14
M  V30 14 2 14 15
M  V30 15 1 15 16
M  V30 16 2 16 17
M  V30 17 1 17 18
M  V30 18 2 18 19
M  V30 19 1 13 20
M  V30 20 2 20 21
M  V30 21 1 21 22
M  V30 22 1 22 23
M  V30 23 2 23 24
M  V30 24 1 24 25
M  V30 25 2 25 26
M  V30 26 1 26 27
M  V30 27 1 27 28
M  V30 28 1 27 29
M  V30 29 1 29 30
M  V30 30 1 30 31
M  V30 31 1 26 32
M  V30 32 2 32 33
M  V30 33 1 7 2
M  V30 34 1 22 8
M  V30 35 1 33 23
M  V30 36 1 21 10
M  V30 37 1 31 27
M  V30 38 1 19 14
M  V30 39 1 1 34
M  V30 40 1 1 35
M  V30 41 1 4 36
M  V30 42 1 5 37
M  V30 43 1 11 38
M  V30 44 1 12 39
M  V30 45 1 15 40
M  V30 46 1 16 41
M  V30 47 1 17 42
M  V30 48 1 18 43
M  V30 49 1 19 44
M  V30 50 1 24 45
M  V30 51 1 25 46
M  V30 52 1 28 47
M  V30 53 1 28 48
M  V30 54 1 29 49
M  V30 55 1 29 50
M  V30 56 1 30 51
M  V30 57 1 30 52
M  V30 58 1 31 53
M  V30 59 1 31 54
M  V30 60 1 32 55
M  V30 61 1 33 56
M  V30 END BOND
M  V30 END CTAB
M  END
>  <Dataset>  (672) 
ChEMBL_Kinases

>  <Ligand_Instance>  (672) 
nan

>  <PDB_ID>  (672) 
nan

>  <Standardized_SMILES>  (672) 
Nc1nccnc1-c1nc2ccc(-c3ccccc3)nc2n1-c1ccc(C2(N)CCC2)cc1

>  <Name>  (672) 
nan

>  <Pocket>  (672) 
nan

>  <ATP_Site>  (672) 
nan

>  <Peripheral>  (672) 
nan

>  <Num_H_Atoms_ProtBoundConf>  (672) 
nan

>  <Num_Resolved_Atoms>  (672) 
nan

>  <Num_Not_Resolved_Atoms>  (672) 
nan

$$$$
CHEMBL3649672
     RDKit          3D

  0  0  0  0  0  0  0  0  0  0999 V3000
M  V30 BEGIN CTAB
M  V30 COUNTS 55 60 0 0 0
M  V30 BEGIN ATOM
M  V30 1 N -1.870898 1.503006 -3.467348 0
M  V30 2 C -0.739717 0.575597 -3.455984 0
M  V30 3 C -0.311158 0.204337 -2.103682 0
M  V30 4 C -0.140163 1.270702 -1.251360 0
M  V30 5 C 0.266365 1.078694 0.072655 0
M  V30 6 C 0.485141 -0.222365 0.476754 0
M  V30 7 N 0.899729 -0.358017 1.842446 0
M  V30 8 C 1.951523 0.326730 2.377515 0
M  V30 9 C 2.784688 1.282906 1.623090 0
M  V30 10 C 3.186200 2.533820 2.046176 0
M  V30 11 C 3.966363 3.315577 1.226576 0
M  V30 12 C 4.350892 2.868674 -0.005989 0
M  V30 13 N 3.948325 1.646384 -0.398409 0
M  V30 14 C 3.185257 0.836699 0.358367 0
M  V30 15 N 2.051492 -0.049441 3.685058 0
M  V30 16 C 1.092831 -0.944319 3.968493 0
M  V30 17 C 0.735799 -1.640383 5.107364 0
M  V30 18 C -0.347213 -2.517212 5.045647 0
M  V30 19 C -1.058842 -2.697764 3.878376 0
M  V30 20 C -2.201657 -3.601421 3.751705 0
M  V30 21 C -2.820123 -3.682756 2.521697 0
M  V30 22 C -3.906858 -4.510379 2.311283 0
M  V30 23 C -4.403415 -5.290759 3.361130 0
M  V30 24 C -3.773787 -5.204842 4.604433 0
M  V30 25 C -2.682751 -4.366016 4.793105 0
M  V30 26 N -0.680429 -2.002208 2.791485 0
M  V30 27 C 0.366950 -1.138064 2.805132 0
M  V30 28 C 0.324401 -1.316812 -0.348172 0
M  V30 29 C -0.077705 -1.086196 -1.647306 0
M  V30 30 C -0.947001 -0.526210 -4.440185 0
M  V30 31 C -0.287000 0.361205 -5.502240 0
M  V30 32 C 0.403706 1.071305 -4.346168 0
M  V30 33 H -2.562310 1.174289 -2.769665 0
M  V30 34 H -1.565309 2.474844 -3.262541 0
M  V30 35 H -0.305842 2.320260 -1.540858 0
M  V30 36 H 0.398371 1.930042 0.737872 0
M  V30 37 H 2.823994 2.795418 3.048528 0
M  V30 38 H 4.227951 4.278545 1.649595 0
M  V30 39 H 4.964718 3.514039 -0.620697 0
M  V30 40 H 2.952344 -0.113196 -0.110327 0
M  V30 41 H 1.290483 -1.497004 6.009676 0
M  V30 42 H -0.627783 -3.056701 5.919205 0
M  V30 43 H -2.524663 -3.125906 1.633421 0
M  V30 44 H -4.410109 -4.590658 1.350608 0
M  V30 45 H -5.255211 -5.935204 3.184031 0
M  V30 46 H -4.167644 -5.814509 5.410573 0
M  V30 47 H -2.217599 -4.316540 5.751510 0
M  V30 48 H 0.508475 -2.318496 0.015698 0
M  V30 49 H -0.226676 -1.888615 -2.357192 0
M  V30 50 H -2.036719 -0.707715 -4.617446 0
M  V30 51 H -0.360472 -1.437834 -4.342628 0
M  V30 52 H 0.443036 -0.178931 -6.151072 0
M  V30 53 H -0.952941 1.052536 -6.022098 0
M  V30 54 H 1.354198 0.602600 -4.037190 0
M  V30 55 H 0.443846 2.177329 -4.453397 0
M  V30 END ATOM
M  V30 BEGIN BOND
M  V30 1 1 1 2
M  V30 2 1 2 3
M  V30 3 2 3 4
M  V30 4 1 4 5
M  V30 5 2 5 6
M  V30 6 1 6 7
M  V30 7 1 7 8
M  V30 8 1 8 9
M  V30 9 2 9 10
M  V30 10 1 10 11
M  V30 11 2 11 12
M  V30 12 1 12 13
M  V30 13 2 13 14
M  V30 14 2 8 15
M  V30 15 1 15 16
M  V30 16 2 16 17
M  V30 17 1 17 18
M  V30 18 2 18 19
M  V30 19 1 19 20
M  V30 20 2 20 21
M  V30 21 1 21 22
M  V30 22 2 22 23
M  V30 23 1 23 24
M  V30 24 2 24 25
M  V30 25 1 19 26
M  V30 26 2 26 27
M  V30 27 1 6 28
M  V30 28 2 28 29
M  V30 29 1 2 30
M  V30 30 1 30 31
M  V30 31 1 31 32
M  V30 32 1 32 2
M  V30 33 1 29 3
M  V30 34 1 27 7
M  V30 35 1 14 9
M  V30 36 1 27 16
M  V30 37 1 25 20
M  V30 38 1 1 33
M  V30 39 1 1 34
M  V30 40 1 4 35
M  V30 41 1 5 36
M  V30 42 1 10 37
M  V30 43 1 11 38
M  V30 44 1 12 39
M  V30 45 1 14 40
M  V30 46 1 17 41
M  V30 47 1 18 42
M  V30 48 1 21 43
M  V30 49 1 22 44
M  V30 50 1 23 45
M  V30 51 1 24 46
M  V30 52 1 25 47
M  V30 53 1 28 48
M  V30 54 1 29 49
M  V30 55 1 30 50
M  V30 56 1 30 51
M  V30 57 1 31 52
M  V30 58 1 31 53
M  V30 59 1 32 54
M  V30 60 1 32 55
M  V30 END BOND
M  V30 END CTAB
M  END
>  <Dataset>  (673) 
ChEMBL_Kinases

>  <Ligand_Instance>  (673) 
nan

>  <PDB_ID>  (673) 
nan

>  <Standardized_SMILES>  (673) 
NC1(c2ccc(-n3c(-c4cccnc4)nc4ccc(-c5ccccc5)nc43)cc2)CCC1

>  <Name>  (673) 
nan

>  <Pocket>  (673) 
nan

>  <ATP_Site>  (673) 
nan

>  <Peripheral>  (673) 
nan

>  <Num_H_Atoms_ProtBoundConf>  (673) 
nan

>  <Num_Resolved_Atoms>  (673) 
nan

>  <Num_Not_Resolved_Atoms>  (673) 
nan

$$$$
CHEMBL3649673
     RDKit          3D

  0  0  0  0  0  0  0  0  0  0999 V3000
M  V30 BEGIN CTAB
M  V30 COUNTS 56 61 0 0 0
M  V30 BEGIN ATOM
M  V30 1 N -0.737453 0.912629 -4.072660 0
M  V30 2 C 0.192654 -0.094488 -3.607128 0
M  V30 3 C 0.325797 -0.253379 -2.156519 0
M  V30 4 C 0.574467 0.931189 -1.462796 0
M  V30 5 C 0.723839 0.927453 -0.072833 0
M  V30 6 C 0.624516 -0.260015 0.622020 0
M  V30 7 N 0.745371 -0.460303 2.015039 0
M  V30 8 C 1.776742 -0.262758 2.846134 0
M  V30 9 C 3.055210 0.249066 2.328277 0
M  V30 10 C 3.477289 1.566502 2.534685 0
M  V30 11 C 4.681641 2.014457 2.035600 0
M  V30 12 C 5.509497 1.160801 1.310846 0
M  V30 13 C 5.094170 -0.146433 1.104166 0
M  V30 14 C 3.875563 -0.617187 1.603410 0
M  V30 15 N 1.449675 -0.588984 4.111044 0
M  V30 16 C 0.166653 -1.017526 4.137154 0
M  V30 17 C -0.702800 -1.470913 5.099989 0
M  V30 18 C -1.973204 -1.822518 4.704177 0
M  V30 19 C -2.413132 -1.743292 3.401635 0
M  V30 20 C -3.745234 -2.105972 2.951834 0
M  V30 21 C -4.011754 -1.961938 1.605891 0
M  V30 22 C -5.297873 -2.315438 1.190973 0
M  V30 23 C -6.311318 -2.790468 2.003295 0
M  V30 24 C -5.981472 -2.912483 3.342925 0
M  V30 25 C -4.715330 -2.574910 3.811905 0
M  V30 26 N -1.527274 -1.294305 2.495752 0
M  V30 27 C -0.251394 -0.929565 2.825891 0
M  V30 28 C 0.376066 -1.448134 -0.064840 0
M  V30 29 C 0.227523 -1.439714 -1.453493 0
M  V30 30 C -0.080490 -1.394498 -4.370305 0
M  V30 31 C 0.684691 -0.721678 -5.518627 0
M  V30 32 C 1.476479 -0.020208 -4.408872 0
M  V30 33 H -0.723165 1.761181 -3.440693 0
M  V30 34 H -1.723985 0.555074 -4.023758 0
M  V30 35 H 0.672817 1.920611 -1.897155 0
M  V30 36 H 0.914390 1.773471 0.542715 0
M  V30 37 H 2.792453 2.205519 3.112167 0
M  V30 38 H 4.987097 3.032010 2.206048 0
M  V30 39 H 6.461087 1.482719 0.905990 0
M  V30 40 H 5.754206 -0.812256 0.531179 0
M  V30 41 H 3.571147 -1.647164 1.428331 0
M  V30 42 H -0.351834 -1.528801 6.108284 0
M  V30 43 H -2.644161 -2.172682 5.448849 0
M  V30 44 H -3.319467 -1.602011 0.845578 0
M  V30 45 H -5.530427 -2.207551 0.119735 0
M  V30 46 H -7.266968 -3.032775 1.576902 0
M  V30 47 H -6.729985 -3.277656 4.025963 0
M  V30 48 H -4.523566 -2.690744 4.851045 0
M  V30 49 H 0.282100 -2.437557 0.410223 0
M  V30 50 H 0.032797 -2.339390 -2.034728 0
M  V30 51 H -1.137533 -1.604457 -4.570547 0
M  V30 52 H 0.544664 -2.242098 -4.007388 0
M  V30 53 H -0.001650 0.010727 -6.017458 0
M  V30 54 H 1.249177 -1.398705 -6.156626 0
M  V30 55 H 1.747898 1.022920 -4.650831 0
M  V30 56 H 2.277300 -0.691243 -4.085549 0
M  V30 END ATOM
M  V30 BEGIN BOND
M  V30 1 1 1 2
M  V30 2 1 2 3
M  V30 3 2 3 4
M  V30 4 1 4 5
M  V30 5 2 5 6
M  V30 6 1 6 7
M  V30 7 1 7 8
M  V30 8 1 8 9
M  V30 9 2 9 10
M  V30 10 1 10 11
M  V30 11 2 11 12
M  V30 12 1 12 13
M  V30 13 2 13 14
M  V30 14 2 8 15
M  V30 15 1 15 16
M  V30 16 2 16 17
M  V30 17 1 17 18
M  V30 18 2 18 19
M  V30 19 1 19 20
M  V30 20 2 20 21
M  V30 21 1 21 22
M  V30 22 2 22 23
M  V30 23 1 23 24
M  V30 24 2 24 25
M  V30 25 1 19 26
M  V30 26 2 26 27
M  V30 27 1 6 28
M  V30 28 2 28 29
M  V30 29 1 2 30
M  V30 30 1 30 31
M  V30 31 1 31 32
M  V30 32 1 32 2
M  V30 33 1 29 3
M  V30 34 1 27 7
M  V30 35 1 14 9
M  V30 36 1 27 16
M  V30 37 1 25 20
M  V30 38 1 1 33
M  V30 39 1 1 34
M  V30 40 1 4 35
M  V30 41 1 5 36
M  V30 42 1 10 37
M  V30 43 1 11 38
M  V30 44 1 12 39
M  V30 45 1 13 40
M  V30 46 1 14 41
M  V30 47 1 17 42
M  V30 48 1 18 43
M  V30 49 1 21 44
M  V30 50 1 22 45
M  V30 51 1 23 46
M  V30 52 1 24 47
M  V30 53 1 25 48
M  V30 54 1 28 49
M  V30 55 1 29 50
M  V30 56 1 30 51
M  V30 57 1 30 52
M  V30 58 1 31 53
M  V30 59 1 31 54
M  V30 60 1 32 55
M  V30 61 1 32 56
M  V30 END BOND
M  V30 END CTAB
M  END
>  <Dataset>  (674) 
ChEMBL_Kinases

>  <Ligand_Instance>  (674) 
nan

>  <PDB_ID>  (674) 
nan

>  <Standardized_SMILES>  (674) 
NC1(c2ccc(-n3c(-c4ccccc4)nc4ccc(-c5ccccc5)nc43)cc2)CCC1

>  <Name>  (674) 
nan

>  <Pocket>  (674) 
nan

>  <ATP_Site>  (674) 
nan

>  <Peripheral>  (674) 
nan

>  <Num_H_Atoms_ProtBoundConf>  (674) 
nan

>  <Num_Resolved_Atoms>  (674) 
nan

>  <Num_Not_Resolved_Atoms>  (674) 
nan

$$$$
CHEMBL3649665
     RDKit          3D

  0  0  0  0  0  0  0  0  0  0999 V3000
M  V30 BEGIN CTAB
M  V30 COUNTS 75 81 0 0 0
M  V30 BEGIN ATOM
M  V30 1 C 0.280693 -0.421935 7.432620 0
M  V30 2 O 0.895545 -0.465046 6.181727 0
M  V30 3 C 2.236163 -0.442445 5.957713 0
M  V30 4 O 2.307494 -0.382260 7.201536 0
M  V30 5 C 3.289438 -0.462617 4.977290 0
M  V30 6 C 4.533126 -0.412872 5.620166 0
M  V30 7 C 5.706626 -0.422810 4.908104 0
M  V30 8 C 5.593313 -0.483833 3.538706 0
M  V30 9 C 4.364107 -0.531250 2.944435 0
M  V30 10 C 3.173588 -0.523406 3.610972 0
M  V30 11 C 1.844743 -0.563790 3.039968 0
M  V30 12 N 0.648990 -0.581939 3.632090 0
M  V30 13 C -0.371081 -0.612420 2.769159 0
M  V30 14 C -1.722547 -0.636956 3.044672 0
M  V30 15 C -2.534372 -0.665710 1.926622 0
M  V30 16 C -2.008263 -0.668896 0.653442 0
M  V30 17 C -2.797860 -0.696273 -0.576787 0
M  V30 18 C -2.134051 -0.691128 -1.787278 0
M  V30 19 C -2.846288 -0.720669 -2.977007 0
M  V30 20 C -4.220728 -0.754917 -2.902508 0
M  V30 21 C -4.948843 -0.761939 -1.726499 0
M  V30 22 N -6.368898 -0.796614 -1.695236 0
M  V30 23 C -7.194377 -0.760384 -2.871928 0
M  V30 24 C -8.084771 -1.990323 -2.950145 0
M  V30 25 O -8.108004 -2.632449 -1.704431 0
M  V30 26 C -8.325361 -1.752170 -0.676667 0
M  V30 27 C -7.117206 -0.874260 -0.486859 0
M  V30 28 C -4.173471 -0.731410 -0.611415 0
M  V30 29 N -0.672324 -0.643239 0.506436 0
M  V30 30 C 0.215515 -0.614255 1.520442 0
M  V30 31 N 1.546402 -0.584608 1.735378 0
M  V30 32 C 2.311479 -0.580916 0.552361 0
M  V30 33 C 2.631224 0.682198 0.031096 0
M  V30 34 C 3.368873 0.738733 -1.153024 0
M  V30 35 C 3.778208 -0.432096 -1.802106 0
M  V30 36 C 4.532554 -0.127819 -3.020090 0
M  V30 37 N 5.582245 0.880282 -2.840390 0
M  V30 38 C 5.049658 -1.261473 -3.837986 0
M  V30 39 C 4.246533 -0.776732 -5.027638 0
M  V30 40 C 3.558724 0.211086 -4.136387 0
M  V30 41 C 3.438712 -1.629999 -1.249587 0
M  V30 42 C 2.712324 -1.741705 -0.083410 0
M  V30 43 H 0.523617 0.496119 7.995186 0
M  V30 44 H 0.579862 -1.305625 8.018235 0
M  V30 45 H -0.825348 -0.533772 7.286034 0
M  V30 46 H 4.691450 -0.364219 6.689691 0
M  V30 47 H 6.696244 -0.387258 5.338568 0
M  V30 48 H 6.497039 -0.493780 2.948938 0
M  V30 49 H 4.375578 -0.578319 1.873933 0
M  V30 50 H -2.112338 -0.634127 4.045910 0
M  V30 51 H -3.599980 -0.685074 2.066564 0
M  V30 52 H -1.034133 -0.663281 -1.858403 0
M  V30 53 H -2.292857 -0.714568 -3.902330 0
M  V30 54 H -4.688828 -0.777511 -3.870725 0
M  V30 55 H -6.672828 -0.663202 -3.824533 0
M  V30 56 H -7.859223 0.122191 -2.756063 0
M  V30 57 H -7.781737 -2.718672 -3.704194 0
M  V30 58 H -9.119221 -1.670353 -3.166254 0
M  V30 59 H -8.550608 -2.373775 0.226885 0
M  V30 60 H -9.229434 -1.124239 -0.930053 0
M  V30 61 H -7.418128 0.153263 -0.165644 0
M  V30 62 H -6.551189 -1.349500 0.369227 0
M  V30 63 H -4.643153 -0.731024 0.360699 0
M  V30 64 H 2.307518 1.588375 0.546709 0
M  V30 65 H 3.572135 1.766039 -1.486925 0
M  V30 66 H 6.302422 0.784101 -3.592120 0
M  V30 67 H 6.076660 0.597269 -1.949440 0
M  V30 68 H 4.864746 -2.286049 -3.501019 0
M  V30 69 H 6.137999 -1.185960 -4.129470 0
M  V30 70 H 3.606920 -1.631337 -5.377653 0
M  V30 71 H 4.799939 -0.347787 -5.863026 0
M  V30 72 H 2.504823 -0.132290 -3.943639 0
M  V30 73 H 3.535121 1.260920 -4.440312 0
M  V30 74 H 3.782758 -2.478415 -1.794090 0
M  V30 75 H 2.462457 -2.697994 0.322605 0
M  V30 END ATOM
M  V30 BEGIN BOND
M  V30 1 1 1 2
M  V30 2 1 2 3
M  V30 3 2 3 4
M  V30 4 1 3 5
M  V30 5 2 5 6
M  V30 6 1 6 7
M  V30 7 2 7 8
M  V30 8 1 8 9
M  V30 9 2 9 10
M  V30 10 1 10 11
M  V30 11 2 11 12
M  V30 12 1 12 13
M  V30 13 2 13 14
M  V30 14 1 14 15
M  V30 15 2 15 16
M  V30 16 1 16 17
M  V30 17 2 17 18
M  V30 18 1 18 19
M  V30 19 2 19 20
M  V30 20 1 20 21
M  V30 21 1 21 22
M  V30 22 1 22 23
M  V30 23 1 23 24
M  V30 24 1 24 25
M  V30 25 1 25 26
M  V30 26 1 26 27
M  V30 27 2 21 28
M  V30 28 1 16 29
M  V30 29 2 29 30
M  V30 30 1 30 31
M  V30 31 1 31 32
M  V30 32 2 32 33
M  V30 33 1 33 34
M  V30 34 2 34 35
M  V30 35 1 35 36
M  V30 36 1 36 37
M  V30 37 1 36 38
M  V30 38 1 38 39
M  V30 39 1 39 40
M  V30 40 1 35 41
M  V30 41 2 41 42
M  V30 42 1 10 5
M  V30 43 1 31 11
M  V30 44 1 42 32
M  V30 45 1 30 13
M  V30 46 1 40 36
M  V30 47 1 28 17
M  V30 48 1 27 22
M  V30 49 1 1 43
M  V30 50 1 1 44
M  V30 51 1 1 45
M  V30 52 1 6 46
M  V30 53 1 7 47
M  V30 54 1 8 48
M  V30 55 1 9 49
M  V30 56 1 14 50
M  V30 57 1 15 51
M  V30 58 1 18 52
M  V30 59 1 19 53
M  V30 60 1 20 54
M  V30 61 1 23 55
M  V30 62 1 23 56
M  V30 63 1 24 57
M  V30 64 1 24 58
M  V30 65 1 26 59
M  V30 66 1 26 60
M  V30 67 1 27 61
M  V30 68 1 27 62
M  V30 69 1 28 63
M  V30 70 1 33 64
M  V30 71 1 34 65
M  V30 72 1 37 66
M  V30 73 1 37 67
M  V30 74 1 38 68
M  V30 75 1 38 69
M  V30 76 1 39 70
M  V30 77 1 39 71
M  V30 78 1 40 72
M  V30 79 1 40 73
M  V30 80 1 41 74
M  V30 81 1 42 75
M  V30 END BOND
M  V30 END CTAB
M  END
>  <Dataset>  (675) 
ChEMBL_Kinases

>  <Ligand_Instance>  (675) 
nan

>  <PDB_ID>  (675) 
nan

>  <Standardized_SMILES>  (675) 
COC(=O)c1ccccc1-c1nc2ccc(-c3cccc(N4CCOCC4)c3)nc2n1-c1ccc(C2(N)CCC2)cc1

>  <Name>  (675) 
nan

>  <Pocket>  (675) 
nan

>  <ATP_Site>  (675) 
nan

>  <Peripheral>  (675) 
nan

>  <Num_H_Atoms_ProtBoundConf>  (675) 
nan

>  <Num_Resolved_Atoms>  (675) 
nan

>  <Num_Not_Resolved_Atoms>  (675) 
nan

$$$$
CHEMBL3651190
     RDKit          3D

  0  0  0  0  0  0  0  0  0  0999 V3000
M  V30 BEGIN CTAB
M  V30 COUNTS 77 82 0 0 0
M  V30 BEGIN ATOM
M  V30 1 C 1.856577 -1.216744 4.926160 0
M  V30 2 O 2.428841 -0.623342 3.779541 0
M  V30 3 C 3.078546 0.602043 3.790054 0
M  V30 4 C 3.208944 1.327034 4.949824 0
M  V30 5 C 3.854354 2.541760 4.976133 0
M  V30 6 C 4.380942 3.035633 3.800564 0
M  V30 7 C 4.239351 2.298822 2.661003 0
M  V30 8 F 4.763626 2.796369 1.507566 0
M  V30 9 C 3.592197 1.058420 2.578122 0
M  V30 10 C 3.489131 0.381183 1.263706 0
M  V30 11 N 2.285987 0.550920 0.547484 0
M  V30 12 C 1.069878 0.401820 1.239223 0
M  V30 13 C -0.131953 0.785525 0.416208 0 CFG=2
M  V30 14 N -0.542918 -0.335310 -0.441381 0
M  V30 15 C -1.809370 -0.983729 -0.258206 0
M  V30 16 O -2.582426 -0.563276 0.672922 0
M  V30 17 C -2.313686 -2.099778 -1.046405 0
M  V30 18 C -1.625802 -2.711868 -2.070021 0
M  V30 19 C -2.075762 -3.766597 -2.834188 0
M  V30 20 C -3.346194 -4.267384 -2.551368 0
M  V30 21 N -4.030614 -5.273033 -3.124019 0
M  V30 22 N -5.200133 -5.359774 -2.494829 0
M  V30 23 C -5.245078 -4.408944 -1.530240 0
M  V30 24 C -6.355727 -4.172570 -0.616739 0
M  V30 25 C -6.876472 -5.323302 -0.059113 0
M  V30 26 C -7.945120 -5.254390 0.835821 0
M  V30 27 N -8.428025 -4.043402 1.119072 0
M  V30 28 C -7.965507 -2.896368 0.610962 0
M  V30 29 C -8.518100 -1.551117 0.940131 0
M  V30 30 C -6.909582 -2.968754 -0.272886 0
M  V30 31 C -4.070432 -3.683855 -1.533690 0
M  V30 32 C -3.561965 -2.630479 -0.806290 0
M  V30 33 C -0.051948 2.074389 -0.315986 0
M  V30 34 C 1.397384 2.555899 -0.308767 0
M  V30 35 C 2.274912 1.364062 -0.602726 0 CFG=1
M  V30 36 C 3.513539 1.620066 -1.313291 0
M  V30 37 O 3.713721 2.874227 -1.467209 0
M  V30 38 N 4.255354 0.434426 -1.699131 0
M  V30 39 C 3.899322 -0.987499 -1.499302 0
M  V30 40 C 5.500958 0.747322 -2.361971 0
M  V30 41 C 6.221851 2.004494 -2.231617 0
M  V30 42 C 5.372841 1.809631 -3.439312 0
M  V30 43 H 2.571964 -1.869317 5.465164 0
M  V30 44 H 1.408007 -0.447233 5.586790 0
M  V30 45 H 0.989915 -1.829142 4.565831 0
M  V30 46 H 2.820208 0.988573 5.880879 0
M  V30 47 H 3.995607 3.165727 5.845613 0
M  V30 48 H 4.909506 3.998976 3.748624 0
M  V30 49 H 3.678812 -0.694938 1.430829 0
M  V30 50 H 4.333842 0.759182 0.641488 0
M  V30 51 H 1.025007 0.986514 2.199023 0
M  V30 52 H 0.897231 -0.678699 1.506763 0
M  V30 53 H -1.015061 0.858206 1.149982 0
M  V30 54 H -0.058896 -0.806692 -1.232799 0
M  V30 55 H -0.647830 -2.373772 -2.334208 0
M  V30 56 H -1.500924 -4.210691 -3.623333 0
M  V30 57 H -3.712247 -5.876805 -3.913441 0
M  V30 58 H -6.508742 -6.324320 -0.267826 0
M  V30 59 H -8.349120 -6.154390 1.269585 0
M  V30 60 H -9.437938 -1.344783 0.334284 0
M  V30 61 H -7.771196 -0.762898 0.796973 0
M  V30 62 H -8.864876 -1.475701 1.997218 0
M  V30 63 H -6.478653 -2.108772 -0.725811 0
M  V30 64 H -4.187371 -2.229616 -0.028926 0
M  V30 65 H -0.410508 1.972091 -1.367572 0
M  V30 66 H -0.671273 2.864086 0.183141 0
M  V30 67 H 1.578081 2.986689 0.704917 0
M  V30 68 H 1.489429 3.327333 -1.093268 0
M  V30 69 H 1.641669 0.775331 -1.373495 0
M  V30 70 H 2.882145 -1.112858 -1.135051 0
M  V30 71 H 4.592535 -1.423642 -0.753293 0
M  V30 72 H 4.096741 -1.504340 -2.462809 0
M  V30 73 H 6.090645 -0.167506 -2.666903 0
M  V30 74 H 6.030199 2.791486 -1.481244 0
M  V30 75 H 7.330721 1.959102 -2.449042 0
M  V30 76 H 4.424615 2.334912 -3.606780 0
M  V30 77 H 5.878051 1.572384 -4.421441 0
M  V30 END ATOM
M  V30 BEGIN BOND
M  V30 1 1 1 2
M  V30 2 1 2 3
M  V30 3 2 3 4
M  V30 4 1 4 5
M  V30 5 2 5 6
M  V30 6 1 6 7
M  V30 7 1 7 8
M  V30 8 2 7 9
M  V30 9 1 9 10
M  V30 10 1 10 11
M  V30 11 1 11 12
M  V30 12 1 12 13
M  V30 13 1 13 14
M  V30 14 1 14 15
M  V30 15 2 15 16
M  V30 16 1 15 17
M  V30 17 2 17 18
M  V30 18 1 18 19
M  V30 19 2 19 20
M  V30 20 1 20 21
M  V30 21 1 21 22
M  V30 22 2 22 23
M  V30 23 1 23 24
M  V30 24 2 24 25
M  V30 25 1 25 26
M  V30 26 2 26 27
M  V30 27 1 27 28
M  V30 28 1 28 29
M  V30 29 2 28 30
M  V30 30 1 23 31
M  V30 31 2 31 32
M  V30 32 1 13 33
M  V30 33 1 33 34
M  V30 34 1 34 35
M  V30 35 1 35 36
M  V30 36 2 36 37
M  V30 37 1 36 38
M  V30 38 1 38 39
M  V30 39 1 38 40
M  V30 40 1 40 41
M  V30 41 1 41 42
M  V30 42 1 9 3
M  V30 43 1 35 11
M  V30 44 1 42 40
M  V30 45 1 32 17
M  V30 46 1 31 20
M  V30 47 1 30 24
M  V30 48 1 1 43
M  V30 49 1 1 44
M  V30 50 1 1 45
M  V30 51 1 4 46
M  V30 52 1 5 47
M  V30 53 1 6 48
M  V30 54 1 10 49
M  V30 55 1 10 50
M  V30 56 1 12 51
M  V30 57 1 12 52
M  V30 58 1 13 53 CFG=1
M  V30 59 1 14 54
M  V30 60 1 18 55
M  V30 61 1 19 56
M  V30 62 1 21 57
M  V30 63 1 25 58
M  V30 64 1 26 59
M  V30 65 1 29 60
M  V30 66 1 29 61
M  V30 67 1 29 62
M  V30 68 1 30 63
M  V30 69 1 32 64
M  V30 70 1 33 65
M  V30 71 1 33 66
M  V30 72 1 34 67
M  V30 73 1 34 68
M  V30 74 1 35 69 CFG=3
M  V30 75 1 39 70
M  V30 76 1 39 71
M  V30 77 1 39 72
M  V30 78 1 40 73
M  V30 79 1 41 74
M  V30 80 1 41 75
M  V30 81 1 42 76
M  V30 82 1 42 77
M  V30 END BOND
M  V30 END CTAB
M  END
>  <Dataset>  (676) 
ChEMBL_Kinases

>  <Ligand_Instance>  (676) 
nan

>  <PDB_ID>  (676) 
nan

>  <Standardized_SMILES>  (676) 
COc1cccc(F)c1CN1C[C@H](NC(=O)c2ccc3[nH]nc(-c4ccnc(C)c4)c3c2)CC[C@H]1C(=O)N(C)C1CC1

>  <Name>  (676) 
nan

>  <Pocket>  (676) 
nan

>  <ATP_Site>  (676) 
nan

>  <Peripheral>  (676) 
nan

>  <Num_H_Atoms_ProtBoundConf>  (676) 
nan

>  <Num_Resolved_Atoms>  (676) 
nan

>  <Num_Not_Resolved_Atoms>  (676) 
nan

$$$$
CHEMBL3651189
     RDKit          3D

  0  0  0  0  0  0  0  0  0  0999 V3000
M  V30 BEGIN CTAB
M  V30 COUNTS 74 79 0 0 0
M  V30 BEGIN ATOM
M  V30 1 C -0.240246 -1.656498 4.257690 0
M  V30 2 O 0.720770 -0.909038 3.592312 0
M  V30 3 C 1.057325 0.402140 3.750593 0
M  V30 4 C 0.393990 1.163416 4.690450 0
M  V30 5 C 0.734133 2.471629 4.847779 0
M  V30 6 C 1.719731 3.003950 4.076337 0
M  V30 7 C 2.375116 2.228872 3.138225 0
M  V30 8 F 3.339408 2.924156 2.453149 0
M  V30 9 C 2.064885 0.875046 2.933902 0
M  V30 10 C 2.835822 0.166914 1.890718 0
M  V30 11 N 2.319181 -0.038403 0.641748 0
M  V30 12 C 1.041651 -0.624245 0.419466 0
M  V30 13 C -0.039713 0.452809 0.289881 0 CFG=2
M  V30 14 N -1.276236 -0.239949 0.030118 0
M  V30 15 C -2.355061 -0.139437 0.910717 0
M  V30 16 O -2.243345 0.563607 1.945751 0
M  V30 17 C -3.656523 -0.801584 0.733335 0
M  V30 18 C -4.630845 -0.640784 1.697254 0
M  V30 19 C -5.876032 -1.229303 1.580686 0
M  V30 20 C -6.106017 -1.995028 0.446726 0
M  V30 21 N -7.179423 -2.701928 0.002573 0
M  V30 22 N -6.906606 -3.266769 -1.148937 0
M  V30 23 C -5.654696 -2.977535 -1.539345 0
M  V30 24 C -5.026110 -3.439417 -2.775739 0
M  V30 25 C -5.656156 -3.383671 -3.997639 0
M  V30 26 C -5.048040 -3.830698 -5.151345 0
M  V30 27 N -3.803374 -4.335419 -5.083191 0
M  V30 28 C -3.136289 -4.414238 -3.906560 0
M  V30 29 C -1.755332 -4.961457 -3.749778 0
M  V30 30 C -3.747527 -3.962294 -2.733434 0
M  V30 31 C -5.142332 -2.174915 -0.540157 0
M  V30 32 C -3.909490 -1.569389 -0.387709 0
M  V30 33 C 0.336822 1.394956 -0.819701 0
M  V30 34 C 1.731728 1.946438 -0.530420 0
M  V30 35 C 2.648673 0.762218 -0.483590 0 CFG=1
M  V30 36 C 4.027335 1.007307 -0.820666 0
M  V30 37 O 4.080811 1.949550 -1.691540 0
M  V30 38 N 5.276868 0.507801 -0.466706 0
M  V30 39 C 6.575839 0.925489 -0.951222 0
M  V30 40 C 7.546771 -0.224713 -1.142720 0
M  V30 41 C 7.745780 0.757418 -0.055716 0
M  V30 42 H -1.147058 -1.037783 4.403813 0
M  V30 43 H 0.143347 -2.109710 5.195878 0
M  V30 44 H -0.474706 -2.531823 3.584362 0
M  V30 45 H -0.387019 0.682914 5.275015 0
M  V30 46 H 0.159778 3.003624 5.615249 0
M  V30 47 H 1.944631 4.050863 4.250042 0
M  V30 48 H 3.845215 0.675886 1.771558 0
M  V30 49 H 3.141153 -0.826911 2.331662 0
M  V30 50 H 1.104416 -1.024220 -0.650111 0
M  V30 51 H 0.739809 -1.476032 0.996833 0
M  V30 52 H -0.103266 1.035317 1.208855 0
M  V30 53 H -1.375126 -0.829328 -0.824346 0
M  V30 54 H -4.481163 -0.044931 2.598548 0
M  V30 55 H -6.673869 -1.122680 2.326890 0
M  V30 56 H -8.069302 -2.741572 0.563128 0
M  V30 57 H -6.658579 -2.982910 -4.076259 0
M  V30 58 H -5.490160 -3.811135 -6.128698 0
M  V30 59 H -0.996555 -4.175361 -3.669279 0
M  V30 60 H -1.713861 -5.562418 -2.810344 0
M  V30 61 H -1.582589 -5.620506 -4.631264 0
M  V30 62 H -3.232135 -4.020077 -1.798054 0
M  V30 63 H -3.174832 -1.718739 -1.160269 0
M  V30 64 H 0.422616 0.882817 -1.794997 0
M  V30 65 H -0.334480 2.277392 -0.824743 0
M  V30 66 H 1.696739 2.566310 0.358259 0
M  V30 67 H 2.057115 2.595079 -1.375605 0
M  V30 68 H 2.258946 0.120148 -1.372441 0
M  V30 69 H 5.235449 -0.270181 0.221991 0
M  V30 70 H 6.598326 1.712688 -1.731587 0
M  V30 71 H 7.235005 -1.250234 -0.825755 0
M  V30 72 H 8.235763 -0.205638 -2.003363 0
M  V30 73 H 7.521894 0.485517 0.986028 0
M  V30 74 H 8.607465 1.471420 -0.172827 0
M  V30 END ATOM
M  V30 BEGIN BOND
M  V30 1 1 1 2
M  V30 2 1 2 3
M  V30 3 2 3 4
M  V30 4 1 4 5
M  V30 5 2 5 6
M  V30 6 1 6 7
M  V30 7 1 7 8
M  V30 8 2 7 9
M  V30 9 1 9 10
M  V30 10 1 10 11
M  V30 11 1 11 12
M  V30 12 1 12 13
M  V30 13 1 13 14
M  V30 14 1 14 15
M  V30 15 2 15 16
M  V30 16 1 15 17
M  V30 17 2 17 18
M  V30 18 1 18 19
M  V30 19 2 19 20
M  V30 20 1 20 21
M  V30 21 1 21 22
M  V30 22 2 22 23
M  V30 23 1 23 24
M  V30 24 2 24 25
M  V30 25 1 25 26
M  V30 26 2 26 27
M  V30 27 1 27 28
M  V30 28 1 28 29
M  V30 29 2 28 30
M  V30 30 1 23 31
M  V30 31 2 31 32
M  V30 32 1 13 33
M  V30 33 1 33 34
M  V30 34 1 34 35
M  V30 35 1 35 36
M  V30 36 2 36 37
M  V30 37 1 36 38
M  V30 38 1 38 39
M  V30 39 1 39 40
M  V30 40 1 40 41
M  V30 41 1 9 3
M  V30 42 1 35 11
M  V30 43 1 41 39
M  V30 44 1 32 17
M  V30 45 1 31 20
M  V30 46 1 30 24
M  V30 47 1 1 42
M  V30 48 1 1 43
M  V30 49 1 1 44
M  V30 50 1 4 45
M  V30 51 1 5 46
M  V30 52 1 6 47
M  V30 53 1 10 48
M  V30 54 1 10 49
M  V30 55 1 12 50
M  V30 56 1 12 51
M  V30 57 1 13 52 CFG=1
M  V30 58 1 14 53
M  V30 59 1 18 54
M  V30 60 1 19 55
M  V30 61 1 21 56
M  V30 62 1 25 57
M  V30 63 1 26 58
M  V30 64 1 29 59
M  V30 65 1 29 60
M  V30 66 1 29 61
M  V30 67 1 30 62
M  V30 68 1 32 63
M  V30 69 1 33 64
M  V30 70 1 33 65
M  V30 71 1 34 66
M  V30 72 1 34 67
M  V30 73 1 35 68 CFG=3
M  V30 74 1 38 69
M  V30 75 1 39 70
M  V30 76 1 40 71
M  V30 77 1 40 72
M  V30 78 1 41 73
M  V30 79 1 41 74
M  V30 END BOND
M  V30 END CTAB
M  END
>  <Dataset>  (677) 
ChEMBL_Kinases

>  <Ligand_Instance>  (677) 
nan

>  <PDB_ID>  (677) 
nan

>  <Standardized_SMILES>  (677) 
COc1cccc(F)c1CN1C[C@H](NC(=O)c2ccc3[nH]nc(-c4ccnc(C)c4)c3c2)CC[C@H]1C(=O)NC1CC1

>  <Name>  (677) 
nan

>  <Pocket>  (677) 
nan

>  <ATP_Site>  (677) 
nan

>  <Peripheral>  (677) 
nan

>  <Num_H_Atoms_ProtBoundConf>  (677) 
nan

>  <Num_Resolved_Atoms>  (677) 
nan

>  <Num_Not_Resolved_Atoms>  (677) 
nan

$$$$
CHEMBL3651188
     RDKit          3D

  0  0  0  0  0  0  0  0  0  0999 V3000
M  V30 BEGIN CTAB
M  V30 COUNTS 84 89 0 0 0
M  V30 BEGIN ATOM
M  V30 1 C 0.733480 -5.737492 -0.671849 0
M  V30 2 O 1.472572 -4.630266 -1.134158 0
M  V30 3 C 2.432558 -4.089080 -0.293811 0
M  V30 4 C 2.682347 -4.599619 0.960161 0
M  V30 5 C 3.648397 -4.039700 1.764321 0
M  V30 6 C 4.352792 -2.955591 1.271598 0
M  V30 7 C 4.077609 -2.467210 0.010600 0
M  V30 8 F 4.867482 -1.395911 -0.311645 0
M  V30 9 C 3.098156 -3.018028 -0.829510 0
M  V30 10 C 2.980095 -2.288297 -2.079253 0
M  V30 11 N 1.970554 -1.277247 -2.019103 0
M  V30 12 C 0.692749 -1.785900 -1.738470 0
M  V30 13 C -0.317525 -0.645487 -1.809145 0 CFG=2
M  V30 14 N -1.617179 -1.175047 -1.377800 0
M  V30 15 C -2.464143 -0.794924 -0.303690 0
M  V30 16 O -1.988216 0.153761 0.365691 0
M  V30 17 C -3.719921 -1.504787 -0.106327 0
M  V30 18 C -4.166654 -2.545253 -0.882078 0
M  V30 19 C -5.373384 -3.149487 -0.612690 0
M  V30 20 C -6.179901 -2.753444 0.424579 0
M  V30 21 N -7.370452 -3.161354 0.891631 0
M  V30 22 N -7.661724 -2.392461 1.936959 0
M  V30 23 C -6.684011 -1.509050 2.140800 0
M  V30 24 C -6.749548 -0.540252 3.227893 0
M  V30 25 C -7.982962 0.104929 3.376684 0
M  V30 26 C -8.194425 1.043558 4.359094 0
M  V30 27 N -7.168312 1.326208 5.182189 0
M  V30 28 C -5.955760 0.733291 5.083635 0
M  V30 29 C -4.867355 1.095496 6.028829 0
M  V30 30 C -5.740110 -0.204362 4.104387 0
M  V30 31 C -5.700484 -1.701453 1.188161 0
M  V30 32 C -4.493715 -1.051869 0.967393 0
M  V30 33 C -0.420499 -0.204507 -3.230289 0
M  V30 34 C 0.886455 -0.158941 -3.953578 0
M  V30 35 C 2.082191 -0.305487 -3.071077 0 CFG=1
M  V30 36 C 2.611171 0.981725 -2.554339 0
M  V30 37 O 2.646237 1.781546 -3.547621 0
M  V30 38 N 3.015268 1.321617 -1.235844 0
M  V30 39 C 3.455727 2.688198 -1.228462 0
M  V30 40 C 3.908440 3.156594 0.117928 0 CFG=1
M  V30 41 C 5.062113 2.362219 0.663526 0
M  V30 42 C 6.181550 2.684994 -0.280036 0
M  V30 43 C 5.952972 4.109365 -0.678862 0 CFG=2
M  V30 44 O 6.972314 4.895493 -0.124241 0
M  V30 45 C 4.592152 4.512360 -0.115755 0
M  V30 46 H 1.429463 -6.584217 -0.402037 0
M  V30 47 H 0.194375 -5.516085 0.277299 0
M  V30 48 H -0.013180 -6.088928 -1.400572 0
M  V30 49 H 2.067865 -5.448789 1.234979 0
M  V30 50 H 3.819869 -4.462647 2.742182 0
M  V30 51 H 5.095366 -2.556813 1.938737 0
M  V30 52 H 3.958965 -1.884439 -2.445490 0
M  V30 53 H 2.690515 -3.025162 -2.899248 0
M  V30 54 H 0.348198 -2.555052 -2.433445 0
M  V30 55 H 0.711740 -2.137767 -0.658546 0
M  V30 56 H 0.048411 0.164850 -1.166656 0
M  V30 57 H -1.815374 -1.939300 -2.057027 0
M  V30 58 H -3.568775 -2.883613 -1.699092 0
M  V30 59 H -5.681818 -3.966551 -1.254614 0
M  V30 60 H -7.952062 -3.942178 0.495973 0
M  V30 61 H -8.818298 -0.120763 2.711599 0
M  V30 62 H -9.167481 1.527777 4.448468 0
M  V30 63 H -4.628241 2.198229 5.974075 0
M  V30 64 H -3.929869 0.594839 5.711271 0
M  V30 65 H -5.095022 0.796709 7.076586 0
M  V30 66 H -4.802830 -0.719897 3.962451 0
M  V30 67 H -4.235122 -0.235648 1.645446 0
M  V30 68 H -1.082571 -0.924446 -3.770710 0
M  V30 69 H -0.983028 0.765345 -3.242663 0
M  V30 70 H 0.926744 -0.858889 -4.813911 0
M  V30 71 H 0.950902 0.869665 -4.402269 0
M  V30 72 H 2.905739 -0.687724 -3.751678 0
M  V30 73 H 2.899118 0.498735 -0.575020 0
M  V30 74 H 4.282259 2.782951 -1.976655 0
M  V30 75 H 2.608521 3.331147 -1.541539 0
M  V30 76 H 3.091073 3.338523 0.825342 0
M  V30 77 H 4.870299 1.282409 0.762851 0
M  V30 78 H 5.248346 2.749928 1.702632 0
M  V30 79 H 7.193402 2.528472 0.167228 0
M  V30 80 H 6.020264 2.039313 -1.183252 0
M  V30 81 H 5.969138 4.207537 -1.796857 0
M  V30 82 H 7.780088 4.345406 -0.044510 0
M  V30 83 H 3.998248 5.095031 -0.819440 0
M  V30 84 H 4.771938 5.040029 0.832020 0
M  V30 END ATOM
M  V30 BEGIN BOND
M  V30 1 1 1 2
M  V30 2 1 2 3
M  V30 3 2 3 4
M  V30 4 1 4 5
M  V30 5 2 5 6
M  V30 6 1 6 7
M  V30 7 1 7 8
M  V30 8 2 7 9
M  V30 9 1 9 10
M  V30 10 1 10 11
M  V30 11 1 11 12
M  V30 12 1 12 13
M  V30 13 1 13 14
M  V30 14 1 14 15
M  V30 15 2 15 16
M  V30 16 1 15 17
M  V30 17 2 17 18
M  V30 18 1 18 19
M  V30 19 2 19 20
M  V30 20 1 20 21
M  V30 21 1 21 22
M  V30 22 2 22 23
M  V30 23 1 23 24
M  V30 24 2 24 25
M  V30 25 1 25 26
M  V30 26 2 26 27
M  V30 27 1 27 28
M  V30 28 1 28 29
M  V30 29 2 28 30
M  V30 30 1 23 31
M  V30 31 2 31 32
M  V30 32 1 13 33
M  V30 33 1 33 34
M  V30 34 1 34 35
M  V30 35 1 35 36
M  V30 36 2 36 37
M  V30 37 1 36 38
M  V30 38 1 38 39
M  V30 39 1 39 40
M  V30 40 1 40 41
M  V30 41 1 41 42
M  V30 42 1 42 43
M  V30 43 1 43 44
M  V30 44 1 43 45
M  V30 45 1 9 3
M  V30 46 1 35 11
M  V30 47 1 45 40
M  V30 48 1 32 17
M  V30 49 1 31 20
M  V30 50 1 30 24
M  V30 51 1 1 46
M  V30 52 1 1 47
M  V30 53 1 1 48
M  V30 54 1 4 49
M  V30 55 1 5 50
M  V30 56 1 6 51
M  V30 57 1 10 52
M  V30 58 1 10 53
M  V30 59 1 12 54
M  V30 60 1 12 55
M  V30 61 1 13 56 CFG=1
M  V30 62 1 14 57
M  V30 63 1 18 58
M  V30 64 1 19 59
M  V30 65 1 21 60
M  V30 66 1 25 61
M  V30 67 1 26 62
M  V30 68 1 29 63
M  V30 69 1 29 64
M  V30 70 1 29 65
M  V30 71 1 30 66
M  V30 72 1 32 67
M  V30 73 1 33 68
M  V30 74 1 33 69
M  V30 75 1 34 70
M  V30 76 1 34 71
M  V30 77 1 35 72 CFG=3
M  V30 78 1 38 73
M  V30 79 1 39 74
M  V30 80 1 39 75
M  V30 81 1 40 76 CFG=1
M  V30 82 1 41 77
M  V30 83 1 41 78
M  V30 84 1 42 79
M  V30 85 1 42 80
M  V30 86 1 43 81 CFG=3
M  V30 87 1 44 82
M  V30 88 1 45 83
M  V30 89 1 45 84
M  V30 END BOND
M  V30 END CTAB
M  END
>  <Dataset>  (678) 
ChEMBL_Kinases

>  <Ligand_Instance>  (678) 
nan

>  <PDB_ID>  (678) 
nan

>  <Standardized_SMILES>  (678) 
COc1cccc(F)c1CN1C[C@H](NC(=O)c2ccc3[nH]nc(-c4ccnc(C)c4)c3c2)CC[C@H]1C(=O)NC[C@H]1CC[C@H](O)C1

>  <Name>  (678) 
nan

>  <Pocket>  (678) 
nan

>  <ATP_Site>  (678) 
nan

>  <Peripheral>  (678) 
nan

>  <Num_H_Atoms_ProtBoundConf>  (678) 
nan

>  <Num_Resolved_Atoms>  (678) 
nan

>  <Num_Not_Resolved_Atoms>  (678) 
nan

$$$$
CHEMBL3651187
     RDKit          3D

  0  0  0  0  0  0  0  0  0  0999 V3000
M  V30 BEGIN CTAB
M  V30 COUNTS 78 83 0 0 0
M  V30 BEGIN ATOM
M  V30 1 C 0.747558 -2.675986 3.562121 0
M  V30 2 O 1.485573 -1.750021 2.802555 0
M  V30 3 C 2.648247 -2.182805 2.188024 0
M  V30 4 C 3.069971 -3.487146 2.323904 0
M  V30 5 C 4.223939 -3.950658 1.737067 0
M  V30 6 C 4.963572 -3.059313 0.995326 0
M  V30 7 C 4.492823 -1.767302 0.893012 0
M  V30 8 F 5.328932 -0.967012 0.152648 0
M  V30 9 C 3.323646 -1.241892 1.467495 0
M  V30 10 C 3.052797 0.159137 1.144969 0
M  V30 11 N 2.205546 0.336122 0.021674 0
M  V30 12 C 0.836060 -0.121174 0.148587 0
M  V30 13 C 0.057332 0.719774 1.113166 0 CFG=2
M  V30 14 N -1.298911 0.190824 1.163466 0
M  V30 15 C -1.927140 -0.113200 2.392508 0
M  V30 16 O -1.234160 0.116770 3.416025 0
M  V30 17 C -3.271475 -0.655251 2.545858 0
M  V30 18 C -3.701993 -0.844302 3.852117 0
M  V30 19 C -4.962119 -1.369030 4.124692 0
M  V30 20 C -5.732163 -1.679540 3.021474 0
M  V30 21 N -6.985620 -2.203963 2.920980 0
M  V30 22 N -7.345368 -2.345682 1.654727 0
M  V30 23 C -6.342969 -1.919998 0.849179 0
M  V30 24 C -6.292638 -1.896321 -0.623364 0
M  V30 25 C -6.679278 -2.966903 -1.432725 0
M  V30 26 C -6.586870 -2.814772 -2.798513 0
M  V30 27 N -6.148706 -1.703429 -3.414068 0
M  V30 28 C -5.765018 -0.643749 -2.661592 0
M  V30 29 C -5.286047 0.578480 -3.323929 0
M  V30 30 C -5.851226 -0.779089 -1.285177 0
M  V30 31 C -5.323960 -1.499292 1.693367 0
M  V30 32 C -4.056487 -0.971613 1.451649 0
M  V30 33 C 0.050803 2.193773 0.736941 0
M  V30 34 C 1.531222 2.612083 0.650859 0
M  V30 35 C 2.142101 1.751627 -0.383824 0 CFG=1
M  V30 36 C 3.358689 2.160475 -1.035361 0
M  V30 37 O 3.692708 3.332027 -0.642487 0
M  V30 38 N 3.954213 1.230962 -1.969868 0
M  V30 39 C 3.937374 -0.035570 -2.668010 0
M  V30 40 C 5.252142 0.243939 -3.311266 0
M  V30 41 C 6.377930 -0.657214 -2.844072 0
M  V30 42 O 5.192736 0.325539 -4.702967 0
M  V30 43 C 5.185777 1.570595 -2.642317 0
M  V30 44 H 1.389603 -3.234375 4.281619 0
M  V30 45 H -0.054871 -2.213166 4.180923 0
M  V30 46 H 0.233443 -3.370392 2.860934 0
M  V30 47 H 2.502065 -4.201777 2.900949 0
M  V30 48 H 4.536998 -4.969024 1.852431 0
M  V30 49 H 5.870960 -3.407549 0.530848 0
M  V30 50 H 4.021481 0.663235 0.912739 0
M  V30 51 H 2.572600 0.666653 2.035069 0
M  V30 52 H 0.810597 -1.165505 0.407229 0
M  V30 53 H 0.356280 -0.030721 -0.884905 0
M  V30 54 H 0.545673 0.690390 2.101646 0
M  V30 55 H -1.829969 0.028087 0.284718 0
M  V30 56 H -3.106520 -0.604602 4.727061 0
M  V30 57 H -5.385551 -1.552476 5.086358 0
M  V30 58 H -7.604158 -2.468774 3.741836 0
M  V30 59 H -7.032043 -3.862859 -0.943511 0
M  V30 60 H -6.889932 -3.653724 -3.417915 0
M  V30 61 H -4.184532 0.565255 -3.554664 0
M  V30 62 H -5.573931 1.507926 -2.817211 0
M  V30 63 H -5.775530 0.621028 -4.341378 0
M  V30 64 H -5.530609 0.105124 -0.752950 0
M  V30 65 H -3.683362 -0.808511 0.468178 0
M  V30 66 H -0.449735 2.744641 1.529680 0
M  V30 67 H -0.344643 2.371012 -0.283941 0
M  V30 68 H 1.603859 3.665996 0.307348 0
M  V30 69 H 2.023530 2.554647 1.638689 0
M  V30 70 H 1.352335 1.704745 -1.226502 0
M  V30 71 H 3.073809 -0.109217 -3.392257 0
M  V30 72 H 3.944748 -0.952849 -2.084820 0
M  V30 73 H 5.940077 -1.645783 -2.594142 0
M  V30 74 H 7.151592 -0.705883 -3.644772 0
M  V30 75 H 6.850465 -0.230572 -1.938501 0
M  V30 76 H 5.879327 -0.279963 -5.063666 0
M  V30 77 H 6.039487 1.821582 -1.978253 0
M  V30 78 H 4.961764 2.387032 -3.391800 0
M  V30 END ATOM
M  V30 BEGIN BOND
M  V30 1 1 1 2
M  V30 2 1 2 3
M  V30 3 2 3 4
M  V30 4 1 4 5
M  V30 5 2 5 6
M  V30 6 1 6 7
M  V30 7 1 7 8
M  V30 8 2 7 9
M  V30 9 1 9 10
M  V30 10 1 10 11
M  V30 11 1 11 12
M  V30 12 1 12 13
M  V30 13 1 13 14
M  V30 14 1 14 15
M  V30 15 2 15 16
M  V30 16 1 15 17
M  V30 17 2 17 18
M  V30 18 1 18 19
M  V30 19 2 19 20
M  V30 20 1 20 21
M  V30 21 1 21 22
M  V30 22 2 22 23
M  V30 23 1 23 24
M  V30 24 2 24 25
M  V30 25 1 25 26
M  V30 26 2 26 27
M  V30 27 1 27 28
M  V30 28 1 28 29
M  V30 29 2 28 30
M  V30 30 1 23 31
M  V30 31 2 31 32
M  V30 32 1 13 33
M  V30 33 1 33 34
M  V30 34 1 34 35
M  V30 35 1 35 36
M  V30 36 2 36 37
M  V30 37 1 36 38
M  V30 38 1 38 39
M  V30 39 1 39 40
M  V30 40 1 40 41
M  V30 41 1 40 42
M  V30 42 1 40 43
M  V30 43 1 9 3
M  V30 44 1 35 11
M  V30 45 1 43 38
M  V30 46 1 32 17
M  V30 47 1 31 20
M  V30 48 1 30 24
M  V30 49 1 1 44
M  V30 50 1 1 45
M  V30 51 1 1 46
M  V30 52 1 4 47
M  V30 53 1 5 48
M  V30 54 1 6 49
M  V30 55 1 10 50
M  V30 56 1 10 51
M  V30 57 1 12 52
M  V30 58 1 12 53
M  V30 59 1 13 54 CFG=1
M  V30 60 1 14 55
M  V30 61 1 18 56
M  V30 62 1 19 57
M  V30 63 1 21 58
M  V30 64 1 25 59
M  V30 65 1 26 60
M  V30 66 1 29 61
M  V30 67 1 29 62
M  V30 68 1 29 63
M  V30 69 1 30 64
M  V30 70 1 32 65
M  V30 71 1 33 66
M  V30 72 1 33 67
M  V30 73 1 34 68
M  V30 74 1 34 69
M  V30 75 1 35 70 CFG=3
M  V30 76 1 39 71
M  V30 77 1 39 72
M  V30 78 1 41 73
M  V30 79 1 41 74
M  V30 80 1 41 75
M  V30 81 1 42 76
M  V30 82 1 43 77
M  V30 83 1 43 78
M  V30 END BOND
M  V30 END CTAB
M  END
>  <Dataset>  (679) 
ChEMBL_Kinases

>  <Ligand_Instance>  (679) 
nan

>  <PDB_ID>  (679) 
nan

>  <Standardized_SMILES>  (679) 
COc1cccc(F)c1CN1C[C@H](NC(=O)c2ccc3[nH]nc(-c4ccnc(C)c4)c3c2)CC[C@H]1C(=O)N1CC(C)(O)C1

>  <Name>  (679) 
nan

>  <Pocket>  (679) 
nan

>  <ATP_Site>  (679) 
nan

>  <Peripheral>  (679) 
nan

>  <Num_H_Atoms_ProtBoundConf>  (679) 
nan

>  <Num_Resolved_Atoms>  (679) 
nan

>  <Num_Not_Resolved_Atoms>  (679) 
nan

$$$$
CHEMBL3651186
     RDKit          3D

  0  0  0  0  0  0  0  0  0  0999 V3000
M  V30 BEGIN CTAB
M  V30 COUNTS 78 83 0 0 0
M  V30 BEGIN ATOM
M  V30 1 C 3.987489 -0.340887 4.672277 0
M  V30 2 O 3.343166 -0.678801 3.475185 0
M  V30 3 C 2.228649 -1.480870 3.419245 0
M  V30 4 C 1.606044 -2.050572 4.507666 0
M  V30 5 C 0.489626 -2.854888 4.455925 0
M  V30 6 C -0.044034 -3.106385 3.204056 0
M  V30 7 C 0.560441 -2.547996 2.098190 0
M  V30 8 F -0.043042 -2.864384 0.919269 0
M  V30 9 C 1.695511 -1.729903 2.149449 0
M  V30 10 C 2.274943 -1.175676 0.898899 0
M  V30 11 N 1.986355 0.223323 0.704629 0
M  V30 12 C 0.618338 0.579730 0.664048 0
M  V30 13 C 0.023038 0.770462 -0.712086 0 CFG=2
M  V30 14 N -0.606991 -0.487333 -1.095075 0
M  V30 15 C -2.029895 -0.625740 -1.189601 0
M  V30 16 O -2.679645 0.424611 -0.915395 0
M  V30 17 C -2.690495 -1.870318 -1.569356 0
M  V30 18 C -2.060975 -3.038060 -1.899342 0
M  V30 19 C -2.735211 -4.189480 -2.248210 0
M  V30 20 C -4.110374 -4.179868 -2.270196 0
M  V30 21 N -5.068660 -5.068223 -2.546470 0
M  V30 22 N -6.275905 -4.544167 -2.414550 0
M  V30 23 C -6.172343 -3.237970 -2.031205 0
M  V30 24 C -7.231210 -2.299569 -1.773808 0
M  V30 25 C -7.331808 -0.990963 -2.190737 0
M  V30 26 C -8.442090 -0.223331 -1.840612 0
M  V30 27 N -9.401028 -0.801995 -1.088605 0
M  V30 28 C -9.361787 -2.067302 -0.652749 0
M  V30 29 C -10.464291 -2.621289 0.171214 0
M  V30 30 C -8.255152 -2.850703 -0.995109 0
M  V30 31 C -4.794160 -3.013313 -1.941516 0
M  V30 32 C -4.069327 -1.874264 -1.595532 0
M  V30 33 C 0.989409 1.300864 -1.716576 0
M  V30 34 C 2.080059 2.004985 -0.908957 0
M  V30 35 C 2.841798 0.860088 -0.237528 0 CFG=1
M  V30 36 C 4.132037 1.329007 0.340478 0
M  V30 37 O 4.649962 1.300656 1.495547 0
M  V30 38 N 5.059729 1.965772 -0.522605 0
M  V30 39 O 6.199502 2.352776 0.100407 0
M  V30 40 C 7.088612 2.968464 -0.757736 0
M  V30 41 C 8.332174 3.336247 0.032081 0
M  V30 42 C 9.040855 2.156537 0.662050 0
M  V30 43 C 8.337610 3.136198 1.502650 0
M  V30 44 H 4.826480 -1.085128 4.806463 0
M  V30 45 H 4.419083 0.688118 4.572795 0
M  V30 46 H 3.353893 -0.351096 5.570031 0
M  V30 47 H 2.007337 -1.867438 5.494777 0
M  V30 48 H 0.022200 -3.288220 5.325307 0
M  V30 49 H -0.917917 -3.733268 3.143472 0
M  V30 50 H 3.372314 -1.355055 0.896528 0
M  V30 51 H 1.832888 -1.739546 0.057160 0
M  V30 52 H 0.016900 -0.194951 1.181617 0
M  V30 53 H 0.452431 1.502024 1.299091 0
M  V30 54 H -0.792822 1.527664 -0.584943 0
M  V30 55 H -0.066263 -1.343618 -1.321351 0
M  V30 56 H -0.986909 -3.061831 -1.886962 0
M  V30 57 H -2.245285 -5.106408 -2.507689 0
M  V30 58 H -4.867409 -6.061709 -2.833281 0
M  V30 59 H -6.484630 -0.637191 -2.798488 0
M  V30 60 H -8.460976 0.789947 -2.196988 0
M  V30 61 H -10.550284 -3.729654 0.015493 0
M  V30 62 H -10.304073 -2.497619 1.262590 0
M  V30 63 H -11.420466 -2.145443 -0.074469 0
M  V30 64 H -8.286577 -3.869676 -0.608256 0
M  V30 65 H -4.607299 -0.985897 -1.345681 0
M  V30 66 H 0.543555 2.080873 -2.391206 0
M  V30 67 H 1.448498 0.495847 -2.315291 0
M  V30 68 H 1.608200 2.593244 -0.105177 0
M  V30 69 H 2.720244 2.626970 -1.529434 0
M  V30 70 H 3.146630 0.188609 -1.091874 0
M  V30 71 H 4.919864 2.144409 -1.562066 0
M  V30 72 H 6.677032 3.886401 -1.237647 0
M  V30 73 H 7.387031 2.307003 -1.594494 0
M  V30 74 H 8.930226 4.154004 -0.410113 0
M  V30 75 H 10.159120 2.178585 0.652102 0
M  V30 76 H 8.645225 1.148758 0.476626 0
M  V30 77 H 8.943300 3.867984 2.074282 0
M  V30 78 H 7.396386 2.827375 2.029284 0
M  V30 END ATOM
M  V30 BEGIN BOND
M  V30 1 1 1 2
M  V30 2 1 2 3
M  V30 3 2 3 4
M  V30 4 1 4 5
M  V30 5 2 5 6
M  V30 6 1 6 7
M  V30 7 1 7 8
M  V30 8 2 7 9
M  V30 9 1 9 10
M  V30 10 1 10 11
M  V30 11 1 11 12
M  V30 12 1 12 13
M  V30 13 1 13 14
M  V30 14 1 14 15
M  V30 15 2 15 16
M  V30 16 1 15 17
M  V30 17 2 17 18
M  V30 18 1 18 19
M  V30 19 2 19 20
M  V30 20 1 20 21
M  V30 21 1 21 22
M  V30 22 2 22 23
M  V30 23 1 23 24
M  V30 24 2 24 25
M  V30 25 1 25 26
M  V30 26 2 26 27
M  V30 27 1 27 28
M  V30 28 1 28 29
M  V30 29 2 28 30
M  V30 30 1 23 31
M  V30 31 2 31 32
M  V30 32 1 13 33
M  V30 33 1 33 34
M  V30 34 1 34 35
M  V30 35 1 35 36
M  V30 36 2 36 37
M  V30 37 1 36 38
M  V30 38 1 38 39
M  V30 39 1 39 40
M  V30 40 1 40 41
M  V30 41 1 41 42
M  V30 42 1 42 43
M  V30 43 1 9 3
M  V30 44 1 35 11
M  V30 45 1 43 41
M  V30 46 1 32 17
M  V30 47 1 31 20
M  V30 48 1 30 24
M  V30 49 1 1 44
M  V30 50 1 1 45
M  V30 51 1 1 46
M  V30 52 1 4 47
M  V30 53 1 5 48
M  V30 54 1 6 49
M  V30 55 1 10 50
M  V30 56 1 10 51
M  V30 57 1 12 52
M  V30 58 1 12 53
M  V30 59 1 13 54 CFG=1
M  V30 60 1 14 55
M  V30 61 1 18 56
M  V30 62 1 19 57
M  V30 63 1 21 58
M  V30 64 1 25 59
M  V30 65 1 26 60
M  V30 66 1 29 61
M  V30 67 1 29 62
M  V30 68 1 29 63
M  V30 69 1 30 64
M  V30 70 1 32 65
M  V30 71 1 33 66
M  V30 72 1 33 67
M  V30 73 1 34 68
M  V30 74 1 34 69
M  V30 75 1 35 70 CFG=3
M  V30 76 1 38 71
M  V30 77 1 40 72
M  V30 78 1 40 73
M  V30 79 1 41 74
M  V30 80 1 42 75
M  V30 81 1 42 76
M  V30 82 1 43 77
M  V30 83 1 43 78
M  V30 END BOND
M  V30 END CTAB
M  END
>  <Dataset>  (680) 
ChEMBL_Kinases

>  <Ligand_Instance>  (680) 
nan

>  <PDB_ID>  (680) 
nan

>  <Standardized_SMILES>  (680) 
COc1cccc(F)c1CN1C[C@H](NC(=O)c2ccc3[nH]nc(-c4ccnc(C)c4)c3c2)CC[C@H]1C(=O)NOCC1CC1

>  <Name>  (680) 
nan

>  <Pocket>  (680) 
nan

>  <ATP_Site>  (680) 
nan

>  <Peripheral>  (680) 
nan

>  <Num_H_Atoms_ProtBoundConf>  (680) 
nan

>  <Num_Resolved_Atoms>  (680) 
nan

>  <Num_Not_Resolved_Atoms>  (680) 
nan

$$$$
CHEMBL3651185
     RDKit          3D

  0  0  0  0  0  0  0  0  0  0999 V3000
M  V30 BEGIN CTAB
M  V30 COUNTS 53 57 0 0 0
M  V30 BEGIN ATOM
M  V30 1 O -2.225331 2.415173 0.507056 0
M  V30 2 C -1.890833 1.198987 0.446787 0
M  V30 3 N -0.524004 0.884192 0.350260 0
M  V30 4 C 0.427058 1.966688 0.324360 0 CFG=2
M  V30 5 C 1.127181 1.976925 -1.039929 0
M  V30 6 C 2.461617 2.715795 -0.872336 0
M  V30 7 C 3.325455 1.762930 -0.026492 0
M  V30 8 N 2.608689 1.242444 1.081603 0
M  V30 9 C 3.355752 0.779932 2.191065 0
M  V30 10 C 4.114637 -0.469645 1.838151 0
M  V30 11 C 5.135214 -0.546419 0.785647 0
M  V30 12 C 5.516771 -0.696128 2.242614 0
M  V30 13 C 1.409487 1.963027 1.445542 0
M  V30 14 C -2.975259 0.228064 0.484021 0
M  V30 15 C -4.264134 0.701077 0.605812 0
M  V30 16 C -5.371175 -0.156129 0.648856 0
M  V30 17 C -5.157543 -1.514923 0.566178 0
M  V30 18 N -6.047768 -2.539567 0.584261 0
M  V30 19 N -5.349187 -3.673039 0.475504 0
M  V30 20 C -4.035147 -3.377077 0.388787 0
M  V30 21 C -2.965030 -4.354989 0.259318 0
M  V30 22 C -1.967177 -4.138715 -0.667017 0
M  V30 23 C -1.007319 -5.136378 -0.697588 0
M  V30 24 N -1.007561 -6.224043 0.078445 0
M  V30 25 C -1.970461 -6.453024 0.986962 0
M  V30 26 C -2.949226 -5.481013 1.050570 0
M  V30 27 C -3.875579 -2.008765 0.443825 0
M  V30 28 C -2.805444 -1.137995 0.404298 0
M  V30 29 H -0.235900 -0.113101 0.300790 0
M  V30 30 H -0.097763 2.966246 0.367267 0
M  V30 31 H 1.372582 0.937467 -1.367937 0
M  V30 32 H 0.555966 2.490466 -1.812567 0
M  V30 33 H 2.325360 3.675281 -0.366700 0
M  V30 34 H 2.908506 2.769488 -1.870892 0
M  V30 35 H 4.275313 2.254409 0.245233 0
M  V30 36 H 3.558992 0.933028 -0.724503 0
M  V30 37 H 2.663305 0.617484 3.046431 0
M  V30 38 H 4.079368 1.558638 2.581916 0
M  V30 39 H 3.469391 -1.402123 1.972540 0
M  V30 40 H 5.599137 0.305818 0.292577 0
M  V30 41 H 5.143632 -1.463578 0.148539 0
M  V30 42 H 6.135328 0.092377 2.693969 0
M  V30 43 H 5.861085 -1.712860 2.517722 0
M  V30 44 H 0.955859 1.417881 2.297354 0
M  V30 45 H 1.625815 2.985767 1.811803 0
M  V30 46 H -4.539622 1.738126 0.677738 0
M  V30 47 H -6.397406 0.222084 0.746217 0
M  V30 48 H -7.091249 -2.460786 0.667895 0
M  V30 49 H -1.904950 -3.295446 -1.317435 0
M  V30 50 H -0.194563 -5.010167 -1.418241 0
M  V30 51 H -1.994392 -7.320916 1.624772 0
M  V30 52 H -3.760819 -5.592178 1.757236 0
M  V30 53 H -1.820592 -1.534772 0.309317 0
M  V30 END ATOM
M  V30 BEGIN BOND
M  V30 1 2 1 2
M  V30 2 1 2 3
M  V30 3 1 3 4
M  V30 4 1 4 5
M  V30 5 1 5 6
M  V30 6 1 6 7
M  V30 7 1 7 8
M  V30 8 1 8 9
M  V30 9 1 9 10
M  V30 10 1 10 11
M  V30 11 1 11 12
M  V30 12 1 8 13
M  V30 13 1 2 14
M  V30 14 2 14 15
M  V30 15 1 15 16
M  V30 16 2 16 17
M  V30 17 1 17 18
M  V30 18 1 18 19
M  V30 19 2 19 20
M  V30 20 1 20 21
M  V30 21 2 21 22
M  V30 22 1 22 23
M  V30 23 2 23 24
M  V30 24 1 24 25
M  V30 25 2 25 26
M  V30 26 1 20 27
M  V30 27 2 27 28
M  V30 28 1 13 4
M  V30 29 1 28 14
M  V30 30 1 12 10
M  V30 31 1 27 17
M  V30 32 1 26 21
M  V30 33 1 3 29
M  V30 34 1 4 30 CFG=1
M  V30 35 1 5 31
M  V30 36 1 5 32
M  V30 37 1 6 33
M  V30 38 1 6 34
M  V30 39 1 7 35
M  V30 40 1 7 36
M  V30 41 1 9 37
M  V30 42 1 9 38
M  V30 43 1 10 39
M  V30 44 1 11 40
M  V30 45 1 11 41
M  V30 46 1 12 42
M  V30 47 1 12 43
M  V30 48 1 13 44
M  V30 49 1 13 45
M  V30 50 1 15 46
M  V30 51 1 16 47
M  V30 52 1 18 48
M  V30 53 1 22 49
M  V30 54 1 23 50
M  V30 55 1 25 51
M  V30 56 1 26 52
M  V30 57 1 28 53
M  V30 END BOND
M  V30 END CTAB
M  END
>  <Dataset>  (681) 
ChEMBL_Kinases

>  <Ligand_Instance>  (681) 
nan

>  <PDB_ID>  (681) 
nan

>  <Standardized_SMILES>  (681) 
O=C(N[C@@H]1CCCN(CC2CC2)C1)c1ccc2[nH]nc(-c3ccncc3)c2c1

>  <Name>  (681) 
nan

>  <Pocket>  (681) 
nan

>  <ATP_Site>  (681) 
nan

>  <Peripheral>  (681) 
nan

>  <Num_H_Atoms_ProtBoundConf>  (681) 
nan

>  <Num_Resolved_Atoms>  (681) 
nan

>  <Num_Not_Resolved_Atoms>  (681) 
nan

$$$$
CHEMBL3651184
     RDKit          3D

  0  0  0  0  0  0  0  0  0  0999 V3000
M  V30 BEGIN CTAB
M  V30 COUNTS 65 71 0 0 0
M  V30 BEGIN ATOM
M  V30 1 O 1.396011 -5.252548 2.434955 0
M  V30 2 C 0.736763 -4.239709 2.161268 0
M  V30 3 N 1.395876 -3.021927 1.940609 0
M  V30 4 C 2.783818 -2.687253 1.970124 0 CFG=2
M  V30 5 C 3.124864 -1.553514 2.887841 0
M  V30 6 C 4.150190 -0.666952 2.211427 0
M  V30 7 C 3.664931 0.000837 0.971459 0
M  V30 8 N 2.665433 -0.846466 0.350338 0
M  V30 9 C 2.582444 -0.625140 -1.077995 0
M  V30 10 C 2.226876 0.745619 -1.448758 0
M  V30 11 C 0.877465 1.065337 -1.593752 0
M  V30 12 C 0.364982 2.300736 -1.936797 0
M  V30 13 C 1.277652 3.317520 -2.157487 0
M  V30 14 O 1.126350 4.574592 -2.489464 0
M  V30 15 C 2.304076 5.170222 -2.589005 0
M  V30 16 C 3.268366 4.240512 -2.304107 0
M  V30 17 C 2.644191 3.053523 -2.026096 0
M  V30 18 C 3.092919 1.795588 -1.680178 0
M  V30 19 C 3.124969 -2.209207 0.551783 0
M  V30 20 C -0.715372 -4.370995 2.081911 0
M  V30 21 C -1.283939 -5.610338 2.311728 0
M  V30 22 C -2.670706 -5.781284 2.246141 0
M  V30 23 C -3.495787 -4.702174 1.947881 0
M  V30 24 N -4.820505 -4.502635 1.805558 0
M  V30 25 N -5.074606 -3.245383 1.510661 0
M  V30 26 C -3.934572 -2.521089 1.436445 0
M  V30 27 C -3.807109 -1.099370 1.133853 0
M  V30 28 C -3.003283 -0.210785 1.818551 0
M  V30 29 C -2.938083 1.121862 1.469330 0
M  V30 30 C -3.671538 1.635476 0.419368 0
M  V30 31 C -4.478372 0.760757 -0.273405 0
M  V30 32 C -4.526421 -0.553872 0.090718 0
M  V30 33 C -5.140753 1.550697 -1.326393 0
M  V30 34 C -4.679860 2.961775 -1.154929 0
M  V30 35 O -3.763849 2.919016 -0.104059 0
M  V30 36 C -2.939145 -3.450691 1.714529 0
M  V30 37 C -1.570480 -3.326774 1.789074 0
M  V30 38 H 0.874316 -2.147942 1.708069 0
M  V30 39 H 3.382920 -3.577841 2.215538 0
M  V30 40 H 2.195478 -0.985671 3.093487 0
M  V30 41 H 3.612030 -1.899057 3.836558 0
M  V30 42 H 5.068648 -1.304428 2.054823 0
M  V30 43 H 4.484557 0.069874 2.995642 0
M  V30 44 H 3.321385 1.035967 1.116281 0
M  V30 45 H 4.522392 0.064151 0.258853 0
M  V30 46 H 3.535729 -0.981505 -1.565746 0
M  V30 47 H 1.804163 -1.307041 -1.478902 0
M  V30 48 H 0.143190 0.283033 -1.425399 0
M  V30 49 H -0.691998 2.452528 -2.024884 0
M  V30 50 H 2.464756 6.212861 -2.851096 0
M  V30 51 H 4.338161 4.340762 -2.280549 0
M  V30 52 H 4.151345 1.573408 -1.573912 0
M  V30 53 H 2.704167 -2.899689 -0.203395 0
M  V30 54 H 4.223678 -2.206449 0.432376 0
M  V30 55 H -0.714541 -6.511150 2.551891 0
M  V30 56 H -3.151033 -6.722955 2.417156 0
M  V30 57 H -5.536735 -5.248463 1.915953 0
M  V30 58 H -2.421620 -0.597648 2.644807 0
M  V30 59 H -2.308153 1.817310 2.006023 0
M  V30 60 H -5.175744 -1.211307 -0.481819 0
M  V30 61 H -6.227461 1.512286 -1.173564 0
M  V30 62 H -4.819080 1.219034 -2.335951 0
M  V30 63 H -4.109115 3.340236 -2.049061 0
M  V30 64 H -5.495199 3.683150 -0.896576 0
M  V30 65 H -1.151094 -2.347222 1.605062 0
M  V30 END ATOM
M  V30 BEGIN BOND
M  V30 1 2 1 2
M  V30 2 1 2 3
M  V30 3 1 3 4
M  V30 4 1 4 5
M  V30 5 1 5 6
M  V30 6 1 6 7
M  V30 7 1 7 8
M  V30 8 1 8 9
M  V30 9 1 9 10
M  V30 10 2 10 11
M  V30 11 1 11 12
M  V30 12 2 12 13
M  V30 13 1 13 14
M  V30 14 1 14 15
M  V30 15 2 15 16
M  V30 16 1 16 17
M  V30 17 2 17 18
M  V30 18 1 8 19
M  V30 19 1 2 20
M  V30 20 2 20 21
M  V30 21 1 21 22
M  V30 22 2 22 23
M  V30 23 1 23 24
M  V30 24 1 24 25
M  V30 25 2 25 26
M  V30 26 1 26 27
M  V30 27 2 27 28
M  V30 28 1 28 29
M  V30 29 2 29 30
M  V30 30 1 30 31
M  V30 31 2 31 32
M  V30 32 1 31 33
M  V30 33 1 33 34
M  V30 34 1 34 35
M  V30 35 1 26 36
M  V30 36 2 36 37
M  V30 37 1 19 4
M  V30 38 1 37 20
M  V30 39 1 18 10
M  V30 40 1 36 23
M  V30 41 1 17 13
M  V30 42 1 32 27
M  V30 43 1 35 30
M  V30 44 1 3 38
M  V30 45 1 4 39 CFG=1
M  V30 46 1 5 40
M  V30 47 1 5 41
M  V30 48 1 6 42
M  V30 49 1 6 43
M  V30 50 1 7 44
M  V30 51 1 7 45
M  V30 52 1 9 46
M  V30 53 1 9 47
M  V30 54 1 11 48
M  V30 55 1 12 49
M  V30 56 1 15 50
M  V30 57 1 16 51
M  V30 58 1 18 52
M  V30 59 1 19 53
M  V30 60 1 19 54
M  V30 61 1 21 55
M  V30 62 1 22 56
M  V30 63 1 24 57
M  V30 64 1 28 58
M  V30 65 1 29 59
M  V30 66 1 32 60
M  V30 67 1 33 61
M  V30 68 1 33 62
M  V30 69 1 34 63
M  V30 70 1 34 64
M  V30 71 1 37 65
M  V30 END BOND
M  V30 END CTAB
M  END
>  <Dataset>  (682) 
ChEMBL_Kinases

>  <Ligand_Instance>  (682) 
nan

>  <PDB_ID>  (682) 
nan

>  <Standardized_SMILES>  (682) 
O=C(N[C@@H]1CCCN(Cc2ccc3occc3c2)C1)c1ccc2[nH]nc(-c3ccc4c(c3)CCO4)c2c1

>  <Name>  (682) 
nan

>  <Pocket>  (682) 
nan

>  <ATP_Site>  (682) 
nan

>  <Peripheral>  (682) 
nan

>  <Num_H_Atoms_ProtBoundConf>  (682) 
nan

>  <Num_Resolved_Atoms>  (682) 
nan

>  <Num_Not_Resolved_Atoms>  (682) 
nan

$$$$
CHEMBL3651183
     RDKit          3D

  0  0  0  0  0  0  0  0  0  0999 V3000
M  V30 BEGIN CTAB
M  V30 COUNTS 62 67 0 0 0
M  V30 BEGIN ATOM
M  V30 1 O 0.919322 -2.879665 1.693663 0
M  V30 2 C 0.383011 -1.781674 1.906747 0
M  V30 3 N 1.154848 -0.945471 2.748173 0
M  V30 4 C 2.427007 -1.059553 3.427721 0 CFG=2
M  V30 5 C 2.453873 -0.515937 4.792750 0
M  V30 6 C 3.435161 0.620447 4.899295 0
M  V30 7 C 3.158068 1.739641 3.889909 0
M  V30 8 N 2.839212 1.160916 2.622386 0
M  V30 9 C 3.120618 1.899539 1.457786 0
M  V30 10 C 2.266415 3.030458 1.120354 0
M  V30 11 C 2.838556 3.801834 0.095119 0
M  V30 12 F 4.037479 3.567630 -0.517139 0
M  V30 13 C 2.233311 4.922644 -0.430266 0
M  V30 14 C 1.001448 5.341706 0.049408 0
M  V30 15 C 0.407757 4.598595 1.066339 0
M  V30 16 C 1.061515 3.493517 1.545330 0
M  V30 17 F 0.526763 2.705016 2.538566 0
M  V30 18 C 3.363317 -0.176311 2.558984 0
M  V30 19 C -0.903134 -1.272397 1.403880 0
M  V30 20 C -1.562618 -0.155863 1.865832 0
M  V30 21 C -2.751595 0.238090 1.283233 0
M  V30 22 C -3.337045 -0.440963 0.231430 0
M  V30 23 N -4.448872 -0.305824 -0.524250 0
M  V30 24 N -4.474296 -1.304233 -1.424213 0
M  V30 25 C -3.361405 -2.069807 -1.223028 0
M  V30 26 C -3.189341 -3.200147 -2.100166 0
M  V30 27 C -1.901588 -3.298958 -2.592991 0
M  V30 28 C -1.511068 -4.321389 -3.463077 0
M  V30 29 C -2.490171 -5.234036 -3.806520 0
M  V30 30 C -3.795573 -5.146930 -3.317785 0
M  V30 31 C -4.154806 -4.124473 -2.456636 0
M  V30 32 C -4.608911 -6.270036 -3.880553 0
M  V30 33 C -3.552356 -7.176942 -4.436612 0
M  V30 34 O -2.402230 -6.345835 -4.641707 0
M  V30 35 C -2.625806 -1.545631 -0.180104 0
M  V30 36 C -1.437061 -2.012662 0.340753 0
M  V30 37 H 0.813635 0.008870 2.997651 0
M  V30 38 H 2.767960 -2.100296 3.389377 0
M  V30 39 H 1.483806 -0.095209 5.144376 0
M  V30 40 H 2.799977 -1.293705 5.526601 0
M  V30 41 H 4.481708 0.265374 4.864658 0
M  V30 42 H 3.349829 1.106431 5.929128 0
M  V30 43 H 4.186161 2.228180 3.761168 0
M  V30 44 H 2.453945 2.466314 4.300703 0
M  V30 45 H 3.082556 1.186178 0.586059 0
M  V30 46 H 4.213180 2.200548 1.484712 0
M  V30 47 H 2.622728 5.558983 -1.226271 0
M  V30 48 H 0.498019 6.212249 -0.337109 0
M  V30 49 H -0.545645 4.841601 1.501462 0
M  V30 50 H 4.368808 -0.300123 2.975643 0
M  V30 51 H 3.302001 -0.552183 1.500241 0
M  V30 52 H -1.129324 0.390874 2.687360 0
M  V30 53 H -3.246027 1.123048 1.674948 0
M  V30 54 H -5.124534 0.489549 -0.354963 0
M  V30 55 H -1.061975 -2.620920 -2.382873 0
M  V30 56 H -0.516671 -4.441725 -3.872666 0
M  V30 57 H -5.136546 -3.983905 -2.035541 0
M  V30 58 H -5.279308 -5.850634 -4.673251 0
M  V30 59 H -5.199388 -6.694401 -3.043357 0
M  V30 60 H -3.867712 -7.593221 -5.439657 0
M  V30 61 H -3.289908 -8.012467 -3.777423 0
M  V30 62 H -0.948263 -2.896946 -0.039877 0
M  V30 END ATOM
M  V30 BEGIN BOND
M  V30 1 2 1 2
M  V30 2 1 2 3
M  V30 3 1 3 4
M  V30 4 1 4 5
M  V30 5 1 5 6
M  V30 6 1 6 7
M  V30 7 1 7 8
M  V30 8 1 8 9
M  V30 9 1 9 10
M  V30 10 2 10 11
M  V30 11 1 11 12
M  V30 12 1 11 13
M  V30 13 2 13 14
M  V30 14 1 14 15
M  V30 15 2 15 16
M  V30 16 1 16 17
M  V30 17 1 8 18
M  V30 18 1 2 19
M  V30 19 2 19 20
M  V30 20 1 20 21
M  V30 21 2 21 22
M  V30 22 1 22 23
M  V30 23 1 23 24
M  V30 24 2 24 25
M  V30 25 1 25 26
M  V30 26 2 26 27
M  V30 27 1 27 28
M  V30 28 2 28 29
M  V30 29 1 29 30
M  V30 30 2 30 31
M  V30 31 1 30 32
M  V30 32 1 32 33
M  V30 33 1 33 34
M  V30 34 1 25 35
M  V30 35 2 35 36
M  V30 36 1 18 4
M  V30 37 1 36 19
M  V30 38 1 16 10
M  V30 39 1 35 22
M  V30 40 1 31 26
M  V30 41 1 34 29
M  V30 42 1 3 37
M  V30 43 1 4 38 CFG=1
M  V30 44 1 5 39
M  V30 45 1 5 40
M  V30 46 1 6 41
M  V30 47 1 6 42
M  V30 48 1 7 43
M  V30 49 1 7 44
M  V30 50 1 9 45
M  V30 51 1 9 46
M  V30 52 1 13 47
M  V30 53 1 14 48
M  V30 54 1 15 49
M  V30 55 1 18 50
M  V30 56 1 18 51
M  V30 57 1 20 52
M  V30 58 1 21 53
M  V30 59 1 23 54
M  V30 60 1 27 55
M  V30 61 1 28 56
M  V30 62 1 31 57
M  V30 63 1 32 58
M  V30 64 1 32 59
M  V30 65 1 33 60
M  V30 66 1 33 61
M  V30 67 1 36 62
M  V30 END BOND
M  V30 END CTAB
M  END
>  <Dataset>  (683) 
ChEMBL_Kinases

>  <Ligand_Instance>  (683) 
nan

>  <PDB_ID>  (683) 
nan

>  <Standardized_SMILES>  (683) 
O=C(N[C@@H]1CCCN(Cc2c(F)cccc2F)C1)c1ccc2[nH]nc(-c3ccc4c(c3)CCO4)c2c1

>  <Name>  (683) 
nan

>  <Pocket>  (683) 
nan

>  <ATP_Site>  (683) 
nan

>  <Peripheral>  (683) 
nan

>  <Num_H_Atoms_ProtBoundConf>  (683) 
nan

>  <Num_Resolved_Atoms>  (683) 
nan

>  <Num_Not_Resolved_Atoms>  (683) 
nan

$$$$
CHEMBL3651182
     RDKit          3D

  0  0  0  0  0  0  0  0  0  0999 V3000
M  V30 BEGIN CTAB
M  V30 COUNTS 70 75 0 0 0
M  V30 BEGIN ATOM
M  V30 1 C 1.215561 -4.003926 3.528549 0
M  V30 2 N 0.998714 -4.405228 2.159169 0
M  V30 3 C 0.429755 -5.699345 1.874958 0
M  V30 4 C 1.350915 -3.512366 1.109350 0
M  V30 5 C 1.889214 -2.278604 1.410225 0
M  V30 6 C 2.230658 -1.415894 0.376555 0
M  V30 7 C 2.047471 -1.754269 -0.969178 0
M  V30 8 C 2.486340 -0.680107 -1.860847 0
M  V30 9 N 1.475171 0.275686 -2.189940 0
M  V30 10 C 0.333340 -0.227551 -2.877354 0
M  V30 11 C -0.126138 0.667373 -4.006991 0
M  V30 12 C -0.231022 2.112458 -3.643813 0
M  V30 13 C 0.908276 2.505867 -2.744424 0 CFG=1
M  V30 14 N 0.466063 2.521153 -1.363039 0
M  V30 15 C 0.539684 3.524525 -0.378304 0
M  V30 16 O 1.057959 4.644241 -0.620912 0
M  V30 17 C 0.021142 3.309318 0.956184 0
M  V30 18 C 0.128495 4.326270 1.878181 0
M  V30 19 C -0.362121 4.157549 3.175339 0
M  V30 20 C -0.966042 2.986012 3.585859 0
M  V30 21 N -1.527863 2.497267 4.708645 0
M  V30 22 N -1.956298 1.269453 4.512345 0
M  V30 23 C -1.714885 0.849783 3.254218 0
M  V30 24 C -2.034923 -0.439039 2.649758 0
M  V30 25 C -1.785558 -1.630668 3.298583 0
M  V30 26 C -2.051456 -2.894159 2.812370 0
M  V30 27 C -2.625574 -2.980014 1.548161 0
M  V30 28 C -2.888794 -1.830925 0.872416 0
M  V30 29 C -2.612464 -0.569491 1.381917 0
M  V30 30 C -3.504259 -2.130045 -0.467671 0
M  V30 31 C -3.729930 -3.605349 -0.394069 0
M  V30 32 O -3.027515 -4.057713 0.745344 0
M  V30 33 C -1.081377 1.946341 2.660074 0
M  V30 34 C -0.584627 2.153461 1.391861 0
M  V30 35 C 1.974783 1.413142 -2.897215 0
M  V30 36 C 1.507562 -2.993179 -1.243562 0
M  V30 37 C 1.166969 -3.853777 -0.214718 0
M  V30 38 H 0.642617 -3.118948 3.836700 0
M  V30 39 H 0.971375 -4.838898 4.224991 0
M  V30 40 H 2.292666 -3.712087 3.701910 0
M  V30 41 H 1.164309 -6.374019 1.393408 0
M  V30 42 H -0.391123 -5.518833 1.129384 0
M  V30 43 H -0.036345 -6.115434 2.792366 0
M  V30 44 H 2.020830 -2.040590 2.450738 0
M  V30 45 H 2.648699 -0.467526 0.750798 0
M  V30 46 H 3.403418 -0.180732 -1.519094 0
M  V30 47 H 2.779957 -1.165274 -2.837849 0
M  V30 48 H 0.606593 -1.197314 -3.385749 0
M  V30 49 H -0.543957 -0.465922 -2.260246 0
M  V30 50 H -1.152787 0.310661 -4.295819 0
M  V30 51 H 0.497693 0.528723 -4.920075 0
M  V30 52 H -1.222357 2.382105 -3.208250 0
M  V30 53 H -0.082132 2.714407 -4.585674 0
M  V30 54 H 1.366892 3.482406 -2.989803 0
M  V30 55 H 0.046247 1.594967 -1.186269 0
M  V30 56 H 0.591654 5.290239 1.643046 0
M  V30 57 H -0.280945 4.962596 3.916496 0
M  V30 58 H -1.580866 3.077904 5.586731 0
M  V30 59 H -1.335080 -1.603577 4.293786 0
M  V30 60 H -1.829306 -3.785961 3.375060 0
M  V30 61 H -2.835980 0.329870 0.818850 0
M  V30 62 H -4.437834 -1.532185 -0.612389 0
M  V30 63 H -2.778784 -1.916777 -1.298948 0
M  V30 64 H -3.370182 -4.129374 -1.325742 0
M  V30 65 H -4.824767 -3.792363 -0.337723 0
M  V30 66 H -0.678729 1.348605 0.696225 0
M  V30 67 H 2.166893 1.215300 -3.972032 0
M  V30 68 H 2.894287 1.865355 -2.481987 0
M  V30 69 H 1.401825 -3.173215 -2.298448 0
M  V30 70 H 0.749762 -4.806679 -0.493911 0
M  V30 END ATOM
M  V30 BEGIN BOND
M  V30 1 1 1 2
M  V30 2 1 2 3
M  V30 3 1 2 4
M  V30 4 2 4 5
M  V30 5 1 5 6
M  V30 6 2 6 7
M  V30 7 1 7 8
M  V30 8 1 8 9
M  V30 9 1 9 10
M  V30 10 1 10 11
M  V30 11 1 11 12
M  V30 12 1 12 13
M  V30 13 1 13 14
M  V30 14 1 14 15
M  V30 15 2 15 16
M  V30 16 1 15 17
M  V30 17 2 17 18
M  V30 18 1 18 19
M  V30 19 2 19 20
M  V30 20 1 20 21
M  V30 21 1 21 22
M  V30 22 2 22 23
M  V30 23 1 23 24
M  V30 24 2 24 25
M  V30 25 1 25 26
M  V30 26 2 26 27
M  V30 27 1 27 28
M  V30 28 2 28 29
M  V30 29 1 28 30
M  V30 30 1 30 31
M  V30 31 1 31 32
M  V30 32 1 23 33
M  V30 33 2 33 34
M  V30 34 1 13 35
M  V30 35 1 7 36
M  V30 36 2 36 37
M  V30 37 1 37 4
M  V30 38 1 35 9
M  V30 39 1 34 17
M  V30 40 1 33 20
M  V30 41 1 29 24
M  V30 42 1 32 27
M  V30 43 1 1 38
M  V30 44 1 1 39
M  V30 45 1 1 40
M  V30 46 1 3 41
M  V30 47 1 3 42
M  V30 48 1 3 43
M  V30 49 1 5 44
M  V30 50 1 6 45
M  V30 51 1 8 46
M  V30 52 1 8 47
M  V30 53 1 10 48
M  V30 54 1 10 49
M  V30 55 1 11 50
M  V30 56 1 11 51
M  V30 57 1 12 52
M  V30 58 1 12 53
M  V30 59 1 13 54 CFG=3
M  V30 60 1 14 55
M  V30 61 1 18 56
M  V30 62 1 19 57
M  V30 63 1 21 58
M  V30 64 1 25 59
M  V30 65 1 26 60
M  V30 66 1 29 61
M  V30 67 1 30 62
M  V30 68 1 30 63
M  V30 69 1 31 64
M  V30 70 1 31 65
M  V30 71 1 34 66
M  V30 72 1 35 67
M  V30 73 1 35 68
M  V30 74 1 36 69
M  V30 75 1 37 70
M  V30 END BOND
M  V30 END CTAB
M  END
>  <Dataset>  (684) 
ChEMBL_Kinases

>  <Ligand_Instance>  (684) 
nan

>  <PDB_ID>  (684) 
nan

>  <Standardized_SMILES>  (684) 
CN(C)c1ccc(CN2CCC[C@@H](NC(=O)c3ccc4[nH]nc(-c5ccc6c(c5)CCO6)c4c3)C2)cc1

>  <Name>  (684) 
nan

>  <Pocket>  (684) 
nan

>  <ATP_Site>  (684) 
nan

>  <Peripheral>  (684) 
nan

>  <Num_H_Atoms_ProtBoundConf>  (684) 
nan

>  <Num_Resolved_Atoms>  (684) 
nan

>  <Num_Not_Resolved_Atoms>  (684) 
nan

$$$$
CHEMBL3651181
     RDKit          3D

  0  0  0  0  0  0  0  0  0  0999 V3000
M  V30 BEGIN CTAB
M  V30 COUNTS 58 63 0 0 0
M  V30 BEGIN ATOM
M  V30 1 O 1.376523 2.164187 -1.117361 0
M  V30 2 C 0.737845 1.113564 -0.849963 0
M  V30 3 N 1.158300 0.187158 0.119448 0
M  V30 4 C 2.302638 0.160105 0.992179 0 CFG=2
M  V30 5 C 3.150069 -1.085873 0.839403 0
M  V30 6 C 4.350195 -0.907768 1.747426 0
M  V30 7 C 3.968195 -0.596999 3.171625 0
M  V30 8 N 2.973392 0.421896 3.288044 0
M  V30 9 C 3.538448 1.726975 3.227185 0
M  V30 10 C 2.549076 2.832441 3.342745 0
M  V30 11 N 1.898499 3.455690 2.558863 0
M  V30 12 C 1.055250 4.423991 2.882072 0
M  V30 13 C 0.903148 4.754991 4.244544 0
M  V30 14 S 2.121732 3.500751 4.988187 0
M  V30 15 C 1.854617 0.172547 2.441512 0
M  V30 16 C -0.491499 0.877541 -1.599746 0
M  V30 17 C -0.863754 1.819280 -2.541916 0
M  V30 18 C -2.026353 1.676071 -3.307500 0
M  V30 19 C -2.842881 0.577422 -3.140786 0
M  V30 20 N -3.990477 0.109395 -3.666052 0
M  V30 21 N -4.311774 -1.034935 -3.098011 0
M  V30 22 C -3.394012 -1.381912 -2.168930 0
M  V30 23 C -3.468306 -2.595983 -1.367694 0
M  V30 24 C -4.650475 -2.991212 -0.773741 0
M  V30 25 C -4.666286 -4.150382 -0.024968 0
M  V30 26 C -3.537883 -4.949256 0.163236 0
M  V30 27 C -2.351938 -4.543721 -0.438388 0
M  V30 28 C -2.350570 -3.380396 -1.185713 0
M  V30 29 C -1.322231 -5.567392 -0.077234 0
M  V30 30 C -2.202550 -6.768297 0.229955 0
M  V30 31 O -3.305671 -6.138467 0.859899 0
M  V30 32 C -2.468950 -0.360884 -2.199804 0
M  V30 33 C -1.319635 -0.194287 -1.460611 0
M  V30 34 H 0.650179 -0.690860 0.362057 0
M  V30 35 H 2.967019 1.026158 0.872404 0
M  V30 36 H 3.516090 -1.252556 -0.174860 0
M  V30 37 H 2.590596 -1.974721 1.200832 0
M  V30 38 H 4.987496 -0.116039 1.330372 0
M  V30 39 H 4.899236 -1.871192 1.736807 0
M  V30 40 H 3.702877 -1.507967 3.751177 0
M  V30 41 H 4.887102 -0.200353 3.670951 0
M  V30 42 H 4.111406 1.928619 2.300059 0
M  V30 43 H 4.259183 1.822519 4.064386 0
M  V30 44 H 0.536475 4.893800 2.030017 0
M  V30 45 H 0.193663 5.567185 4.495544 0
M  V30 46 H 1.513955 -0.865410 2.654681 0
M  V30 47 H 1.003872 0.821265 2.631001 0
M  V30 48 H -0.285922 2.732054 -2.755443 0
M  V30 49 H -2.313973 2.420252 -4.047159 0
M  V30 50 H -4.529312 0.597552 -4.412355 0
M  V30 51 H -5.568187 -2.413129 -0.880818 0
M  V30 52 H -5.577676 -4.468240 0.441332 0
M  V30 53 H -1.390884 -3.149961 -1.610003 0
M  V30 54 H -0.723752 -5.260177 0.786381 0
M  V30 55 H -0.745896 -5.793301 -0.984848 0
M  V30 56 H -1.702483 -7.521174 0.839228 0
M  V30 57 H -2.557827 -7.144575 -0.761075 0
M  V30 58 H -1.051308 -0.943841 -0.731310 0
M  V30 END ATOM
M  V30 BEGIN BOND
M  V30 1 2 1 2
M  V30 2 1 2 3
M  V30 3 1 3 4
M  V30 4 1 4 5
M  V30 5 1 5 6
M  V30 6 1 6 7
M  V30 7 1 7 8
M  V30 8 1 8 9
M  V30 9 1 9 10
M  V30 10 2 10 11
M  V30 11 1 11 12
M  V30 12 2 12 13
M  V30 13 1 13 14
M  V30 14 1 8 15
M  V30 15 1 2 16
M  V30 16 2 16 17
M  V30 17 1 17 18
M  V30 18 2 18 19
M  V30 19 1 19 20
M  V30 20 1 20 21
M  V30 21 2 21 22
M  V30 22 1 22 23
M  V30 23 2 23 24
M  V30 24 1 24 25
M  V30 25 2 25 26
M  V30 26 1 26 27
M  V30 27 2 27 28
M  V30 28 1 27 29
M  V30 29 1 29 30
M  V30 30 1 30 31
M  V30 31 1 22 32
M  V30 32 2 32 33
M  V30 33 1 15 4
M  V30 34 1 33 16
M  V30 35 1 14 10
M  V30 36 1 32 19
M  V30 37 1 28 23
M  V30 38 1 31 26
M  V30 39 1 3 34
M  V30 40 1 4 35 CFG=3
M  V30 41 1 5 36
M  V30 42 1 5 37
M  V30 43 1 6 38
M  V30 44 1 6 39
M  V30 45 1 7 40
M  V30 46 1 7 41
M  V30 47 1 9 42
M  V30 48 1 9 43
M  V30 49 1 12 44
M  V30 50 1 13 45
M  V30 51 1 15 46
M  V30 52 1 15 47
M  V30 53 1 17 48
M  V30 54 1 18 49
M  V30 55 1 20 50
M  V30 56 1 24 51
M  V30 57 1 25 52
M  V30 58 1 28 53
M  V30 59 1 29 54
M  V30 60 1 29 55
M  V30 61 1 30 56
M  V30 62 1 30 57
M  V30 63 1 33 58
M  V30 END BOND
M  V30 END CTAB
M  END
>  <Dataset>  (685) 
ChEMBL_Kinases

>  <Ligand_Instance>  (685) 
nan

>  <PDB_ID>  (685) 
nan

>  <Standardized_SMILES>  (685) 
O=C(N[C@@H]1CCCN(Cc2nccs2)C1)c1ccc2[nH]nc(-c3ccc4c(c3)CCO4)c2c1

>  <Name>  (685) 
nan

>  <Pocket>  (685) 
nan

>  <ATP_Site>  (685) 
nan

>  <Peripheral>  (685) 
nan

>  <Num_H_Atoms_ProtBoundConf>  (685) 
nan

>  <Num_Resolved_Atoms>  (685) 
nan

>  <Num_Not_Resolved_Atoms>  (685) 
nan

$$$$
CHEMBL3651180
     RDKit          3D

  0  0  0  0  0  0  0  0  0  0999 V3000
M  V30 BEGIN CTAB
M  V30 COUNTS 63 68 0 0 0
M  V30 BEGIN ATOM
M  V30 1 N 1.496617 -3.052516 5.550597 0
M  V30 2 C 1.688511 -1.990621 5.164371 0
M  V30 3 C 1.936350 -0.656737 4.684874 0
M  V30 4 C 1.809402 0.436034 5.518359 0
M  V30 5 C 2.041323 1.734634 5.086359 0
M  V30 6 C 2.418796 1.965166 3.759910 0
M  V30 7 C 2.551387 0.886201 2.910023 0
M  V30 8 C 2.937093 0.949048 1.497502 0
M  V30 9 N 1.796979 1.089242 0.588359 0
M  V30 10 C 2.381442 1.131881 -0.731888 0
M  V30 11 C 1.486905 1.706566 -1.774438 0
M  V30 12 C 0.800317 2.968661 -1.367987 0
M  V30 13 C 0.081504 2.677765 -0.043622 0 CFG=1
M  V30 14 N -0.890850 1.619890 -0.181238 0
M  V30 15 C -2.275988 1.727823 0.032266 0
M  V30 16 O -2.735886 2.850231 0.378706 0
M  V30 17 C -3.224069 0.646606 -0.114527 0
M  V30 18 C -4.555637 0.896554 0.127795 0
M  V30 19 C -5.517925 -0.106511 0.002727 0
M  V30 20 C -5.169282 -1.403965 -0.373159 0
M  V30 21 N -5.774045 -2.575314 -0.588951 0
M  V30 22 N -4.871543 -3.488530 -0.941823 0
M  V30 23 C -3.637766 -2.949102 -0.970814 0
M  V30 24 C -2.443158 -3.715608 -1.325724 0
M  V30 25 C -2.375869 -4.581306 -2.396362 0
M  V30 26 C -1.218148 -5.287958 -2.694058 0
M  V30 27 C -0.098821 -5.132047 -1.910027 0
M  V30 28 C -0.111922 -4.281449 -0.830365 0
M  V30 29 C -1.281290 -3.599271 -0.570014 0
M  V30 30 C 1.209310 -4.319166 -0.188183 0
M  V30 31 C 2.061936 -5.169948 -1.086678 0
M  V30 32 O 1.150362 -5.719406 -2.007551 0
M  V30 33 C -3.829516 -1.631502 -0.610899 0
M  V30 34 C -2.888956 -0.636320 -0.484910 0
M  V30 35 C 1.155872 2.337344 0.949842 0
M  V30 36 C 2.314381 -0.404611 3.363501 0
M  V30 37 H 1.514473 0.257825 6.555389 0
M  V30 38 H 1.940401 2.601145 5.748233 0
M  V30 39 H 2.617924 2.950149 3.345966 0
M  V30 40 H 3.548279 0.102715 1.160688 0
M  V30 41 H 3.564265 1.860377 1.269549 0
M  V30 42 H 2.608215 0.077105 -1.016795 0
M  V30 43 H 3.375709 1.651322 -0.705263 0
M  V30 44 H 0.757782 1.001277 -2.182443 0
M  V30 45 H 2.155550 1.983046 -2.641853 0
M  V30 46 H 0.028450 3.222434 -2.104345 0
M  V30 47 H 1.484580 3.807266 -1.160355 0
M  V30 48 H -0.420351 3.619601 0.262670 0
M  V30 49 H -0.490882 0.700522 -0.468137 0
M  V30 50 H -4.965096 1.843800 0.423043 0
M  V30 51 H -6.584794 0.069304 0.190680 0
M  V30 52 H -6.817617 -2.701168 -0.480636 0
M  V30 53 H -3.267844 -4.693626 -3.005921 0
M  V30 54 H -1.177782 -5.961991 -3.533944 0
M  V30 55 H -1.250817 -2.938773 0.289605 0
M  V30 56 H 1.092645 -4.733694 0.829949 0
M  V30 57 H 1.658913 -3.310313 -0.073147 0
M  V30 58 H 2.575676 -5.955848 -0.485485 0
M  V30 59 H 2.855878 -4.561510 -1.597748 0
M  V30 60 H -1.840096 -0.819124 -0.672221 0
M  V30 61 H 1.869626 3.194954 0.957651 0
M  V30 62 H 0.696018 2.188342 1.938528 0
M  V30 63 H 2.397615 -1.309460 2.754663 0
M  V30 END ATOM
M  V30 BEGIN BOND
M  V30 1 3 1 2
M  V30 2 1 2 3
M  V30 3 2 3 4
M  V30 4 1 4 5
M  V30 5 2 5 6
M  V30 6 1 6 7
M  V30 7 1 7 8
M  V30 8 1 8 9
M  V30 9 1 9 10
M  V30 10 1 10 11
M  V30 11 1 11 12
M  V30 12 1 12 13
M  V30 13 1 13 14
M  V30 14 1 14 15
M  V30 15 2 15 16
M  V30 16 1 15 17
M  V30 17 2 17 18
M  V30 18 1 18 19
M  V30 19 2 19 20
M  V30 20 1 20 21
M  V30 21 1 21 22
M  V30 22 2 22 23
M  V30 23 1 23 24
M  V30 24 2 24 25
M  V30 25 1 25 26
M  V30 26 2 26 27
M  V30 27 1 27 28
M  V30 28 2 28 29
M  V30 29 1 28 30
M  V30 30 1 30 31
M  V30 31 1 31 32
M  V30 32 1 23 33
M  V30 33 2 33 34
M  V30 34 1 13 35
M  V30 35 2 7 36
M  V30 36 1 36 3
M  V30 37 1 35 9
M  V30 38 1 34 17
M  V30 39 1 33 20
M  V30 40 1 29 24
M  V30 41 1 32 27
M  V30 42 1 4 37
M  V30 43 1 5 38
M  V30 44 1 6 39
M  V30 45 1 8 40
M  V30 46 1 8 41
M  V30 47 1 10 42
M  V30 48 1 10 43
M  V30 49 1 11 44
M  V30 50 1 11 45
M  V30 51 1 12 46
M  V30 52 1 12 47
M  V30 53 1 13 48 CFG=1
M  V30 54 1 14 49
M  V30 55 1 18 50
M  V30 56 1 19 51
M  V30 57 1 21 52
M  V30 58 1 25 53
M  V30 59 1 26 54
M  V30 60 1 29 55
M  V30 61 1 30 56
M  V30 62 1 30 57
M  V30 63 1 31 58
M  V30 64 1 31 59
M  V30 65 1 34 60
M  V30 66 1 35 61
M  V30 67 1 35 62
M  V30 68 1 36 63
M  V30 END BOND
M  V30 END CTAB
M  END
>  <Dataset>  (686) 
ChEMBL_Kinases

>  <Ligand_Instance>  (686) 
nan

>  <PDB_ID>  (686) 
nan

>  <Standardized_SMILES>  (686) 
N#Cc1cccc(CN2CCC[C@@H](NC(=O)c3ccc4[nH]nc(-c5ccc6c(c5)CCO6)c4c3)C2)c1

>  <Name>  (686) 
nan

>  <Pocket>  (686) 
nan

>  <ATP_Site>  (686) 
nan

>  <Peripheral>  (686) 
nan

>  <Num_H_Atoms_ProtBoundConf>  (686) 
nan

>  <Num_Resolved_Atoms>  (686) 
nan

>  <Num_Not_Resolved_Atoms>  (686) 
nan

$$$$
CHEMBL3651179
     RDKit          3D

  0  0  0  0  0  0  0  0  0  0999 V3000
M  V30 BEGIN CTAB
M  V30 COUNTS 61 66 0 0 0
M  V30 BEGIN ATOM
M  V30 1 O -0.217130 -1.942988 4.804641 0
M  V30 2 C -0.465186 -1.709619 3.590891 0
M  V30 3 N 0.454804 -0.851058 2.952386 0
M  V30 4 C 1.606803 -0.246050 3.538712 0 CFG=2
M  V30 5 C 1.544175 1.228725 3.780760 0
M  V30 6 C 2.020748 2.064789 2.609816 0
M  V30 7 C 3.484433 1.625102 2.441700 0
M  V30 8 N 3.444482 0.306840 1.980582 0
M  V30 9 C 3.642234 0.024959 0.618556 0
M  V30 10 C 2.667480 0.685282 -0.297634 0
M  V30 11 C 1.467405 0.094622 -0.648144 0
M  V30 12 C 0.654011 0.813853 -1.506973 0
M  V30 13 N 0.939597 2.022889 -2.016172 0
M  V30 14 C 2.100293 2.613393 -1.687293 0
M  V30 15 C 2.955682 1.947466 -0.834572 0
M  V30 16 C 2.848378 -0.677842 2.809651 0
M  V30 17 C -1.635443 -2.337700 3.020558 0
M  V30 18 C -2.451567 -3.053592 3.850876 0
M  V30 19 C -3.594142 -3.689624 3.369034 0
M  V30 20 C -3.942101 -3.620525 2.040832 0
M  V30 21 N -4.922055 -4.080609 1.243405 0
M  V30 22 N -4.705614 -3.669591 0.022225 0
M  V30 23 C -3.585746 -2.931970 -0.022283 0
M  V30 24 C -3.182244 -2.390459 -1.312746 0
M  V30 25 C -4.100993 -1.775430 -2.154897 0
M  V30 26 C -3.707559 -1.270257 -3.391827 0
M  V30 27 C -2.384478 -1.362369 -3.827664 0
M  V30 28 C -1.499372 -1.975161 -2.974997 0
M  V30 29 C -1.863782 -2.482352 -1.747882 0
M  V30 30 C -0.163208 -1.971065 -3.628764 0
M  V30 31 C -0.320244 -0.890694 -4.674962 0
M  V30 32 O -1.702525 -0.967467 -4.971776 0
M  V30 33 C -3.069578 -2.878352 1.253927 0
M  V30 34 C -1.939544 -2.234564 1.667110 0
M  V30 35 H 0.258450 -0.644612 1.935491 0
M  V30 36 H 1.661305 -0.688275 4.560688 0
M  V30 37 H 0.603189 1.537787 4.220574 0
M  V30 38 H 2.328632 1.459119 4.565443 0
M  V30 39 H 1.529967 1.819476 1.671909 0
M  V30 40 H 1.941453 3.131282 2.885625 0
M  V30 41 H 4.050301 2.264586 1.769307 0
M  V30 42 H 3.945688 1.635086 3.468485 0
M  V30 43 H 4.654981 0.381860 0.306997 0
M  V30 44 H 3.677310 -1.082017 0.449400 0
M  V30 45 H 1.199425 -0.877894 -0.259845 0
M  V30 46 H -0.298583 0.411689 -1.818460 0
M  V30 47 H 2.339172 3.588712 -2.092226 0
M  V30 48 H 3.866663 2.474915 -0.610194 0
M  V30 49 H 2.619876 -1.555476 2.164668 0
M  V30 50 H 3.657907 -1.043760 3.491935 0
M  V30 51 H -2.278863 -3.180013 4.922804 0
M  V30 52 H -4.262578 -4.266413 4.017036 0
M  V30 53 H -5.692226 -4.675872 1.665631 0
M  V30 54 H -5.147018 -1.668338 -1.875983 0
M  V30 55 H -4.371584 -0.780100 -4.093971 0
M  V30 56 H -1.175692 -2.970501 -1.060898 0
M  V30 57 H 0.008166 -2.971582 -4.089115 0
M  V30 58 H 0.620707 -1.736812 -2.878102 0
M  V30 59 H 0.328863 -1.061361 -5.557519 0
M  V30 60 H -0.159955 0.096487 -4.208360 0
M  V30 61 H -1.311388 -1.677166 0.987035 0
M  V30 END ATOM
M  V30 BEGIN BOND
M  V30 1 2 1 2
M  V30 2 1 2 3
M  V30 3 1 3 4
M  V30 4 1 4 5
M  V30 5 1 5 6
M  V30 6 1 6 7
M  V30 7 1 7 8
M  V30 8 1 8 9
M  V30 9 1 9 10
M  V30 10 2 10 11
M  V30 11 1 11 12
M  V30 12 2 12 13
M  V30 13 1 13 14
M  V30 14 2 14 15
M  V30 15 1 8 16
M  V30 16 1 2 17
M  V30 17 2 17 18
M  V30 18 1 18 19
M  V30 19 2 19 20
M  V30 20 1 20 21
M  V30 21 1 21 22
M  V30 22 2 22 23
M  V30 23 1 23 24
M  V30 24 2 24 25
M  V30 25 1 25 26
M  V30 26 2 26 27
M  V30 27 1 27 28
M  V30 28 2 28 29
M  V30 29 1 28 30
M  V30 30 1 30 31
M  V30 31 1 31 32
M  V30 32 1 23 33
M  V30 33 2 33 34
M  V30 34 1 16 4
M  V30 35 1 34 17
M  V30 36 1 15 10
M  V30 37 1 33 20
M  V30 38 1 29 24
M  V30 39 1 32 27
M  V30 40 1 3 35
M  V30 41 1 4 36 CFG=1
M  V30 42 1 5 37
M  V30 43 1 5 38
M  V30 44 1 6 39
M  V30 45 1 6 40
M  V30 46 1 7 41
M  V30 47 1 7 42
M  V30 48 1 9 43
M  V30 49 1 9 44
M  V30 50 1 11 45
M  V30 51 1 12 46
M  V30 52 1 14 47
M  V30 53 1 15 48
M  V30 54 1 16 49
M  V30 55 1 16 50
M  V30 56 1 18 51
M  V30 57 1 19 52
M  V30 58 1 21 53
M  V30 59 1 25 54
M  V30 60 1 26 55
M  V30 61 1 29 56
M  V30 62 1 30 57
M  V30 63 1 30 58
M  V30 64 1 31 59
M  V30 65 1 31 60
M  V30 66 1 34 61
M  V30 END BOND
M  V30 END CTAB
M  END
>  <Dataset>  (687) 
ChEMBL_Kinases

>  <Ligand_Instance>  (687) 
nan

>  <PDB_ID>  (687) 
nan

>  <Standardized_SMILES>  (687) 
O=C(N[C@@H]1CCCN(Cc2ccncc2)C1)c1ccc2[nH]nc(-c3ccc4c(c3)CCO4)c2c1

>  <Name>  (687) 
nan

>  <Pocket>  (687) 
nan

>  <ATP_Site>  (687) 
nan

>  <Peripheral>  (687) 
nan

>  <Num_H_Atoms_ProtBoundConf>  (687) 
nan

>  <Num_Resolved_Atoms>  (687) 
nan

>  <Num_Not_Resolved_Atoms>  (687) 
nan

$$$$
CHEMBL3651178
     RDKit          3D

  0  0  0  0  0  0  0  0  0  0999 V3000
M  V30 BEGIN CTAB
M  V30 COUNTS 63 68 0 0 0
M  V30 BEGIN ATOM
M  V30 1 N -0.120388 -1.728931 7.316038 0
M  V30 2 C 0.445769 -1.265516 6.414486 0
M  V30 3 C 1.165307 -0.708706 5.293257 0
M  V30 4 C 1.350617 -1.482311 4.164809 0
M  V30 5 C 2.035882 -0.975253 3.075879 0
M  V30 6 C 2.528600 0.310177 3.136166 0
M  V30 7 C 3.283545 1.016145 2.071775 0
M  V30 8 N 2.411649 1.712693 1.212682 0
M  V30 9 C 2.972791 2.434509 0.147520 0
M  V30 10 C 2.027382 2.758944 -0.975152 0
M  V30 11 C 0.670329 3.191433 -0.510979 0
M  V30 12 C 0.129931 2.452128 0.682243 0 CFG=1
M  V30 13 N -0.767497 1.375841 0.284566 0
M  V30 14 C -2.151696 1.451763 0.561348 0
M  V30 15 O -2.625177 2.450088 1.154811 0
M  V30 16 C -3.095522 0.403188 0.185558 0
M  V30 17 C -4.427917 0.572900 0.501383 0
M  V30 18 C -5.405261 -0.367377 0.186638 0
M  V30 19 C -5.017473 -1.519676 -0.471265 0
M  V30 20 N -5.700495 -2.582788 -0.899574 0
M  V30 21 N -4.850179 -3.418896 -1.474640 0
M  V30 22 C -3.596285 -2.943505 -1.445950 0
M  V30 23 C -2.395404 -3.578773 -1.978133 0
M  V30 24 C -2.405862 -4.164931 -3.241284 0
M  V30 25 C -1.316268 -4.784830 -3.817700 0
M  V30 26 C -0.120344 -4.832065 -3.093763 0
M  V30 27 C -0.078631 -4.257649 -1.834246 0
M  V30 28 C -1.202015 -3.647395 -1.301784 0
M  V30 29 C 1.313824 -4.453414 -1.293061 0
M  V30 30 C 2.080717 -4.562754 -2.606879 0
M  V30 31 O 1.150191 -5.362253 -3.353182 0
M  V30 32 C -3.676844 -1.719131 -0.803777 0
M  V30 33 C -2.738438 -0.757095 -0.471173 0
M  V30 34 C 1.141908 2.069471 1.700006 0
M  V30 35 C 2.326528 1.068537 4.288661 0
M  V30 36 C 1.647967 0.586235 5.385037 0
M  V30 37 H 0.977261 -2.500750 4.078613 0
M  V30 38 H 2.231293 -1.500775 2.151887 0
M  V30 39 H 3.821005 0.228290 1.483110 0
M  V30 40 H 4.044903 1.697587 2.512296 0
M  V30 41 H 3.807169 1.853865 -0.298541 0
M  V30 42 H 3.446306 3.368650 0.560239 0
M  V30 43 H 1.936629 1.915149 -1.690760 0
M  V30 44 H 2.472209 3.601276 -1.546489 0
M  V30 45 H -0.041379 3.017323 -1.348341 0
M  V30 46 H 0.677625 4.298425 -0.360348 0
M  V30 47 H -0.548776 3.205882 1.186904 0
M  V30 48 H -0.370133 0.545704 -0.209347 0
M  V30 49 H -4.840062 1.434395 1.014305 0
M  V30 50 H -6.450781 -0.263293 0.419502 0
M  V30 51 H -6.743786 -2.746380 -0.804486 0
M  V30 52 H -3.295167 -4.160058 -3.844347 0
M  V30 53 H -1.345317 -5.229957 -4.791504 0
M  V30 54 H -1.139071 -3.208340 -0.317728 0
M  V30 55 H 1.640126 -3.583160 -0.685379 0
M  V30 56 H 1.413303 -5.410046 -0.774356 0
M  V30 57 H 3.060066 -5.031494 -2.509172 0
M  V30 58 H 2.096838 -3.589384 -3.157294 0
M  V30 59 H -1.699288 -0.911026 -0.728577 0
M  V30 60 H 0.748327 1.193727 2.287169 0
M  V30 61 H 1.288993 2.851278 2.500147 0
M  V30 62 H 2.685590 2.098865 4.418225 0
M  V30 63 H 1.479411 1.150874 6.284239 0
M  V30 END ATOM
M  V30 BEGIN BOND
M  V30 1 3 1 2
M  V30 2 1 2 3
M  V30 3 2 3 4
M  V30 4 1 4 5
M  V30 5 2 5 6
M  V30 6 1 6 7
M  V30 7 1 7 8
M  V30 8 1 8 9
M  V30 9 1 9 10
M  V30 10 1 10 11
M  V30 11 1 11 12
M  V30 12 1 12 13
M  V30 13 1 13 14
M  V30 14 2 14 15
M  V30 15 1 14 16
M  V30 16 2 16 17
M  V30 17 1 17 18
M  V30 18 2 18 19
M  V30 19 1 19 20
M  V30 20 1 20 21
M  V30 21 2 21 22
M  V30 22 1 22 23
M  V30 23 2 23 24
M  V30 24 1 24 25
M  V30 25 2 25 26
M  V30 26 1 26 27
M  V30 27 2 27 28
M  V30 28 1 27 29
M  V30 29 1 29 30
M  V30 30 1 30 31
M  V30 31 1 22 32
M  V30 32 2 32 33
M  V30 33 1 12 34
M  V30 34 1 6 35
M  V30 35 2 35 36
M  V30 36 1 36 3
M  V30 37 1 34 8
M  V30 38 1 33 16
M  V30 39 1 32 19
M  V30 40 1 28 23
M  V30 41 1 31 26
M  V30 42 1 4 37
M  V30 43 1 5 38
M  V30 44 1 7 39
M  V30 45 1 7 40
M  V30 46 1 9 41
M  V30 47 1 9 42
M  V30 48 1 10 43
M  V30 49 1 10 44
M  V30 50 1 11 45
M  V30 51 1 11 46
M  V30 52 1 12 47 CFG=1
M  V30 53 1 13 48
M  V30 54 1 17 49
M  V30 55 1 18 50
M  V30 56 1 20 51
M  V30 57 1 24 52
M  V30 58 1 25 53
M  V30 59 1 28 54
M  V30 60 1 29 55
M  V30 61 1 29 56
M  V30 62 1 30 57
M  V30 63 1 30 58
M  V30 64 1 33 59
M  V30 65 1 34 60
M  V30 66 1 34 61
M  V30 67 1 35 62
M  V30 68 1 36 63
M  V30 END BOND
M  V30 END CTAB
M  END
>  <Dataset>  (688) 
ChEMBL_Kinases

>  <Ligand_Instance>  (688) 
nan

>  <PDB_ID>  (688) 
nan

>  <Standardized_SMILES>  (688) 
N#Cc1ccc(CN2CCC[C@@H](NC(=O)c3ccc4[nH]nc(-c5ccc6c(c5)CCO6)c4c3)C2)cc1

>  <Name>  (688) 
nan

>  <Pocket>  (688) 
nan

>  <ATP_Site>  (688) 
nan

>  <Peripheral>  (688) 
nan

>  <Num_H_Atoms_ProtBoundConf>  (688) 
nan

>  <Num_Resolved_Atoms>  (688) 
nan

>  <Num_Not_Resolved_Atoms>  (688) 
nan

$$$$
CHEMBL3651177
     RDKit          3D

  0  0  0  0  0  0  0  0  0  0999 V3000
M  V30 BEGIN CTAB
M  V30 COUNTS 65 70 0 0 0
M  V30 BEGIN ATOM
M  V30 1 O -1.208430 -4.025622 2.127777 0
M  V30 2 C -1.103049 -2.792913 2.148893 0
M  V30 3 N -0.227464 -2.088111 1.282982 0
M  V30 4 C 0.664341 -2.618436 0.264603 0 CFG=2
M  V30 5 C 2.091645 -2.186821 0.493092 0
M  V30 6 C 2.899682 -2.843832 -0.605629 0
M  V30 7 C 2.026069 -3.337968 -1.731896 0
M  V30 8 N 1.054394 -2.378359 -2.153903 0
M  V30 9 C 0.250816 -2.843806 -3.262416 0
M  V30 10 C 1.025816 -3.159595 -4.460235 0
M  V30 11 C 1.313034 -4.466483 -4.848189 0
M  V30 12 C 2.058508 -4.713544 -6.000606 0
M  V30 13 C 2.507817 -3.670055 -6.750198 0
M  V30 14 C 2.218699 -2.392725 -6.358160 0
M  V30 15 C 1.479754 -2.074884 -5.219246 0
M  V30 16 C 1.222895 -0.659658 -4.885396 0
M  V30 17 F 1.801537 0.203764 -5.828154 0
M  V30 18 F 1.827431 -0.380762 -3.691994 0
M  V30 19 F -0.124923 -0.354691 -4.902359 0
M  V30 20 C 0.205839 -2.024979 -1.044943 0
M  V30 21 C -1.923267 -2.068314 3.110982 0
M  V30 22 C -2.771882 -2.811541 3.928994 0
M  V30 23 C -3.594496 -2.199447 4.879813 0
M  V30 24 C -3.575529 -0.825753 5.022326 0
M  V30 25 N -4.212865 0.081670 5.809959 0
M  V30 26 N -3.810718 1.312105 5.526260 0
M  V30 27 C -2.888136 1.274111 4.536928 0
M  V30 28 C -2.227168 2.441834 3.969306 0
M  V30 29 C -2.117894 2.522658 2.599004 0
M  V30 30 C -1.497939 3.609176 1.991292 0
M  V30 31 C -0.974201 4.638515 2.748981 0
M  V30 32 C -1.077999 4.568983 4.131261 0
M  V30 33 C -1.701263 3.476918 4.743322 0
M  V30 34 C -0.461208 5.757164 4.770605 0
M  V30 35 C 0.154880 6.477077 3.594684 0
M  V30 36 O -0.321871 5.811410 2.451014 0
M  V30 37 C -2.736103 -0.071683 4.215603 0
M  V30 38 C -1.948155 -0.703159 3.299372 0
M  V30 39 H -0.122674 -1.050163 1.282930 0
M  V30 40 H 0.606397 -3.721593 0.214854 0
M  V30 41 H 2.484984 -2.451177 1.496950 0
M  V30 42 H 2.103239 -1.081359 0.299728 0
M  V30 43 H 3.694330 -2.168581 -0.991225 0
M  V30 44 H 3.423521 -3.724984 -0.167853 0
M  V30 45 H 1.594715 -4.319720 -1.438940 0
M  V30 46 H 2.721809 -3.522109 -2.586794 0
M  V30 47 H -0.600316 -2.152336 -3.405074 0
M  V30 48 H -0.221894 -3.811823 -2.920436 0
M  V30 49 H 0.963419 -5.295473 -4.263313 0
M  V30 50 H 2.305935 -5.724096 -6.340069 0
M  V30 51 H 3.093942 -3.869838 -7.655453 0
M  V30 52 H 2.573848 -1.546323 -6.952489 0
M  V30 53 H -0.831642 -2.449007 -1.198934 0
M  V30 54 H 0.104303 -0.925447 -0.919821 0
M  V30 55 H -2.842556 -3.902953 3.875734 0
M  V30 56 H -4.255952 -2.782456 5.516146 0
M  V30 57 H -4.925950 -0.229359 6.533648 0
M  V30 58 H -2.473971 1.807129 1.889941 0
M  V30 59 H -1.385123 3.722624 0.920868 0
M  V30 60 H -1.798315 3.394134 5.817009 0
M  V30 61 H 0.286674 5.507579 5.550100 0
M  V30 62 H -1.304585 6.365267 5.208861 0
M  V30 63 H -0.145388 7.542881 3.624282 0
M  V30 64 H 1.264485 6.424585 3.642045 0
M  V30 65 H -1.292895 -0.125457 2.668366 0
M  V30 END ATOM
M  V30 BEGIN BOND
M  V30 1 2 1 2
M  V30 2 1 2 3
M  V30 3 1 3 4
M  V30 4 1 4 5
M  V30 5 1 5 6
M  V30 6 1 6 7
M  V30 7 1 7 8
M  V30 8 1 8 9
M  V30 9 1 9 10
M  V30 10 2 10 11
M  V30 11 1 11 12
M  V30 12 2 12 13
M  V30 13 1 13 14
M  V30 14 2 14 15
M  V30 15 1 15 16
M  V30 16 1 16 17
M  V30 17 1 16 18
M  V30 18 1 16 19
M  V30 19 1 8 20
M  V30 20 1 2 21
M  V30 21 2 21 22
M  V30 22 1 22 23
M  V30 23 2 23 24
M  V30 24 1 24 25
M  V30 25 1 25 26
M  V30 26 2 26 27
M  V30 27 1 27 28
M  V30 28 2 28 29
M  V30 29 1 29 30
M  V30 30 2 30 31
M  V30 31 1 31 32
M  V30 32 2 32 33
M  V30 33 1 32 34
M  V30 34 1 34 35
M  V30 35 1 35 36
M  V30 36 1 27 37
M  V30 37 2 37 38
M  V30 38 1 20 4
M  V30 39 1 38 21
M  V30 40 1 15 10
M  V30 41 1 37 24
M  V30 42 1 33 28
M  V30 43 1 36 31
M  V30 44 1 3 39
M  V30 45 1 4 40 CFG=3
M  V30 46 1 5 41
M  V30 47 1 5 42
M  V30 48 1 6 43
M  V30 49 1 6 44
M  V30 50 1 7 45
M  V30 51 1 7 46
M  V30 52 1 9 47
M  V30 53 1 9 48
M  V30 54 1 11 49
M  V30 55 1 12 50
M  V30 56 1 13 51
M  V30 57 1 14 52
M  V30 58 1 20 53
M  V30 59 1 20 54
M  V30 60 1 22 55
M  V30 61 1 23 56
M  V30 62 1 25 57
M  V30 63 1 29 58
M  V30 64 1 30 59
M  V30 65 1 33 60
M  V30 66 1 34 61
M  V30 67 1 34 62
M  V30 68 1 35 63
M  V30 69 1 35 64
M  V30 70 1 38 65
M  V30 END BOND
M  V30 END CTAB
M  END
>  <Dataset>  (689) 
ChEMBL_Kinases

>  <Ligand_Instance>  (689) 
nan

>  <PDB_ID>  (689) 
nan

>  <Standardized_SMILES>  (689) 
O=C(N[C@@H]1CCCN(Cc2ccccc2C(F)(F)F)C1)c1ccc2[nH]nc(-c3ccc4c(c3)CCO4)c2c1

>  <Name>  (689) 
nan

>  <Pocket>  (689) 
nan

>  <ATP_Site>  (689) 
nan

>  <Peripheral>  (689) 
nan

>  <Num_H_Atoms_ProtBoundConf>  (689) 
nan

>  <Num_Resolved_Atoms>  (689) 
nan

>  <Num_Not_Resolved_Atoms>  (689) 
nan

$$$$
CHEMBL3651176
     RDKit          3D

  0  0  0  0  0  0  0  0  0  0999 V3000
M  V30 BEGIN CTAB
M  V30 COUNTS 61 66 0 0 0
M  V30 BEGIN ATOM
M  V30 1 O 0.254929 -1.688161 4.326937 0
M  V30 2 C -0.288077 -1.440669 3.217552 0
M  V30 3 N 0.414060 -0.606875 2.314530 0
M  V30 4 C 1.688367 -0.053063 2.623568 0 CFG=2
M  V30 5 C 1.672684 1.462858 2.799414 0
M  V30 6 C 2.922124 1.762138 3.643741 0
M  V30 7 C 4.094500 0.977416 3.107101 0
M  V30 8 N 3.821791 0.522849 1.803449 0
M  V30 9 C 4.394292 1.174505 0.718447 0
M  V30 10 C 3.998745 0.524748 -0.554723 0
M  V30 11 C 4.836955 -0.489674 -0.987784 0
M  V30 12 C 4.548599 -1.149122 -2.164946 0
M  V30 13 C 3.432236 -0.770848 -2.866665 0
M  V30 14 C 2.599937 0.244794 -2.424956 0
M  V30 15 N 2.898681 0.882412 -1.265467 0
M  V30 16 C 2.786945 -0.411943 1.637449 0
M  V30 17 C -1.579837 -2.048177 3.000749 0
M  V30 18 C -2.128706 -2.832972 3.990931 0
M  V30 19 C -3.378452 -3.436902 3.814186 0
M  V30 20 C -4.107361 -3.274334 2.651904 0
M  V30 21 N -5.300655 -3.743431 2.263300 0
M  V30 22 N -5.510203 -3.271022 1.051766 0
M  V30 23 C -4.484871 -2.502595 0.633944 0
M  V30 24 C -4.366602 -1.814919 -0.645765 0
M  V30 25 C -5.377869 -1.052656 -1.242067 0
M  V30 26 C -5.158237 -0.443153 -2.468754 0
M  V30 27 C -3.957472 -0.550564 -3.155939 0
M  V30 28 C -2.993954 -1.309035 -2.531146 0
M  V30 29 C -3.139106 -1.951784 -1.301551 0
M  V30 30 C -1.792906 -1.308980 -3.402171 0
M  V30 31 C -2.339481 -0.856324 -4.724410 0
M  V30 32 O -3.454866 -0.073108 -4.357451 0
M  V30 33 C -3.548566 -2.482507 1.657669 0
M  V30 34 C -2.319836 -1.891494 1.838675 0
M  V30 35 H -0.068366 -0.421802 1.395125 0
M  V30 36 H 1.953161 -0.438006 3.652380 0
M  V30 37 H 0.772954 1.781652 3.334973 0
M  V30 38 H 1.859513 1.973740 1.834244 0
M  V30 39 H 2.634821 1.472232 4.677042 0
M  V30 40 H 3.160648 2.841633 3.585363 0
M  V30 41 H 4.220197 0.067477 3.764889 0
M  V30 42 H 5.038318 1.549246 3.145159 0
M  V30 43 H 3.950025 2.208846 0.659561 0
M  V30 44 H 5.497528 1.283614 0.733237 0
M  V30 45 H 5.730394 -0.836364 -0.484548 0
M  V30 46 H 5.124944 -1.963671 -2.620161 0
M  V30 47 H 3.047890 -1.175457 -3.811292 0
M  V30 48 H 1.710932 0.639767 -2.860859 0
M  V30 49 H 3.185030 -1.427085 1.939575 0
M  V30 50 H 2.426847 -0.479290 0.610914 0
M  V30 51 H -1.632906 -3.023502 4.950315 0
M  V30 52 H -3.801262 -4.050178 4.591983 0
M  V30 53 H -5.965786 -4.366718 2.789451 0
M  V30 54 H -6.300429 -0.982805 -0.692306 0
M  V30 55 H -5.959641 0.132453 -2.893977 0
M  V30 56 H -2.323191 -2.535115 -0.889505 0
M  V30 57 H -1.333524 -2.318366 -3.468061 0
M  V30 58 H -1.032222 -0.584802 -3.012485 0
M  V30 59 H -2.572582 -1.687417 -5.412911 0
M  V30 60 H -1.596056 -0.146609 -5.148097 0
M  V30 61 H -1.892844 -1.271492 1.063901 0
M  V30 END ATOM
M  V30 BEGIN BOND
M  V30 1 2 1 2
M  V30 2 1 2 3
M  V30 3 1 3 4
M  V30 4 1 4 5
M  V30 5 1 5 6
M  V30 6 1 6 7
M  V30 7 1 7 8
M  V30 8 1 8 9
M  V30 9 1 9 10
M  V30 10 2 10 11
M  V30 11 1 11 12
M  V30 12 2 12 13
M  V30 13 1 13 14
M  V30 14 2 14 15
M  V30 15 1 8 16
M  V30 16 1 2 17
M  V30 17 2 17 18
M  V30 18 1 18 19
M  V30 19 2 19 20
M  V30 20 1 20 21
M  V30 21 1 21 22
M  V30 22 2 22 23
M  V30 23 1 23 24
M  V30 24 2 24 25
M  V30 25 1 25 26
M  V30 26 2 26 27
M  V30 27 1 27 28
M  V30 28 2 28 29
M  V30 29 1 28 30
M  V30 30 1 30 31
M  V30 31 1 31 32
M  V30 32 1 23 33
M  V30 33 2 33 34
M  V30 34 1 16 4
M  V30 35 1 34 17
M  V30 36 1 15 10
M  V30 37 1 33 20
M  V30 38 1 29 24
M  V30 39 1 32 27
M  V30 40 1 3 35
M  V30 41 1 4 36 CFG=1
M  V30 42 1 5 37
M  V30 43 1 5 38
M  V30 44 1 6 39
M  V30 45 1 6 40
M  V30 46 1 7 41
M  V30 47 1 7 42
M  V30 48 1 9 43
M  V30 49 1 9 44
M  V30 50 1 11 45
M  V30 51 1 12 46
M  V30 52 1 13 47
M  V30 53 1 14 48
M  V30 54 1 16 49
M  V30 55 1 16 50
M  V30 56 1 18 51
M  V30 57 1 19 52
M  V30 58 1 21 53
M  V30 59 1 25 54
M  V30 60 1 26 55
M  V30 61 1 29 56
M  V30 62 1 30 57
M  V30 63 1 30 58
M  V30 64 1 31 59
M  V30 65 1 31 60
M  V30 66 1 34 61
M  V30 END BOND
M  V30 END CTAB
M  END
>  <Dataset>  (690) 
ChEMBL_Kinases

>  <Ligand_Instance>  (690) 
nan

>  <PDB_ID>  (690) 
nan

>  <Standardized_SMILES>  (690) 
O=C(N[C@@H]1CCCN(Cc2ccccn2)C1)c1ccc2[nH]nc(-c3ccc4c(c3)CCO4)c2c1

>  <Name>  (690) 
nan

>  <Pocket>  (690) 
nan

>  <ATP_Site>  (690) 
nan

>  <Peripheral>  (690) 
nan

>  <Num_H_Atoms_ProtBoundConf>  (690) 
nan

>  <Num_Resolved_Atoms>  (690) 
nan

>  <Num_Not_Resolved_Atoms>  (690) 
nan

$$$$
CHEMBL364990
     RDKit          3D

  0  0  0  0  0  0  0  0  0  0999 V3000
M  V30 BEGIN CTAB
M  V30 COUNTS 33 35 0 0 0
M  V30 BEGIN ATOM
M  V30 1 C 0.025622 -3.308837 2.811354 0
M  V30 2 C -0.165026 -3.311452 1.293124 0
M  V30 3 N 0.120483 -1.987221 0.771899 0
M  V30 4 C 1.301565 -1.501940 0.347382 0
M  V30 5 C 2.556628 -2.246484 0.333399 0
M  V30 6 N 2.772935 -3.515499 0.726625 0
M  V30 7 O 4.025162 -3.823215 0.561736 0
M  V30 8 N 4.666076 -2.823158 0.075859 0
M  V30 9 C 3.789991 -1.795910 -0.090402 0
M  V30 10 N 4.063573 -0.494302 -0.601183 0
M  V30 11 N 1.170443 -0.228180 -0.065982 0
M  V30 12 C -0.131477 0.157865 0.082527 0
M  V30 13 C -0.843926 1.316143 -0.164689 0
M  V30 14 C -2.194800 1.365394 0.111244 0
M  V30 15 C -2.996192 2.559628 -0.129134 0
M  V30 16 C -2.411648 3.798164 -0.685469 0
M  V30 17 O -4.229529 2.655115 0.105240 0
M  V30 18 C -2.813058 0.246782 0.633348 0
M  V30 19 C -2.132271 -0.928113 0.893197 0
M  V30 20 C -0.763064 -0.958905 0.606883 0
M  V30 21 H 1.060193 -3.070909 3.107103 0
M  V30 22 H -0.395354 -4.212161 3.263900 0
M  V30 23 H -0.610726 -2.462131 3.189975 0
M  V30 24 H 0.445849 -4.065525 0.789111 0
M  V30 25 H -1.243054 -3.537402 1.143882 0
M  V30 26 H 3.848588 0.440521 -0.173502 0
M  V30 27 H 4.541242 -0.356577 -1.521678 0
M  V30 28 H -0.331596 2.175966 -0.574063 0
M  V30 29 H -2.929199 4.715516 -0.388597 0
M  V30 30 H -1.356583 3.926843 -0.356858 0
M  V30 31 H -2.335941 3.748879 -1.809180 0
M  V30 32 H -3.872857 0.300656 0.844543 0
M  V30 33 H -2.691068 -1.761623 1.303511 0
M  V30 END ATOM
M  V30 BEGIN BOND
M  V30 1 1 1 2
M  V30 2 1 2 3
M  V30 3 1 3 4
M  V30 4 1 4 5
M  V30 5 2 5 6
M  V30 6 1 6 7
M  V30 7 1 7 8
M  V30 8 2 8 9
M  V30 9 1 9 10
M  V30 10 2 4 11
M  V30 11 1 11 12
M  V30 12 2 12 13
M  V30 13 1 13 14
M  V30 14 1 14 15
M  V30 15 1 15 16
M  V30 16 2 15 17
M  V30 17 2 14 18
M  V30 18 1 18 19
M  V30 19 2 19 20
M  V30 20 1 20 3
M  V30 21 1 9 5
M  V30 22 1 20 12
M  V30 23 1 1 21
M  V30 24 1 1 22
M  V30 25 1 1 23
M  V30 26 1 2 24
M  V30 27 1 2 25
M  V30 28 1 10 26
M  V30 29 1 10 27
M  V30 30 1 13 28
M  V30 31 1 16 29
M  V30 32 1 16 30
M  V30 33 1 16 31
M  V30 34 1 18 32
M  V30 35 1 19 33
M  V30 END BOND
M  V30 END CTAB
M  END
>  <Dataset>  (691) 
ChEMBL_Kinases

>  <Ligand_Instance>  (691) 
nan

>  <PDB_ID>  (691) 
nan

>  <Standardized_SMILES>  (691) 
CCn1c(-c2nonc2N)nc2cc(C(C)=O)ccc21

>  <Name>  (691) 
nan

>  <Pocket>  (691) 
nan

>  <ATP_Site>  (691) 
nan

>  <Peripheral>  (691) 
nan

>  <Num_H_Atoms_ProtBoundConf>  (691) 
nan

>  <Num_Resolved_Atoms>  (691) 
nan

>  <Num_Not_Resolved_Atoms>  (691) 
nan

$$$$
CHEMBL3650697
     RDKit          3D

  0  0  0  0  0  0  0  0  0  0999 V3000
M  V30 BEGIN CTAB
M  V30 COUNTS 50 54 0 0 0
M  V30 BEGIN ATOM
M  V30 1 N -2.863274 -2.662274 0.317250 0
M  V30 2 C -1.744659 -2.691845 0.026236 0
M  V30 3 C -0.358931 -2.709745 -0.322712 0
M  V30 4 C 0.496821 -1.669568 -0.022103 0
M  V30 5 C 1.837793 -1.620291 -0.327114 0
M  V30 6 C 2.698978 -0.500354 0.011469 0
M  V30 7 C 4.032002 -0.509615 -0.320582 0
M  V30 8 C 4.825061 0.563247 0.011496 0
M  V30 9 N 4.249844 1.585273 0.654773 0
M  V30 10 C 2.953994 1.650906 1.005381 0
M  V30 11 N 2.488559 2.801278 1.684758 0
M  V30 12 C 1.174558 3.071208 2.140924 0
M  V30 13 C 0.080457 2.246533 2.005798 0
M  V30 14 C -1.191352 2.523668 2.455212 0
M  V30 15 C -1.411988 3.709905 3.091775 0
M  V30 16 C -0.359638 4.572841 3.255952 0
M  V30 17 C 0.882030 4.249459 2.791264 0
M  V30 18 C -0.855577 5.793643 3.977199 0
M  V30 19 C -2.288711 5.504085 4.188644 0
M  V30 20 O -3.007572 6.333316 4.773125 0
M  V30 21 N -2.611037 4.231990 3.643634 0
M  V30 22 N 2.246991 0.581150 0.653680 0
M  V30 23 C 2.291962 -2.735940 -0.986355 0
M  V30 24 C 1.496492 -3.814359 -1.320530 0
M  V30 25 C 0.156694 -3.805165 -0.987098 0
M  V30 26 N -0.689111 -4.893912 -1.314037 0
M  V30 27 C -1.387510 -5.640443 -0.280226 0
M  V30 28 C -2.709437 -5.932103 -0.944422 0
M  V30 29 C -2.516641 -5.705090 -2.427906 0
M  V30 30 C -1.038056 -5.477773 -2.599915 0
M  V30 31 H 0.023501 -0.851037 0.495956 0
M  V30 32 H 4.529227 -1.315108 -0.838342 0
M  V30 33 H 5.880417 0.591533 -0.233890 0
M  V30 34 H 3.190667 3.553213 1.880958 0
M  V30 35 H 0.199922 1.296906 1.510292 0
M  V30 36 H -2.003354 1.819541 2.309727 0
M  V30 37 H 1.680559 4.982698 2.954344 0
M  V30 38 H -0.685740 6.718920 3.424896 0
M  V30 39 H -0.396082 5.808807 4.993100 0
M  V30 40 H -3.565386 3.818652 3.675996 0
M  V30 41 H 3.319329 -2.843460 -1.291344 0
M  V30 42 H 1.873825 -4.679507 -1.837913 0
M  V30 43 H -0.905572 -6.619359 -0.081604 0
M  V30 44 H -1.485257 -5.097960 0.667948 0
M  V30 45 H -3.529576 -5.264887 -0.626056 0
M  V30 46 H -3.023086 -6.986644 -0.816026 0
M  V30 47 H -3.016641 -4.764660 -2.766951 0
M  V30 48 H -2.811071 -6.576220 -3.028947 0
M  V30 49 H -0.780840 -4.829401 -3.436191 0
M  V30 50 H -0.472064 -6.453491 -2.622259 0
M  V30 END ATOM
M  V30 BEGIN BOND
M  V30 1 3 1 2
M  V30 2 1 2 3
M  V30 3 2 3 4
M  V30 4 1 4 5
M  V30 5 1 5 6
M  V30 6 2 6 7
M  V30 7 1 7 8
M  V30 8 2 8 9
M  V30 9 1 9 10
M  V30 10 1 10 11
M  V30 11 1 11 12
M  V30 12 2 12 13
M  V30 13 1 13 14
M  V30 14 2 14 15
M  V30 15 1 15 16
M  V30 16 2 16 17
M  V30 17 1 16 18
M  V30 18 1 18 19
M  V30 19 2 19 20
M  V30 20 1 19 21
M  V30 21 2 10 22
M  V30 22 2 5 23
M  V30 23 1 23 24
M  V30 24 2 24 25
M  V30 25 1 25 26
M  V30 26 1 26 27
M  V30 27 1 27 28
M  V30 28 1 28 29
M  V30 29 1 29 30
M  V30 30 1 25 3
M  V30 31 1 30 26
M  V30 32 1 22 6
M  V30 33 1 17 12
M  V30 34 1 21 15
M  V30 35 1 4 31
M  V30 36 1 7 32
M  V30 37 1 8 33
M  V30 38 1 11 34
M  V30 39 1 13 35
M  V30 40 1 14 36
M  V30 41 1 17 37
M  V30 42 1 18 38
M  V30 43 1 18 39
M  V30 44 1 21 40
M  V30 45 1 23 41
M  V30 46 1 24 42
M  V30 47 1 27 43
M  V30 48 1 27 44
M  V30 49 1 28 45
M  V30 50 1 28 46
M  V30 51 1 29 47
M  V30 52 1 29 48
M  V30 53 1 30 49
M  V30 54 1 30 50
M  V30 END BOND
M  V30 END CTAB
M  END
>  <Dataset>  (692) 
ChEMBL_Kinases

>  <Ligand_Instance>  (692) 
nan

>  <PDB_ID>  (692) 
nan

>  <Standardized_SMILES>  (692) 
N#Cc1cc(-c2ccnc(Nc3ccc4c(c3)CC(=O)N4)n2)ccc1N1CCCC1

>  <Name>  (692) 
nan

>  <Pocket>  (692) 
nan

>  <ATP_Site>  (692) 
nan

>  <Peripheral>  (692) 
nan

>  <Num_H_Atoms_ProtBoundConf>  (692) 
nan

>  <Num_Resolved_Atoms>  (692) 
nan

>  <Num_Not_Resolved_Atoms>  (692) 
nan

$$$$
CHEMBL365072
     RDKit          3D

  0  0  0  0  0  0  0  0  0  0999 V3000
M  V30 BEGIN CTAB
M  V30 COUNTS 33 35 0 0 0
M  V30 BEGIN ATOM
M  V30 1 C 0.155433 -1.320539 4.270603 0
M  V30 2 C 0.913514 -2.288809 3.382327 0
M  V30 3 C 0.165478 -2.510367 2.104817 0
M  V30 4 N -0.514105 -3.654420 1.934070 0
M  V30 5 C -1.198838 -3.892777 0.800252 0
M  V30 6 C -1.183405 -2.926600 -0.184730 0
M  V30 7 C -0.473749 -1.741034 0.002979 0
M  V30 8 C 0.236967 -1.495560 1.182012 0
M  V30 9 N 0.793345 -0.285519 1.034703 0
M  V30 10 C 0.437423 0.181426 -0.176516 0
M  V30 11 C 0.851032 1.477775 -0.702531 0
M  V30 12 N 0.575254 2.061509 -1.873908 0
M  V30 13 O 1.130346 3.219933 -1.967890 0
M  V30 14 N 1.806463 3.501699 -0.895730 0
M  V30 15 C 1.639793 2.415568 -0.091558 0
M  V30 16 N 2.240920 2.359639 1.181436 0
M  V30 17 N -0.346165 -0.693170 -0.841599 0
M  V30 18 C -0.934268 -0.586685 -2.145697 0
M  V30 19 C -2.299377 0.042535 -2.141596 0
M  V30 20 H -0.806680 -1.036022 3.762472 0
M  V30 21 H 0.690599 -0.375930 4.453493 0
M  V30 22 H -0.159345 -1.789322 5.230587 0
M  V30 23 H 1.021906 -3.243608 3.916606 0
M  V30 24 H 1.897564 -1.835539 3.122582 0
M  V30 25 H -1.751963 -4.803607 0.639276 0
M  V30 26 H -1.737079 -3.132181 -1.086706 0
M  V30 27 H 3.218872 2.029800 1.396708 0
M  V30 28 H 2.768898 2.276060 2.035880 0
M  V30 29 H -0.267923 0.021157 -2.786183 0
M  V30 30 H -0.937744 -1.597737 -2.583011 0
M  V30 31 H -2.246576 1.160051 -2.231442 0
M  V30 32 H -2.897664 -0.217888 -1.261743 0
M  V30 33 H -2.847946 -0.301910 -3.044857 0
M  V30 END ATOM
M  V30 BEGIN BOND
M  V30 1 1 1 2
M  V30 2 1 2 3
M  V30 3 2 3 4
M  V30 4 1 4 5
M  V30 5 2 5 6
M  V30 6 1 6 7
M  V30 7 2 7 8
M  V30 8 1 8 9
M  V30 9 2 9 10
M  V30 10 1 10 11
M  V30 11 2 11 12
M  V30 12 1 12 13
M  V30 13 1 13 14
M  V30 14 2 14 15
M  V30 15 1 15 16
M  V30 16 1 10 17
M  V30 17 1 17 18
M  V30 18 1 18 19
M  V30 19 1 8 3
M  V30 20 1 15 11
M  V30 21 1 17 7
M  V30 22 1 1 20
M  V30 23 1 1 21
M  V30 24 1 1 22
M  V30 25 1 2 23
M  V30 26 1 2 24
M  V30 27 1 5 25
M  V30 28 1 6 26
M  V30 29 1 16 27
M  V30 30 1 16 28
M  V30 31 1 18 29
M  V30 32 1 18 30
M  V30 33 1 19 31
M  V30 34 1 19 32
M  V30 35 1 19 33
M  V30 END BOND
M  V30 END CTAB
M  END
>  <Dataset>  (693) 
ChEMBL_Kinases

>  <Ligand_Instance>  (693) 
nan

>  <PDB_ID>  (693) 
nan

>  <Standardized_SMILES>  (693) 
CCc1nccc2c1nc(-c1nonc1N)n2CC

>  <Name>  (693) 
nan

>  <Pocket>  (693) 
nan

>  <ATP_Site>  (693) 
nan

>  <Peripheral>  (693) 
nan

>  <Num_H_Atoms_ProtBoundConf>  (693) 
nan

>  <Num_Resolved_Atoms>  (693) 
nan

>  <Num_Not_Resolved_Atoms>  (693) 
nan

$$$$
CHEMBL365076
     RDKit          3D

  0  0  0  0  0  0  0  0  0  0999 V3000
M  V30 BEGIN CTAB
M  V30 COUNTS 46 49 0 0 0
M  V30 BEGIN ATOM
M  V30 1 C -1.688507 -4.849861 1.511909 0
M  V30 2 N -1.234347 -4.110177 0.368504 0
M  V30 3 C -0.086257 -4.635221 -0.278601 0
M  V30 4 C 0.613749 -3.529697 -1.018905 0
M  V30 5 C -0.216033 -2.330286 -1.318178 0
M  V30 6 C 0.157951 -1.156355 -0.449576 0
M  V30 7 N 0.731923 -0.007645 -0.874313 0
M  V30 8 C 0.939742 0.842351 0.140190 0
M  V30 9 C 1.541538 2.162674 0.031978 0
M  V30 10 C 0.918071 3.214710 -0.618218 0
M  V30 11 C 1.457813 4.475546 -0.746546 0
M  V30 12 C 2.695468 4.741225 -0.205077 0
M  V30 13 F 3.249349 5.965138 -0.315623 0
M  V30 14 C 3.370495 3.734761 0.456866 0
M  V30 15 C 2.774747 2.500768 0.548271 0
M  V30 16 C 0.481790 0.215525 1.258357 0
M  V30 17 C 0.459629 0.682803 2.638064 0
M  V30 18 C -0.865860 0.795582 3.079377 0
M  V30 19 C -1.137532 1.226594 4.381340 0
M  V30 20 N -0.139110 1.531647 5.206484 0
M  V30 21 C 1.120321 1.420347 4.775268 0
M  V30 22 C 1.448248 1.003521 3.511053 0
M  V30 23 N 0.010550 -0.998852 0.877165 0
M  V30 24 C -1.687649 -2.556401 -1.391215 0
M  V30 25 C -2.243187 -3.599671 -0.489010 0
M  V30 26 H -2.511122 -5.539723 1.332445 0
M  V30 27 H -0.804401 -5.385380 1.928444 0
M  V30 28 H -2.001033 -4.118832 2.306115 0
M  V30 29 H 0.596544 -5.051791 0.505973 0
M  V30 30 H -0.305431 -5.500072 -0.956850 0
M  V30 31 H 1.042290 -3.969199 -1.939802 0
M  V30 32 H 1.490945 -3.186468 -0.398656 0
M  V30 33 H 0.090075 -1.983869 -2.351992 0
M  V30 34 H -0.068748 3.070916 -1.071395 0
M  V30 35 H 0.971884 5.298003 -1.254194 0
M  V30 36 H 4.342303 3.946285 0.881145 0
M  V30 37 H 3.347935 1.758300 1.071102 0
M  V30 38 H -1.779251 0.579360 2.509541 0
M  V30 39 H -2.152932 1.326563 4.763018 0
M  V30 40 H 1.934696 1.666024 5.436927 0
M  V30 41 H 2.421142 0.884687 3.086606 0
M  V30 42 H -0.401630 -1.700013 1.516082 0
M  V30 43 H -2.172974 -1.555316 -1.246407 0
M  V30 44 H -1.991326 -2.834318 -2.442359 0
M  V30 45 H -3.014694 -3.098697 0.162992 0
M  V30 46 H -2.818879 -4.391957 -1.030397 0
M  V30 END ATOM
M  V30 BEGIN BOND
M  V30 1 1 1 2
M  V30 2 1 2 3
M  V30 3 1 3 4
M  V30 4 1 4 5
M  V30 5 1 5 6
M  V30 6 2 6 7
M  V30 7 1 7 8
M  V30 8 1 8 9
M  V30 9 2 9 10
M  V30 10 1 10 11
M  V30 11 2 11 12
M  V30 12 1 12 13
M  V30 13 1 12 14
M  V30 14 2 14 15
M  V30 15 2 8 16
M  V30 16 1 16 17
M  V30 17 2 17 18
M  V30 18 1 18 19
M  V30 19 2 19 20
M  V30 20 1 20 21
M  V30 21 2 21 22
M  V30 22 1 16 23
M  V30 23 1 5 24
M  V30 24 1 24 25
M  V30 25 1 25 2
M  V30 26 1 23 6
M  V30 27 1 15 9
M  V30 28 1 22 17
M  V30 29 1 1 26
M  V30 30 1 1 27
M  V30 31 1 1 28
M  V30 32 1 3 29
M  V30 33 1 3 30
M  V30 34 1 4 31
M  V30 35 1 4 32
M  V30 36 1 5 33
M  V30 37 1 10 34
M  V30 38 1 11 35
M  V30 39 1 14 36
M  V30 40 1 15 37
M  V30 41 1 18 38
M  V30 42 1 19 39
M  V30 43 1 21 40
M  V30 44 1 22 41
M  V30 45 1 23 42
M  V30 46 1 24 43
M  V30 47 1 24 44
M  V30 48 1 25 45
M  V30 49 1 25 46
M  V30 END BOND
M  V30 END CTAB
M  END
>  <Dataset>  (694) 
ChEMBL_Kinases

>  <Ligand_Instance>  (694) 
nan

>  <PDB_ID>  (694) 
nan

>  <Standardized_SMILES>  (694) 
CN1CCC(c2nc(-c3ccc(F)cc3)c(-c3ccncc3)[nH]2)CC1

>  <Name>  (694) 
nan

>  <Pocket>  (694) 
nan

>  <ATP_Site>  (694) 
nan

>  <Peripheral>  (694) 
nan

>  <Num_H_Atoms_ProtBoundConf>  (694) 
nan

>  <Num_Resolved_Atoms>  (694) 
nan

>  <Num_Not_Resolved_Atoms>  (694) 
nan

$$$$
CHEMBL3651155
     RDKit          3D

  0  0  0  0  0  0  0  0  0  0999 V3000
M  V30 BEGIN CTAB
M  V30 COUNTS 43 46 0 0 0
M  V30 BEGIN ATOM
M  V30 1 C -1.503628 -4.502202 0.931838 0
M  V30 2 Si -0.447729 -2.964124 0.624347 0 VAL=4
M  V30 3 C 1.305311 -3.628601 0.480181 0
M  V30 4 C -1.055365 -2.197192 -0.937814 0
M  V30 5 C -0.610642 -1.858310 2.092824 0
M  V30 6 C -0.122289 -0.609628 2.137387 0
M  V30 7 C 0.608852 0.206855 1.178097 0
M  V30 8 N 0.976225 -0.289599 -0.016717 0
M  V30 9 C 1.649826 0.512687 -0.861125 0
M  V30 10 C 2.022818 -0.007562 -2.086928 0
M  V30 11 C 2.720865 0.737174 -3.030087 0
M  V30 12 C 3.050277 2.050177 -2.719228 0
M  V30 13 C 2.690306 2.608544 -1.491972 0
M  V30 14 C 2.001419 1.816783 -0.605844 0
M  V30 15 C 1.638026 2.352621 0.611219 0
M  V30 16 C 0.947986 1.515410 1.464167 0
M  V30 17 C 0.553088 2.086038 2.777567 0
M  V30 18 Cl 0.257953 3.832020 2.668987 0
M  V30 19 C -0.705795 1.433221 3.313615 0
M  V30 20 C -0.438276 -0.024842 3.465846 0
M  V30 21 C -1.566954 -0.842100 3.984827 0
M  V30 22 C -1.277643 -2.189115 3.371297 0
M  V30 23 O -1.493626 -3.371769 3.742706 0
M  V30 24 H -1.187654 -4.900691 1.927050 0
M  V30 25 H -2.586731 -4.244667 0.925352 0
M  V30 26 H -1.316184 -5.216461 0.124660 0
M  V30 27 H 1.319527 -4.517938 -0.155479 0
M  V30 28 H 2.046450 -2.861755 0.262719 0
M  V30 29 H 1.546316 -3.985893 1.523513 0
M  V30 30 H -0.257075 -2.131898 -1.728066 0
M  V30 31 H -1.559768 -1.202171 -0.776140 0
M  V30 32 H -1.855958 -2.806621 -1.454126 0
M  V30 33 H 1.805034 -1.012764 -2.400278 0
M  V30 34 H 3.029167 0.366247 -3.996848 0
M  V30 35 H 3.593667 2.700523 -3.397908 0
M  V30 36 H 2.944848 3.629433 -1.246796 0
M  V30 37 H 1.876556 3.364755 0.884550 0
M  V30 38 H 1.358807 1.928958 3.519693 0
M  V30 39 H -0.860575 1.902036 4.326865 0
M  V30 40 H -1.543609 1.607160 2.634479 0
M  V30 41 H 0.475325 -0.197557 4.092537 0
M  V30 42 H -2.551349 -0.464352 3.645434 0
M  V30 43 H -1.502831 -1.002212 5.082390 0
M  V30 END ATOM
M  V30 BEGIN BOND
M  V30 1 1 1 2
M  V30 2 1 2 3
M  V30 3 1 2 4
M  V30 4 1 2 5
M  V30 5 2 5 6
M  V30 6 1 6 7
M  V30 7 2 7 8
M  V30 8 1 8 9
M  V30 9 2 9 10
M  V30 10 1 10 11
M  V30 11 2 11 12
M  V30 12 1 12 13
M  V30 13 2 13 14
M  V30 14 1 14 15
M  V30 15 2 15 16
M  V30 16 1 16 17
M  V30 17 1 17 18
M  V30 18 1 17 19
M  V30 19 1 19 20
M  V30 20 1 20 21
M  V30 21 1 21 22
M  V30 22 2 22 23
M  V30 23 1 22 5
M  V30 24 1 20 6
M  V30 25 1 16 7
M  V30 26 1 14 9
M  V30 27 1 1 24
M  V30 28 1 1 25
M  V30 29 1 1 26
M  V30 30 1 3 27
M  V30 31 1 3 28
M  V30 32 1 3 29
M  V30 33 1 4 30
M  V30 34 1 4 31
M  V30 35 1 4 32
M  V30 36 1 10 33
M  V30 37 1 11 34
M  V30 38 1 12 35
M  V30 39 1 13 36
M  V30 40 1 15 37
M  V30 41 1 17 38
M  V30 42 1 19 39
M  V30 43 1 19 40
M  V30 44 1 20 41
M  V30 45 1 21 42
M  V30 46 1 21 43
M  V30 END BOND
M  V30 END CTAB
M  END
>  <Dataset>  (695) 
ChEMBL_Kinases

>  <Ligand_Instance>  (695) 
nan

>  <PDB_ID>  (695) 
nan

>  <Standardized_SMILES>  (695) 
C[Si](C)(C)C1=C2c3nc4ccccc4cc3C(Cl)CC2CC1=O

>  <Name>  (695) 
nan

>  <Pocket>  (695) 
nan

>  <ATP_Site>  (695) 
nan

>  <Peripheral>  (695) 
nan

>  <Num_H_Atoms_ProtBoundConf>  (695) 
nan

>  <Num_Resolved_Atoms>  (695) 
nan

>  <Num_Not_Resolved_Atoms>  (695) 
nan

$$$$
CHEMBL3651162
     RDKit          3D

  0  0  0  0  0  0  0  0  0  0999 V3000
M  V30 BEGIN CTAB
M  V30 COUNTS 56 60 0 0 0
M  V30 BEGIN ATOM
M  V30 1 O 0.721272 -2.947157 1.190639 0
M  V30 2 C 0.174719 -1.891907 0.781166 0
M  V30 3 N 0.881046 -0.673915 0.986954 0
M  V30 4 C 2.189470 -0.448091 1.624796 0 CFG=2
M  V30 5 C 2.076783 0.398363 2.836238 0
M  V30 6 C 3.092448 1.468340 3.044864 0
M  V30 7 C 4.137960 1.541699 1.961164 0
M  V30 8 N 3.503996 1.329641 0.752737 0
M  V30 9 C 3.192532 2.258963 -0.195712 0
M  V30 10 C 2.199085 3.253914 0.243584 0
M  V30 11 C 0.880531 3.019435 -0.171132 0
M  V30 12 C -0.215127 3.794983 0.123980 0
M  V30 13 C -0.033671 4.918851 0.900664 0
M  V30 14 C 1.242180 5.199237 1.336842 0
M  V30 15 C 2.300661 4.388613 1.010920 0
M  V30 16 F 3.545698 4.689564 1.433057 0
M  V30 17 C 3.147582 -0.032034 0.571640 0
M  V30 18 C -1.120264 -1.835314 0.117142 0
M  V30 19 C -1.780365 -0.711427 -0.331033 0
M  V30 20 C -3.004819 -0.760801 -0.948807 0
M  V30 21 C -3.645687 -1.983486 -1.152652 0
M  V30 22 N -4.820441 -2.313488 -1.717391 0
M  V30 23 N -4.930075 -3.632929 -1.641699 0
M  V30 24 C -3.837876 -4.142251 -1.035273 0
M  V30 25 C -3.644694 -5.576675 -0.796061 0
M  V30 26 C -3.959274 -6.363737 -1.895618 0
M  V30 27 C -3.827017 -7.745565 -1.824082 0
M  V30 28 N -3.390413 -8.339822 -0.682723 0
M  V30 29 C -3.082884 -7.566693 0.392962 0
M  V30 30 Cl -2.511318 -8.227733 1.913016 0
M  V30 31 C -3.205402 -6.187443 0.349364 0
M  V30 32 C -2.976887 -3.108681 -0.700125 0
M  V30 33 C -1.746768 -3.065918 -0.078605 0
M  V30 34 H 0.562326 0.278327 0.704223 0
M  V30 35 H 2.482560 -1.494757 1.942638 0
M  V30 36 H 1.072051 0.877828 2.833793 0
M  V30 37 H 2.054751 -0.237058 3.768022 0
M  V30 38 H 2.644635 2.477041 3.134934 0
M  V30 39 H 3.649831 1.332377 4.009726 0
M  V30 40 H 4.732652 2.456272 2.087176 0
M  V30 41 H 4.878770 0.713796 2.234898 0
M  V30 42 H 4.118655 2.865914 -0.447705 0
M  V30 43 H 2.855116 1.834909 -1.166419 0
M  V30 44 H 0.645142 2.157467 -0.785800 0
M  V30 45 H -1.204163 3.565567 -0.222516 0
M  V30 46 H -0.821218 5.573086 1.176662 0
M  V30 47 H 1.466019 6.065438 1.951905 0
M  V30 48 H 4.092143 -0.643165 0.644322 0
M  V30 49 H 2.747874 -0.271272 -0.432533 0
M  V30 50 H -1.272751 0.227820 -0.166864 0
M  V30 51 H -3.476038 0.153743 -1.279717 0
M  V30 52 H -5.476437 -1.606522 -2.121149 0
M  V30 53 H -4.315670 -5.969186 -2.848056 0
M  V30 54 H -4.077781 -8.357881 -2.696361 0
M  V30 55 H -2.979494 -5.514976 1.163478 0
M  V30 56 H -1.308450 -3.997168 0.237370 0
M  V30 END ATOM
M  V30 BEGIN BOND
M  V30 1 2 1 2
M  V30 2 1 2 3
M  V30 3 1 3 4
M  V30 4 1 4 5
M  V30 5 1 5 6
M  V30 6 1 6 7
M  V30 7 1 7 8
M  V30 8 1 8 9
M  V30 9 1 9 10
M  V30 10 2 10 11
M  V30 11 1 11 12
M  V30 12 2 12 13
M  V30 13 1 13 14
M  V30 14 2 14 15
M  V30 15 1 15 16
M  V30 16 1 8 17
M  V30 17 1 2 18
M  V30 18 2 18 19
M  V30 19 1 19 20
M  V30 20 2 20 21
M  V30 21 1 21 22
M  V30 22 1 22 23
M  V30 23 2 23 24
M  V30 24 1 24 25
M  V30 25 2 25 26
M  V30 26 1 26 27
M  V30 27 2 27 28
M  V30 28 1 28 29
M  V30 29 1 29 30
M  V30 30 2 29 31
M  V30 31 1 24 32
M  V30 32 2 32 33
M  V30 33 1 17 4
M  V30 34 1 33 18
M  V30 35 1 15 10
M  V30 36 1 32 21
M  V30 37 1 31 25
M  V30 38 1 3 34
M  V30 39 1 4 35 CFG=1
M  V30 40 1 5 36
M  V30 41 1 5 37
M  V30 42 1 6 38
M  V30 43 1 6 39
M  V30 44 1 7 40
M  V30 45 1 7 41
M  V30 46 1 9 42
M  V30 47 1 9 43
M  V30 48 1 11 44
M  V30 49 1 12 45
M  V30 50 1 13 46
M  V30 51 1 14 47
M  V30 52 1 17 48
M  V30 53 1 17 49
M  V30 54 1 19 50
M  V30 55 1 20 51
M  V30 56 1 22 52
M  V30 57 1 26 53
M  V30 58 1 27 54
M  V30 59 1 31 55
M  V30 60 1 33 56
M  V30 END BOND
M  V30 END CTAB
M  END
>  <Dataset>  (696) 
ChEMBL_Kinases

>  <Ligand_Instance>  (696) 
nan

>  <PDB_ID>  (696) 
nan

>  <Standardized_SMILES>  (696) 
O=C(N[C@@H]1CCCN(Cc2ccccc2F)C1)c1ccc2[nH]nc(-c3ccnc(Cl)c3)c2c1

>  <Name>  (696) 
nan

>  <Pocket>  (696) 
nan

>  <ATP_Site>  (696) 
nan

>  <Peripheral>  (696) 
nan

>  <Num_H_Atoms_ProtBoundConf>  (696) 
nan

>  <Num_Resolved_Atoms>  (696) 
nan

>  <Num_Not_Resolved_Atoms>  (696) 
nan

$$$$
CHEMBL3651163
     RDKit          3D

  0  0  0  0  0  0  0  0  0  0999 V3000
M  V30 BEGIN CTAB
M  V30 COUNTS 67 71 0 0 0
M  V30 BEGIN ATOM
M  V30 1 C 1.584675 -2.643085 6.134216 0
M  V30 2 C 2.718755 -1.973522 5.428991 0
M  V30 3 C 4.021994 -2.726699 5.699944 0
M  V30 4 O 2.535530 -1.846906 4.052610 0
M  V30 5 C 2.549361 -0.699359 3.309283 0
M  V30 6 C 2.327838 -0.905705 1.945478 0
M  V30 7 C 2.311397 0.166381 1.047393 0
M  V30 8 C 2.517358 1.476582 1.496186 0
M  V30 9 C 2.484306 2.543566 0.501629 0
M  V30 10 N 3.450831 3.487633 0.526128 0
M  V30 11 N 3.234981 4.367445 -0.465059 0
M  V30 12 C 2.127830 3.989531 -1.128634 0
M  V30 13 C 1.404869 4.475864 -2.223922 0
M  V30 14 C 0.258817 3.788270 -2.641598 0
M  V30 15 C -0.191359 2.646018 -2.017436 0
M  V30 16 C -1.399691 2.013219 -2.541222 0
M  V30 17 O -1.936797 2.524105 -3.525485 0
M  V30 18 N -1.970694 0.853652 -1.972113 0
M  V30 19 C -3.147009 0.267476 -2.510720 0 CFG=2
M  V30 20 C -4.293659 0.036071 -1.650503 0
M  V30 21 C -4.783059 -1.379268 -1.491619 0
M  V30 22 C -3.692871 -2.406017 -1.515141 0
M  V30 23 N -2.415361 -1.872362 -1.922173 0
M  V30 24 C -1.465812 -2.911738 -2.113545 0
M  V30 25 C -1.330027 -3.623447 -0.807282 0
M  V30 26 C -1.904127 -4.870894 -0.552925 0
M  V30 27 C -1.742119 -5.479777 0.680026 0
M  V30 28 C -1.010939 -4.874883 1.693036 0
M  V30 29 C -0.446536 -3.641109 1.433097 0
M  V30 30 C -0.603705 -3.030153 0.209234 0
M  V30 31 F -0.050379 -1.828619 -0.032445 0
M  V30 32 C -2.686736 -1.064402 -3.096688 0
M  V30 33 C 0.498391 2.140944 -0.935689 0
M  V30 34 C 1.622396 2.843366 -0.551484 0
M  V30 35 C 2.732790 1.662052 2.834593 0
M  V30 36 C 2.748135 0.601588 3.715954 0
M  V30 37 H 1.225847 -3.470613 5.454779 0
M  V30 38 H 0.713281 -1.987289 6.290441 0
M  V30 39 H 1.907188 -3.152900 7.073633 0
M  V30 40 H 2.868512 -0.966913 5.895944 0
M  V30 41 H 4.699590 -2.175143 6.371433 0
M  V30 42 H 4.592726 -2.903794 4.764748 0
M  V30 43 H 3.851391 -3.722888 6.147761 0
M  V30 44 H 2.158014 -1.906578 1.517991 0
M  V30 45 H 2.136449 -0.044844 -0.000154 0
M  V30 46 H 3.743664 5.224040 -0.778344 0
M  V30 47 H 1.773764 5.361816 -2.691529 0
M  V30 48 H -0.215688 4.264961 -3.503451 0
M  V30 49 H -1.532637 0.397900 -1.131512 0
M  V30 50 H -3.423685 0.894293 -3.403058 0
M  V30 51 H -5.159058 0.614922 -2.040949 0
M  V30 52 H -4.201079 0.452974 -0.603023 0
M  V30 53 H -5.510181 -1.657951 -2.285413 0
M  V30 54 H -5.349153 -1.492506 -0.541714 0
M  V30 55 H -3.542566 -2.855590 -0.505484 0
M  V30 56 H -3.932529 -3.255818 -2.186243 0
M  V30 57 H -1.693367 -3.648232 -2.885417 0
M  V30 58 H -0.463257 -2.464525 -2.354700 0
M  V30 59 H -2.467550 -5.333270 -1.337162 0
M  V30 60 H -2.206062 -6.440089 0.817230 0
M  V30 61 H -0.945794 -5.430875 2.613405 0
M  V30 62 H 0.126830 -3.186228 2.253600 0
M  V30 63 H -3.459075 -1.498772 -3.761378 0
M  V30 64 H -1.721087 -0.867756 -3.615640 0
M  V30 65 H 0.171541 1.255228 -0.430184 0
M  V30 66 H 2.892186 2.667079 3.188164 0
M  V30 67 H 2.913171 0.723330 4.758884 0
M  V30 END ATOM
M  V30 BEGIN BOND
M  V30 1 1 1 2
M  V30 2 1 2 3
M  V30 3 1 2 4
M  V30 4 1 4 5
M  V30 5 2 5 6
M  V30 6 1 6 7
M  V30 7 2 7 8
M  V30 8 1 8 9
M  V30 9 2 9 10
M  V30 10 1 10 11
M  V30 11 1 11 12
M  V30 12 2 12 13
M  V30 13 1 13 14
M  V30 14 2 14 15
M  V30 15 1 15 16
M  V30 16 2 16 17
M  V30 17 1 16 18
M  V30 18 1 18 19
M  V30 19 1 19 20
M  V30 20 1 20 21
M  V30 21 1 21 22
M  V30 22 1 22 23
M  V30 23 1 23 24
M  V30 24 1 24 25
M  V30 25 2 25 26
M  V30 26 1 26 27
M  V30 27 2 27 28
M  V30 28 1 28 29
M  V30 29 2 29 30
M  V30 30 1 30 31
M  V30 31 1 23 32
M  V30 32 1 15 33
M  V30 33 2 33 34
M  V30 34 1 8 35
M  V30 35 2 35 36
M  V30 36 1 36 5
M  V30 37 1 34 9
M  V30 38 1 34 12
M  V30 39 1 32 19
M  V30 40 1 30 25
M  V30 41 1 1 37
M  V30 42 1 1 38
M  V30 43 1 1 39
M  V30 44 1 2 40
M  V30 45 1 3 41
M  V30 46 1 3 42
M  V30 47 1 3 43
M  V30 48 1 6 44
M  V30 49 1 7 45
M  V30 50 1 11 46
M  V30 51 1 13 47
M  V30 52 1 14 48
M  V30 53 1 18 49
M  V30 54 1 19 50 CFG=3
M  V30 55 1 20 51
M  V30 56 1 20 52
M  V30 57 1 21 53
M  V30 58 1 21 54
M  V30 59 1 22 55
M  V30 60 1 22 56
M  V30 61 1 24 57
M  V30 62 1 24 58
M  V30 63 1 26 59
M  V30 64 1 27 60
M  V30 65 1 28 61
M  V30 66 1 29 62
M  V30 67 1 32 63
M  V30 68 1 32 64
M  V30 69 1 33 65
M  V30 70 1 35 66
M  V30 71 1 36 67
M  V30 END BOND
M  V30 END CTAB
M  END
>  <Dataset>  (697) 
ChEMBL_Kinases

>  <Ligand_Instance>  (697) 
nan

>  <PDB_ID>  (697) 
nan

>  <Standardized_SMILES>  (697) 
CC(C)Oc1ccc(-c2n[nH]c3ccc(C(=O)N[C@@H]4CCCN(Cc5ccccc5F)C4)cc23)cc1

>  <Name>  (697) 
nan

>  <Pocket>  (697) 
nan

>  <ATP_Site>  (697) 
nan

>  <Peripheral>  (697) 
nan

>  <Num_H_Atoms_ProtBoundConf>  (697) 
nan

>  <Num_Resolved_Atoms>  (697) 
nan

>  <Num_Not_Resolved_Atoms>  (697) 
nan

$$$$
CHEMBL3651164
     RDKit          3D

  0  0  0  0  0  0  0  0  0  0999 V3000
M  V30 BEGIN CTAB
M  V30 COUNTS 66 70 0 0 0
M  V30 BEGIN ATOM
M  V30 1 C 2.320843 -2.047009 6.117358 0
M  V30 2 C 1.285469 -1.648030 5.081934 0
M  V30 3 C -0.034475 -2.303863 5.393703 0
M  V30 4 O 1.139566 -0.254943 4.997403 0
M  V30 5 C 1.409041 0.533857 3.911363 0
M  V30 6 C 1.880228 0.180117 2.644344 0
M  V30 7 C 2.077792 1.170599 1.699275 0
M  V30 8 C 1.818962 2.510603 1.978793 0
M  V30 9 C 2.088102 3.389997 0.851764 0
M  V30 10 N 2.775458 4.568565 0.867369 0
M  V30 11 N 2.814758 5.086609 -0.356904 0
M  V30 12 C 2.157145 4.260010 -1.188989 0
M  V30 13 C 1.887272 4.295589 -2.542510 0
M  V30 14 C 1.168208 3.314331 -3.229976 0
M  V30 15 C 0.707323 2.241242 -2.465084 0
M  V30 16 C -0.041942 1.215955 -3.182587 0
M  V30 17 O -0.180414 1.310188 -4.405430 0
M  V30 18 N -0.632882 0.093295 -2.541186 0
M  V30 19 C -1.361282 -0.885342 -3.319366 0 CFG=2
M  V30 20 C -2.789621 -1.021477 -2.941852 0
M  V30 21 C -3.323623 -2.429427 -3.059852 0
M  V30 22 C -2.575240 -3.370618 -2.119110 0
M  V30 23 N -1.313662 -2.717062 -1.870988 0
M  V30 24 C -0.480262 -3.380994 -0.927070 0
M  V30 25 C -1.264124 -3.443499 0.355680 0
M  V30 26 C -1.822640 -4.666281 0.670060 0
M  V30 27 C -2.559521 -4.778301 1.843927 0
M  V30 28 C -2.734637 -3.693617 2.684395 0
M  V30 29 C -2.177131 -2.473974 2.369946 0
M  V30 30 C -1.450722 -2.382528 1.203634 0
M  V30 31 F -0.904397 -1.206603 0.887378 0
M  V30 32 C -0.696916 -2.218897 -3.053218 0
M  V30 33 C 0.974822 2.201984 -1.114663 0
M  V30 34 C 1.687693 3.183308 -0.458659 0
M  V30 35 C 1.352862 2.816849 3.247887 0
M  V30 36 N 1.170947 1.835563 4.143525 0
M  V30 37 H 2.642168 -3.092944 5.900342 0
M  V30 38 H 1.884974 -2.013803 7.115739 0
M  V30 39 H 3.215021 -1.411375 6.055446 0
M  V30 40 H 1.658426 -2.063806 4.121404 0
M  V30 41 H 0.034302 -2.920094 6.335903 0
M  V30 42 H -0.313615 -2.963928 4.561115 0
M  V30 43 H -0.855884 -1.556181 5.594358 0
M  V30 44 H 2.046837 -0.870863 2.533230 0
M  V30 45 H 2.449774 0.703643 0.777873 0
M  V30 46 H 3.284330 5.990161 -0.617331 0
M  V30 47 H 2.245123 5.123968 -3.118835 0
M  V30 48 H 1.008895 3.431140 -4.289698 0
M  V30 49 H -0.545611 -0.031290 -1.510263 0
M  V30 50 H -1.318906 -0.661831 -4.407016 0
M  V30 51 H -3.394882 -0.387219 -3.619631 0
M  V30 52 H -3.042317 -0.671525 -1.924327 0
M  V30 53 H -3.094668 -2.778768 -4.087050 0
M  V30 54 H -4.401755 -2.493533 -2.911324 0
M  V30 55 H -3.129729 -3.429734 -1.183977 0
M  V30 56 H -2.381607 -4.357732 -2.547394 0
M  V30 57 H -0.115850 -4.370044 -1.198906 0
M  V30 58 H 0.369860 -2.700806 -0.704726 0
M  V30 59 H -1.730811 -5.555311 0.068126 0
M  V30 60 H -3.024366 -5.710959 2.148622 0
M  V30 61 H -3.299746 -3.740400 3.603530 0
M  V30 62 H -2.309603 -1.630568 3.017339 0
M  V30 63 H -0.849139 -2.894502 -3.925360 0
M  V30 64 H 0.375035 -2.032667 -2.860149 0
M  V30 65 H 0.599811 1.361414 -0.566229 0
M  V30 66 H 1.177715 3.869060 3.384132 0
M  V30 END ATOM
M  V30 BEGIN BOND
M  V30 1 1 1 2
M  V30 2 1 2 3
M  V30 3 1 2 4
M  V30 4 1 4 5
M  V30 5 2 5 6
M  V30 6 1 6 7
M  V30 7 2 7 8
M  V30 8 1 8 9
M  V30 9 2 9 10
M  V30 10 1 10 11
M  V30 11 1 11 12
M  V30 12 2 12 13
M  V30 13 1 13 14
M  V30 14 2 14 15
M  V30 15 1 15 16
M  V30 16 2 16 17
M  V30 17 1 16 18
M  V30 18 1 18 19
M  V30 19 1 19 20
M  V30 20 1 20 21
M  V30 21 1 21 22
M  V30 22 1 22 23
M  V30 23 1 23 24
M  V30 24 1 24 25
M  V30 25 2 25 26
M  V30 26 1 26 27
M  V30 27 2 27 28
M  V30 28 1 28 29
M  V30 29 2 29 30
M  V30 30 1 30 31
M  V30 31 1 23 32
M  V30 32 1 15 33
M  V30 33 2 33 34
M  V30 34 1 8 35
M  V30 35 2 35 36
M  V30 36 1 36 5
M  V30 37 1 34 9
M  V30 38 1 34 12
M  V30 39 1 32 19
M  V30 40 1 30 25
M  V30 41 1 1 37
M  V30 42 1 1 38
M  V30 43 1 1 39
M  V30 44 1 2 40
M  V30 45 1 3 41
M  V30 46 1 3 42
M  V30 47 1 3 43
M  V30 48 1 6 44
M  V30 49 1 7 45
M  V30 50 1 11 46
M  V30 51 1 13 47
M  V30 52 1 14 48
M  V30 53 1 18 49
M  V30 54 1 19 50 CFG=3
M  V30 55 1 20 51
M  V30 56 1 20 52
M  V30 57 1 21 53
M  V30 58 1 21 54
M  V30 59 1 22 55
M  V30 60 1 22 56
M  V30 61 1 24 57
M  V30 62 1 24 58
M  V30 63 1 26 59
M  V30 64 1 27 60
M  V30 65 1 28 61
M  V30 66 1 29 62
M  V30 67 1 32 63
M  V30 68 1 32 64
M  V30 69 1 33 65
M  V30 70 1 35 66
M  V30 END BOND
M  V30 END CTAB
M  END
>  <Dataset>  (698) 
ChEMBL_Kinases

>  <Ligand_Instance>  (698) 
nan

>  <PDB_ID>  (698) 
nan

>  <Standardized_SMILES>  (698) 
CC(C)Oc1ccc(-c2n[nH]c3ccc(C(=O)N[C@@H]4CCCN(Cc5ccccc5F)C4)cc23)cn1

>  <Name>  (698) 
nan

>  <Pocket>  (698) 
nan

>  <ATP_Site>  (698) 
nan

>  <Peripheral>  (698) 
nan

>  <Num_H_Atoms_ProtBoundConf>  (698) 
nan

>  <Num_Resolved_Atoms>  (698) 
nan

>  <Num_Not_Resolved_Atoms>  (698) 
nan

$$$$
CHEMBL3651175
     RDKit          3D

  0  0  0  0  0  0  0  0  0  0999 V3000
M  V30 BEGIN CTAB
M  V30 COUNTS 56 60 0 0 0
M  V30 BEGIN ATOM
M  V30 1 C -2.016474 -3.284243 2.843789 0
M  V30 2 N -0.976291 -3.240412 1.880191 0
M  V30 3 C 0.216626 -2.560742 2.319881 0
M  V30 4 C 1.145499 -2.216585 1.213454 0
M  V30 5 N 1.070142 -0.771543 0.965828 0
M  V30 6 C 2.191774 0.065430 1.213143 0
M  V30 7 O 3.250647 -0.454961 1.648240 0
M  V30 8 C 2.211145 1.504231 0.998273 0
M  V30 9 C 3.373736 2.188514 1.282284 0
M  V30 10 C 3.455969 3.571577 1.097102 0
M  V30 11 C 2.388964 4.306658 0.626798 0
M  V30 12 N 2.139361 5.596143 0.344928 0
M  V30 13 N 0.893748 5.721970 -0.091457 0
M  V30 14 C 0.280035 4.516047 -0.111480 0
M  V30 15 C -1.092309 4.296679 -0.537196 0
M  V30 16 C -1.446817 3.251293 -1.381949 0
M  V30 17 C -2.732157 2.995306 -1.818195 0
M  V30 18 N -3.711563 3.838275 -1.379170 0
M  V30 19 C -3.372877 4.856853 -0.557371 0
M  V30 20 C -2.086644 5.136333 -0.103495 0
M  V30 21 C 1.236621 3.620711 0.346478 0
M  V30 22 C 1.169892 2.265486 0.532566 0
M  V30 23 C 0.997604 -3.036573 -0.018385 0
M  V30 24 C -0.360933 -3.475013 -0.394082 0
M  V30 25 C -0.560010 -4.942086 -0.392901 0
M  V30 26 C -0.300200 -5.760680 0.665590 0
M  V30 27 C -0.482003 -7.128584 0.678727 0
M  V30 28 C -0.966052 -7.743109 -0.462302 0
M  V30 29 C -1.256095 -6.984879 -1.583568 0
M  V30 30 C -1.047263 -5.621747 -1.517774 0
M  V30 31 C -1.376131 -2.886025 0.557703 0
M  V30 32 H -2.230145 -4.372490 3.044340 0
M  V30 33 H -1.757027 -2.860345 3.827997 0
M  V30 34 H -2.952729 -2.893811 2.402510 0
M  V30 35 H -0.069000 -1.636860 2.859884 0
M  V30 36 H 0.725736 -3.192827 3.084509 0
M  V30 37 H 2.196063 -2.393116 1.592458 0
M  V30 38 H 0.240178 -0.253562 0.607698 0
M  V30 39 H 4.269620 1.732574 1.652358 0
M  V30 40 H 4.362127 4.117225 1.316576 0
M  V30 41 H 2.847914 6.358645 0.464882 0
M  V30 42 H -0.707014 2.569377 -1.747138 0
M  V30 43 H -2.960882 2.171677 -2.474083 0
M  V30 44 H -4.239168 5.443295 -0.287339 0
M  V30 45 H -1.925675 5.978444 0.553140 0
M  V30 46 H 0.245875 1.757796 0.301267 0
M  V30 47 H 1.754129 -3.880235 -0.034154 0
M  V30 48 H 1.386626 -2.379473 -0.856084 0
M  V30 49 H -0.653425 -3.110450 -1.409671 0
M  V30 50 H 0.074775 -5.352642 1.574809 0
M  V30 51 H -0.267401 -7.745798 1.530208 0
M  V30 52 H -1.145268 -8.804562 -0.560809 0
M  V30 53 H -1.639040 -7.393637 -2.516362 0
M  V30 54 H -1.279225 -5.022349 -2.411830 0
M  V30 55 H -1.561971 -1.807482 0.385110 0
M  V30 56 H -2.329512 -3.459581 0.356923 0
M  V30 END ATOM
M  V30 BEGIN BOND
M  V30 1 1 1 2
M  V30 2 1 2 3
M  V30 3 1 3 4
M  V30 4 1 4 5
M  V30 5 1 5 6
M  V30 6 2 6 7
M  V30 7 1 6 8
M  V30 8 2 8 9
M  V30 9 1 9 10
M  V30 10 2 10 11
M  V30 11 1 11 12
M  V30 12 1 12 13
M  V30 13 2 13 14
M  V30 14 1 14 15
M  V30 15 2 15 16
M  V30 16 1 16 17
M  V30 17 2 17 18
M  V30 18 1 18 19
M  V30 19 2 19 20
M  V30 20 1 14 21
M  V30 21 2 21 22
M  V30 22 1 4 23
M  V30 23 1 23 24
M  V30 24 1 24 25
M  V30 25 2 25 26
M  V30 26 1 26 27
M  V30 27 2 27 28
M  V30 28 1 28 29
M  V30 29 2 29 30
M  V30 30 1 24 31
M  V30 31 1 31 2
M  V30 32 1 22 8
M  V30 33 1 30 25
M  V30 34 1 21 11
M  V30 35 1 20 15
M  V30 36 1 1 32
M  V30 37 1 1 33
M  V30 38 1 1 34
M  V30 39 1 3 35
M  V30 40 1 3 36
M  V30 41 1 4 37
M  V30 42 1 5 38
M  V30 43 1 9 39
M  V30 44 1 10 40
M  V30 45 1 12 41
M  V30 46 1 16 42
M  V30 47 1 17 43
M  V30 48 1 19 44
M  V30 49 1 20 45
M  V30 50 1 22 46
M  V30 51 1 23 47
M  V30 52 1 23 48
M  V30 53 1 24 49
M  V30 54 1 26 50
M  V30 55 1 27 51
M  V30 56 1 28 52
M  V30 57 1 29 53
M  V30 58 1 30 54
M  V30 59 1 31 55
M  V30 60 1 31 56
M  V30 END BOND
M  V30 END CTAB
M  END
>  <Dataset>  (699) 
ChEMBL_Kinases

>  <Ligand_Instance>  (699) 
nan

>  <PDB_ID>  (699) 
nan

>  <Standardized_SMILES>  (699) 
CN1CC(NC(=O)c2ccc3[nH]nc(-c4ccncc4)c3c2)CC(c2ccccc2)C1

>  <Name>  (699) 
nan

>  <Pocket>  (699) 
nan

>  <ATP_Site>  (699) 
nan

>  <Peripheral>  (699) 
nan

>  <Num_H_Atoms_ProtBoundConf>  (699) 
nan

>  <Num_Resolved_Atoms>  (699) 
nan

>  <Num_Not_Resolved_Atoms>  (699) 
nan

$$$$
CHEMBL3651166
     RDKit          3D

  0  0  0  0  0  0  0  0  0  0999 V3000
M  V30 BEGIN CTAB
M  V30 COUNTS 63 67 0 0 0
M  V30 BEGIN ATOM
M  V30 1 C 2.215835 -2.092437 1.570026 0
M  V30 2 O 2.402788 -0.747732 1.127316 0
M  V30 3 C 2.756982 0.250306 2.013056 0
M  V30 4 C 2.945635 -0.004290 3.361987 0
M  V30 5 C 3.301032 1.004631 4.242589 0
M  V30 6 C 3.485182 2.302340 3.833859 0
M  V30 7 C 3.291327 2.527207 2.488293 0
M  V30 8 F 3.468415 3.817402 2.047584 0
M  V30 9 C 2.932440 1.540535 1.563964 0
M  V30 10 C 2.764215 1.941593 0.165906 0
M  V30 11 N 1.420697 2.061373 -0.294320 0
M  V30 12 C 1.286484 2.467211 -1.652752 0
M  V30 13 C -0.110886 2.193159 -2.113048 0
M  V30 14 C -1.124037 2.884797 -1.235925 0
M  V30 15 C -0.918624 2.519421 0.237965 0 CFG=1
M  V30 16 N -1.458657 1.177931 0.345079 0
M  V30 17 C -2.609705 0.872204 1.110270 0
M  V30 18 O -3.245683 1.745185 1.754309 0
M  V30 19 C -3.128829 -0.489998 1.195010 0
M  V30 20 C -4.255927 -0.722691 1.979046 0
M  V30 21 C -4.837072 -1.985248 2.127511 0
M  V30 22 C -4.239305 -3.028254 1.450498 0
M  V30 23 N -4.499730 -4.337587 1.349600 0
M  V30 24 N -3.624338 -4.937387 0.565159 0
M  V30 25 C -2.728619 -4.053655 0.098974 0
M  V30 26 C -1.633004 -4.374476 -0.788816 0
M  V30 27 C -1.516378 -5.634677 -1.162072 0
M  V30 28 C -0.465184 -6.183942 -2.068779 0
M  V30 29 O 0.681496 -5.397441 -1.808032 0
M  V30 30 C 0.363840 -4.130393 -2.233667 0
M  V30 31 C -0.643037 -3.430240 -1.310678 0
M  V30 32 C -3.120121 -2.856192 0.658695 0
M  V30 33 C -2.599716 -1.592094 0.555693 0
M  V30 34 C 0.514699 2.641457 0.638074 0
M  V30 35 H 3.078050 -2.471833 2.125248 0
M  V30 36 H 2.023008 -2.728083 0.696549 0
M  V30 37 H 1.291435 -2.070534 2.194809 0
M  V30 38 H 2.823737 -0.987127 3.769211 0
M  V30 39 H 3.452749 0.815144 5.311850 0
M  V30 40 H 3.760932 3.104500 4.493268 0
M  V30 41 H 3.268078 1.192899 -0.507233 0
M  V30 42 H 3.292228 2.903964 -0.045994 0
M  V30 43 H 1.636128 3.484122 -1.876267 0
M  V30 44 H 1.947834 1.791047 -2.254225 0
M  V30 45 H -0.269898 1.098872 -2.000525 0
M  V30 46 H -0.270367 2.415800 -3.169057 0
M  V30 47 H -0.987039 3.976587 -1.312587 0
M  V30 48 H -2.156732 2.613855 -1.483371 0
M  V30 49 H -1.575243 3.183841 0.837535 0
M  V30 50 H -0.931388 0.451593 -0.186835 0
M  V30 51 H -4.769872 0.070058 2.537580 0
M  V30 52 H -5.703670 -2.143167 2.735004 0
M  V30 53 H -5.281995 -4.858982 1.813415 0
M  V30 54 H -2.196329 -6.410754 -0.833351 0
M  V30 55 H -0.762049 -6.051396 -3.131528 0
M  V30 56 H -0.171816 -7.206273 -1.825399 0
M  V30 57 H -0.048738 -4.205083 -3.265270 0
M  V30 58 H 1.295710 -3.532104 -2.312919 0
M  V30 59 H -0.043980 -3.027279 -0.492100 0
M  V30 60 H -1.087172 -2.637712 -1.979104 0
M  V30 61 H -1.731756 -1.410721 -0.046928 0
M  V30 62 H 0.642687 2.048854 1.592794 0
M  V30 63 H 0.747789 3.709328 0.823349 0
M  V30 END ATOM
M  V30 BEGIN BOND
M  V30 1 1 1 2
M  V30 2 1 2 3
M  V30 3 2 3 4
M  V30 4 1 4 5
M  V30 5 2 5 6
M  V30 6 1 6 7
M  V30 7 1 7 8
M  V30 8 2 7 9
M  V30 9 1 9 10
M  V30 10 1 10 11
M  V30 11 1 11 12
M  V30 12 1 12 13
M  V30 13 1 13 14
M  V30 14 1 14 15
M  V30 15 1 15 16
M  V30 16 1 16 17
M  V30 17 2 17 18
M  V30 18 1 17 19
M  V30 19 2 19 20
M  V30 20 1 20 21
M  V30 21 2 21 22
M  V30 22 1 22 23
M  V30 23 1 23 24
M  V30 24 2 24 25
M  V30 25 1 25 26
M  V30 26 2 26 27
M  V30 27 1 27 28
M  V30 28 1 28 29
M  V30 29 1 29 30
M  V30 30 1 30 31
M  V30 31 1 25 32
M  V30 32 2 32 33
M  V30 33 1 15 34
M  V30 34 1 9 3
M  V30 35 1 34 11
M  V30 36 1 33 19
M  V30 37 1 32 22
M  V30 38 1 31 26
M  V30 39 1 1 35
M  V30 40 1 1 36
M  V30 41 1 1 37
M  V30 42 1 4 38
M  V30 43 1 5 39
M  V30 44 1 6 40
M  V30 45 1 10 41
M  V30 46 1 10 42
M  V30 47 1 12 43
M  V30 48 1 12 44
M  V30 49 1 13 45
M  V30 50 1 13 46
M  V30 51 1 14 47
M  V30 52 1 14 48
M  V30 53 1 15 49 CFG=1
M  V30 54 1 16 50
M  V30 55 1 20 51
M  V30 56 1 21 52
M  V30 57 1 23 53
M  V30 58 1 27 54
M  V30 59 1 28 55
M  V30 60 1 28 56
M  V30 61 1 30 57
M  V30 62 1 30 58
M  V30 63 1 31 59
M  V30 64 1 31 60
M  V30 65 1 33 61
M  V30 66 1 34 62
M  V30 67 1 34 63
M  V30 END BOND
M  V30 END CTAB
M  END
>  <Dataset>  (700) 
ChEMBL_Kinases

>  <Ligand_Instance>  (700) 
nan

>  <PDB_ID>  (700) 
nan

>  <Standardized_SMILES>  (700) 
COc1cccc(F)c1CN1CCC[C@@H](NC(=O)c2ccc3[nH]nc(C4=CCOCC4)c3c2)C1

>  <Name>  (700) 
nan

>  <Pocket>  (700) 
nan

>  <ATP_Site>  (700) 
nan

>  <Peripheral>  (700) 
nan

>  <Num_H_Atoms_ProtBoundConf>  (700) 
nan

>  <Num_Resolved_Atoms>  (700) 
nan

>  <Num_Not_Resolved_Atoms>  (700) 
nan

$$$$
CHEMBL3651167
     RDKit          3D

  0  0  0  0  0  0  0  0  0  0999 V3000
M  V30 BEGIN CTAB
M  V30 COUNTS 65 69 0 0 0
M  V30 BEGIN ATOM
M  V30 1 C 2.386529 0.652907 3.888771 0
M  V30 2 O 2.136901 1.870663 3.257636 0
M  V30 3 C 3.052276 2.910347 3.219232 0
M  V30 4 C 4.265793 2.710860 3.843053 0
M  V30 5 C 5.196345 3.732031 3.819319 0
M  V30 6 C 4.878971 4.895159 3.181109 0
M  V30 7 C 3.655335 5.077349 2.560188 0
M  V30 8 F 3.458457 6.270389 1.962663 0
M  V30 9 C 2.687095 4.067584 2.562353 0
M  V30 10 C 1.395402 4.288096 1.894603 0
M  V30 11 N 1.206537 3.661208 0.649875 0
M  V30 12 C 2.063396 3.949796 -0.416740 0
M  V30 13 C 2.656103 2.758765 -1.115326 0
M  V30 14 C 2.023851 1.452700 -0.795853 0
M  V30 15 C 0.557482 1.528256 -0.433937 0 CFG=1
M  V30 16 N 0.256876 0.226153 0.172226 0
M  V30 17 C -0.655881 -0.720502 -0.336351 0
M  V30 18 O -1.237539 -0.381125 -1.399042 0
M  V30 19 C -0.936808 -2.007492 0.288045 0
M  V30 20 C -0.281362 -2.367831 1.456802 0
M  V30 21 C -0.544658 -3.581956 2.054735 0
M  V30 22 C -1.471870 -4.389107 1.436246 0
M  V30 23 N -1.923471 -5.603314 1.761047 0
M  V30 24 N -2.803909 -6.000469 0.874431 0
M  V30 25 C -3.009537 -5.095313 -0.101077 0
M  V30 26 C -3.887082 -5.168083 -1.273405 0
M  V30 27 C -4.437586 -6.386488 -1.354422 0
M  V30 28 C -5.379994 -6.935938 -2.354924 0
M  V30 29 S -5.216387 -5.861692 -3.793401 0
M  V30 30 O -6.317693 -6.121849 -4.770156 0
M  V30 31 O -3.850732 -6.109344 -4.343817 0
M  V30 32 C -5.292668 -4.221263 -3.128479 0
M  V30 33 C -4.128904 -4.046218 -2.172620 0
M  V30 34 C -2.153894 -4.089060 0.280022 0
M  V30 35 C -1.851726 -2.868883 -0.271694 0
M  V30 36 C 0.248421 2.654379 0.509830 0
M  V30 37 H 1.652311 -0.098591 3.532489 0
M  V30 38 H 2.413397 0.791893 4.972064 0
M  V30 39 H 3.384224 0.293903 3.556024 0
M  V30 40 H 4.522248 1.790324 4.350509 0
M  V30 41 H 6.144389 3.559019 4.313588 0
M  V30 42 H 5.628485 5.676851 3.179149 0
M  V30 43 H 0.587361 3.927594 2.584368 0
M  V30 44 H 1.220305 5.385188 1.799217 0
M  V30 45 H 1.504923 4.589690 -1.160018 0
M  V30 46 H 2.901522 4.592791 -0.076574 0
M  V30 47 H 3.755763 2.656989 -0.897667 0
M  V30 48 H 2.614017 2.939352 -2.210275 0
M  V30 49 H 2.082504 0.804749 -1.719321 0
M  V30 50 H 2.568770 0.867320 -0.026146 0
M  V30 51 H -0.078643 1.575262 -1.346683 0
M  V30 52 H 0.770083 0.001258 1.049911 0
M  V30 53 H 0.446453 -1.757906 1.960271 0
M  V30 54 H -0.042253 -3.891672 2.977259 0
M  V30 55 H -1.696831 -6.231447 2.552437 0
M  V30 56 H -4.262687 -7.205874 -0.636504 0
M  V30 57 H -6.405580 -6.951135 -1.970548 0
M  V30 58 H -5.004804 -7.932871 -2.673015 0
M  V30 59 H -6.206396 -4.109591 -2.500326 0
M  V30 60 H -5.294302 -3.447557 -3.902533 0
M  V30 61 H -4.371774 -3.164777 -1.495210 0
M  V30 62 H -3.267887 -3.796731 -2.788916 0
M  V30 63 H -2.282206 -2.509728 -1.159571 0
M  V30 64 H -0.750332 3.094578 0.222548 0
M  V30 65 H 0.041806 2.192598 1.507321 0
M  V30 END ATOM
M  V30 BEGIN BOND
M  V30 1 1 1 2
M  V30 2 1 2 3
M  V30 3 2 3 4
M  V30 4 1 4 5
M  V30 5 2 5 6
M  V30 6 1 6 7
M  V30 7 1 7 8
M  V30 8 2 7 9
M  V30 9 1 9 10
M  V30 10 1 10 11
M  V30 11 1 11 12
M  V30 12 1 12 13
M  V30 13 1 13 14
M  V30 14 1 14 15
M  V30 15 1 15 16
M  V30 16 1 16 17
M  V30 17 2 17 18
M  V30 18 1 17 19
M  V30 19 2 19 20
M  V30 20 1 20 21
M  V30 21 2 21 22
M  V30 22 1 22 23
M  V30 23 1 23 24
M  V30 24 2 24 25
M  V30 25 1 25 26
M  V30 26 2 26 27
M  V30 27 1 27 28
M  V30 28 1 28 29
M  V30 29 2 29 30
M  V30 30 2 29 31
M  V30 31 1 29 32
M  V30 32 1 32 33
M  V30 33 1 25 34
M  V30 34 2 34 35
M  V30 35 1 15 36
M  V30 36 1 9 3
M  V30 37 1 36 11
M  V30 38 1 35 19
M  V30 39 1 34 22
M  V30 40 1 33 26
M  V30 41 1 1 37
M  V30 42 1 1 38
M  V30 43 1 1 39
M  V30 44 1 4 40
M  V30 45 1 5 41
M  V30 46 1 6 42
M  V30 47 1 10 43
M  V30 48 1 10 44
M  V30 49 1 12 45
M  V30 50 1 12 46
M  V30 51 1 13 47
M  V30 52 1 13 48
M  V30 53 1 14 49
M  V30 54 1 14 50
M  V30 55 1 15 51 CFG=3
M  V30 56 1 16 52
M  V30 57 1 20 53
M  V30 58 1 21 54
M  V30 59 1 23 55
M  V30 60 1 27 56
M  V30 61 1 28 57
M  V30 62 1 28 58
M  V30 63 1 32 59
M  V30 64 1 32 60
M  V30 65 1 33 61
M  V30 66 1 33 62
M  V30 67 1 35 63
M  V30 68 1 36 64
M  V30 69 1 36 65
M  V30 END BOND
M  V30 END CTAB
M  END
>  <Dataset>  (701) 
ChEMBL_Kinases

>  <Ligand_Instance>  (701) 
nan

>  <PDB_ID>  (701) 
nan

>  <Standardized_SMILES>  (701) 
COc1cccc(F)c1CN1CCC[C@@H](NC(=O)c2ccc3[nH]nc(C4=CCS(=O)(=O)CC4)c3c2)C1

>  <Name>  (701) 
nan

>  <Pocket>  (701) 
nan

>  <ATP_Site>  (701) 
nan

>  <Peripheral>  (701) 
nan

>  <Num_H_Atoms_ProtBoundConf>  (701) 
nan

>  <Num_Resolved_Atoms>  (701) 
nan

>  <Num_Not_Resolved_Atoms>  (701) 
nan

$$$$
CHEMBL3651168
     RDKit          3D

  0  0  0  0  0  0  0  0  0  0999 V3000
M  V30 BEGIN CTAB
M  V30 COUNTS 65 69 0 0 0
M  V30 BEGIN ATOM
M  V30 1 C 3.712513 -0.826964 2.815291 0
M  V30 2 O 3.469741 0.477197 2.374598 0
M  V30 3 C 3.929592 1.557681 3.111313 0
M  V30 4 C 4.634002 1.327146 4.292995 0
M  V30 5 C 5.141611 2.308214 5.111585 0
M  V30 6 C 4.915403 3.597222 4.696111 0
M  V30 7 C 4.227663 3.872325 3.541175 0
M  V30 8 F 4.036548 5.151382 3.144584 0
M  V30 9 C 3.725617 2.879390 2.733400 0
M  V30 10 C 2.979719 3.001196 1.457979 0
M  V30 11 N 1.614899 2.646448 1.662121 0
M  V30 12 C 0.943943 3.517453 2.552829 0
M  V30 13 C -0.310610 4.123671 1.900854 0
M  V30 14 C -1.240381 3.036827 1.405294 0
M  V30 15 C -0.445675 1.996904 0.716135 0 CFG=1
M  V30 16 N -1.068405 1.346750 -0.398990 0
M  V30 17 C -1.268291 -0.049760 -0.392784 0
M  V30 18 O -0.909197 -0.725462 0.583601 0
M  V30 19 C -1.892932 -0.728498 -1.522002 0
M  V30 20 C -2.339564 -0.046463 -2.656260 0
M  V30 21 C -2.914611 -0.679195 -3.741838 0
M  V30 22 C -3.070737 -2.048360 -3.738786 0
M  V30 23 N -3.520683 -3.050334 -4.504789 0
M  V30 24 N -3.382843 -4.226671 -3.935142 0
M  V30 25 C -2.808169 -4.062103 -2.701865 0
M  V30 26 C -2.648343 -5.310899 -1.948045 0
M  V30 27 C -3.920302 -6.172668 -1.964442 0
M  V30 28 C -3.412775 -7.572891 -1.628776 0
M  V30 29 O -2.709695 -7.517361 -0.449123 0
M  V30 30 C -2.826420 -6.376043 0.287057 0
M  V30 31 C -2.400755 -5.111481 -0.455267 0
M  V30 32 C -2.630217 -2.703425 -2.621221 0
M  V30 33 C -2.057946 -2.087373 -1.539028 0
M  V30 34 C 0.941451 2.514581 0.380276 0
M  V30 35 H 3.139652 -1.583573 2.215993 0
M  V30 36 H 4.767539 -1.076740 2.735054 0
M  V30 37 H 3.393671 -0.998853 3.864295 0
M  V30 38 H 4.806942 0.293081 4.613477 0
M  V30 39 H 5.677158 2.045530 6.014601 0
M  V30 40 H 5.292209 4.408591 5.299931 0
M  V30 41 H 3.106319 4.019006 1.024161 0
M  V30 42 H 3.477086 2.306594 0.721209 0
M  V30 43 H 0.625277 3.038995 3.505001 0
M  V30 44 H 1.562392 4.384439 2.815340 0
M  V30 45 H -0.780353 4.755881 2.676441 0
M  V30 46 H -0.005455 4.806039 1.079651 0
M  V30 47 H -1.756276 2.603494 2.312826 0
M  V30 48 H -1.975903 3.560557 0.751516 0
M  V30 49 H -0.244809 1.173941 1.466425 0
M  V30 50 H -1.355926 1.948574 -1.189074 0
M  V30 51 H -2.254085 1.022708 -2.736441 0
M  V30 52 H -3.263615 -0.168099 -4.626930 0
M  V30 53 H -3.936177 -2.851184 -5.463363 0
M  V30 54 H -1.808372 -5.918258 -2.328149 0
M  V30 55 H -4.330892 -6.119442 -2.991369 0
M  V30 56 H -4.619342 -5.840227 -1.190894 0
M  V30 57 H -4.227473 -8.321046 -1.573888 0
M  V30 58 H -2.652385 -7.876623 -2.412512 0
M  V30 59 H -3.853980 -6.245291 0.671101 0
M  V30 60 H -2.170625 -6.455257 1.174070 0
M  V30 61 H -1.363468 -4.881909 -0.210333 0
M  V30 62 H -3.074969 -4.326243 -0.097370 0
M  V30 63 H -1.696406 -2.591589 -0.658020 0
M  V30 64 H 0.909828 3.461221 -0.172276 0
M  V30 65 H 1.437220 1.759442 -0.254522 0
M  V30 END ATOM
M  V30 BEGIN BOND
M  V30 1 1 1 2
M  V30 2 1 2 3
M  V30 3 2 3 4
M  V30 4 1 4 5
M  V30 5 2 5 6
M  V30 6 1 6 7
M  V30 7 1 7 8
M  V30 8 2 7 9
M  V30 9 1 9 10
M  V30 10 1 10 11
M  V30 11 1 11 12
M  V30 12 1 12 13
M  V30 13 1 13 14
M  V30 14 1 14 15
M  V30 15 1 15 16
M  V30 16 1 16 17
M  V30 17 2 17 18
M  V30 18 1 17 19
M  V30 19 2 19 20
M  V30 20 1 20 21
M  V30 21 2 21 22
M  V30 22 1 22 23
M  V30 23 1 23 24
M  V30 24 2 24 25
M  V30 25 1 25 26
M  V30 26 1 26 27
M  V30 27 1 27 28
M  V30 28 1 28 29
M  V30 29 1 29 30
M  V30 30 1 30 31
M  V30 31 1 25 32
M  V30 32 2 32 33
M  V30 33 1 15 34
M  V30 34 1 9 3
M  V30 35 1 34 11
M  V30 36 1 33 19
M  V30 37 1 32 22
M  V30 38 1 31 26
M  V30 39 1 1 35
M  V30 40 1 1 36
M  V30 41 1 1 37
M  V30 42 1 4 38
M  V30 43 1 5 39
M  V30 44 1 6 40
M  V30 45 1 10 41
M  V30 46 1 10 42
M  V30 47 1 12 43
M  V30 48 1 12 44
M  V30 49 1 13 45
M  V30 50 1 13 46
M  V30 51 1 14 47
M  V30 52 1 14 48
M  V30 53 1 15 49 CFG=1
M  V30 54 1 16 50
M  V30 55 1 20 51
M  V30 56 1 21 52
M  V30 57 1 23 53
M  V30 58 1 26 54
M  V30 59 1 27 55
M  V30 60 1 27 56
M  V30 61 1 28 57
M  V30 62 1 28 58
M  V30 63 1 30 59
M  V30 64 1 30 60
M  V30 65 1 31 61
M  V30 66 1 31 62
M  V30 67 1 33 63
M  V30 68 1 34 64
M  V30 69 1 34 65
M  V30 END BOND
M  V30 END CTAB
M  END
>  <Dataset>  (702) 
ChEMBL_Kinases

>  <Ligand_Instance>  (702) 
nan

>  <PDB_ID>  (702) 
nan

>  <Standardized_SMILES>  (702) 
COc1cccc(F)c1CN1CCC[C@@H](NC(=O)c2ccc3[nH]nc(C4CCOCC4)c3c2)C1

>  <Name>  (702) 
nan

>  <Pocket>  (702) 
nan

>  <ATP_Site>  (702) 
nan

>  <Peripheral>  (702) 
nan

>  <Num_H_Atoms_ProtBoundConf>  (702) 
nan

>  <Num_Resolved_Atoms>  (702) 
nan

>  <Num_Not_Resolved_Atoms>  (702) 
nan

$$$$
CHEMBL3651169
     RDKit          3D

  0  0  0  0  0  0  0  0  0  0999 V3000
M  V30 BEGIN CTAB
M  V30 COUNTS 53 57 0 0 0
M  V30 BEGIN ATOM
M  V30 1 O -1.433713 0.578818 -0.282062 0
M  V30 2 C -0.911722 -0.551628 -0.098748 0
M  V30 3 N 0.482224 -0.534523 -0.452045 0
M  V30 4 C 1.186370 0.602043 -0.944031 0
M  V30 5 C 1.249672 0.840014 -2.316947 0
M  V30 6 C 1.933010 1.941442 -2.786474 0
M  V30 7 C 2.562304 2.823296 -1.924153 0
M  V30 8 N 3.289996 3.956724 -2.045137 0
M  V30 9 N 3.638961 4.369937 -0.831881 0
M  V30 10 C 3.153915 3.526635 0.105466 0
M  V30 11 C 3.395388 3.751266 1.525327 0
M  V30 12 C 4.610544 4.098052 2.082651 0
M  V30 13 C 4.763370 4.293927 3.436737 0
M  V30 14 N 3.712059 4.147730 4.251429 0
M  V30 15 C 2.530680 3.814427 3.742073 0
M  V30 16 C 2.325504 3.606676 2.389987 0
M  V30 17 C 2.470709 2.544689 -0.582274 0
M  V30 18 C 1.804885 1.463334 -0.043590 0
M  V30 19 C -1.332307 -1.918066 0.386099 0
M  V30 20 C -0.546521 -2.323083 1.576118 0
M  V30 21 N -1.222004 -2.864530 2.682778 0
M  V30 22 C -2.597073 -3.145709 2.632277 0
M  V30 23 C -3.280567 -3.157731 1.321006 0
M  V30 24 C -3.321934 -4.465286 0.630245 0
M  V30 25 C -4.568265 -5.050159 0.366886 0
M  V30 26 C -4.713717 -6.284255 -0.279590 0
M  V30 27 C -3.581908 -6.963208 -0.679445 0
M  V30 28 C -2.332824 -6.429705 -0.443153 0
M  V30 29 C -2.268735 -5.211984 0.197645 0
M  V30 30 C -2.810583 -2.018685 0.485097 0
M  V30 31 H 1.231279 -1.281951 -0.431797 0
M  V30 32 H 0.776527 0.183811 -3.033773 0
M  V30 33 H 1.978570 2.119128 -3.837049 0
M  V30 34 H 3.514714 4.399379 -2.982780 0
M  V30 35 H 5.431718 4.204514 1.380927 0
M  V30 36 H 5.733338 4.560513 3.796187 0
M  V30 37 H 1.736023 3.719057 4.485499 0
M  V30 38 H 1.326210 3.344603 2.127258 0
M  V30 39 H 1.744417 1.263352 1.006303 0
M  V30 40 H -1.039738 -2.600934 -0.467399 0
M  V30 41 H 0.349598 -2.953383 1.272007 0
M  V30 42 H -0.021628 -1.391470 1.958978 0
M  V30 43 H -0.887686 -2.496943 3.606307 0
M  V30 44 H -2.815508 -4.092891 3.219827 0
M  V30 45 H -3.108482 -2.360863 3.273444 0
M  V30 46 H -4.375915 -2.927644 1.539816 0
M  V30 47 H -5.523199 -4.580032 0.650286 0
M  V30 48 H -5.682781 -6.705586 -0.466783 0
M  V30 49 H -3.717953 -7.913558 -1.176719 0
M  V30 50 H -1.434883 -6.947705 -0.749497 0
M  V30 51 H -1.280606 -4.828550 0.366511 0
M  V30 52 H -3.302686 -2.087057 -0.517537 0
M  V30 53 H -3.232980 -1.080231 0.945300 0
M  V30 END ATOM
M  V30 BEGIN BOND
M  V30 1 2 1 2
M  V30 2 1 2 3
M  V30 3 1 3 4
M  V30 4 2 4 5
M  V30 5 1 5 6
M  V30 6 2 6 7
M  V30 7 1 7 8
M  V30 8 1 8 9
M  V30 9 2 9 10
M  V30 10 1 10 11
M  V30 11 2 11 12
M  V30 12 1 12 13
M  V30 13 2 13 14
M  V30 14 1 14 15
M  V30 15 2 15 16
M  V30 16 1 10 17
M  V30 17 2 17 18
M  V30 18 1 2 19
M  V30 19 1 19 20
M  V30 20 1 20 21
M  V30 21 1 21 22
M  V30 22 1 22 23
M  V30 23 1 23 24
M  V30 24 2 24 25
M  V30 25 1 25 26
M  V30 26 2 26 27
M  V30 27 1 27 28
M  V30 28 2 28 29
M  V30 29 1 23 30
M  V30 30 1 18 4
M  V30 31 1 30 19
M  V30 32 1 17 7
M  V30 33 1 29 24
M  V30 34 1 16 11
M  V30 35 1 3 31
M  V30 36 1 5 32
M  V30 37 1 6 33
M  V30 38 1 8 34
M  V30 39 1 12 35
M  V30 40 1 13 36
M  V30 41 1 15 37
M  V30 42 1 16 38
M  V30 43 1 18 39
M  V30 44 1 19 40
M  V30 45 1 20 41
M  V30 46 1 20 42
M  V30 47 1 21 43
M  V30 48 1 22 44
M  V30 49 1 22 45
M  V30 50 1 23 46
M  V30 51 1 25 47
M  V30 52 1 26 48
M  V30 53 1 27 49
M  V30 54 1 28 50
M  V30 55 1 29 51
M  V30 56 1 30 52
M  V30 57 1 30 53
M  V30 END BOND
M  V30 END CTAB
M  END
>  <Dataset>  (703) 
ChEMBL_Kinases

>  <Ligand_Instance>  (703) 
nan

>  <PDB_ID>  (703) 
nan

>  <Standardized_SMILES>  (703) 
O=C(Nc1ccc2[nH]nc(-c3ccncc3)c2c1)C1CNCC(c2ccccc2)C1

>  <Name>  (703) 
nan

>  <Pocket>  (703) 
nan

>  <ATP_Site>  (703) 
nan

>  <Peripheral>  (703) 
nan

>  <Num_H_Atoms_ProtBoundConf>  (703) 
nan

>  <Num_Resolved_Atoms>  (703) 
nan

>  <Num_Not_Resolved_Atoms>  (703) 
nan

$$$$
CHEMBL3651171
     RDKit          3D

  0  0  0  0  0  0  0  0  0  0999 V3000
M  V30 BEGIN CTAB
M  V30 COUNTS 56 60 0 0 0
M  V30 BEGIN ATOM
M  V30 1 O 0.506833 -2.751819 0.125855 0
M  V30 2 C 0.558184 -1.482016 -0.005027 0
M  V30 3 N 1.450936 -0.854780 0.884763 0
M  V30 4 C 2.225529 -1.620484 1.850089 0 CFG=1
M  V30 5 C 3.685037 -1.346770 1.749528 0
M  V30 6 C 4.419762 -1.379564 3.072192 0
M  V30 7 C 3.799445 -0.429222 4.076183 0
M  V30 8 N 2.508054 0.006181 3.574430 0
M  V30 9 C 1.887577 0.981782 4.401559 0
M  V30 10 C 0.571918 1.375714 3.851234 0
M  V30 11 C 0.534672 2.408460 2.906863 0
M  V30 12 C -0.590265 2.915170 2.293857 0
M  V30 13 C -1.800782 2.359349 2.635703 0
M  V30 14 C -1.818184 1.338085 3.562401 0
M  V30 15 C -0.668430 0.858624 4.154127 0
M  V30 16 C 1.739748 -1.138918 3.227220 0
M  V30 17 C -0.238920 -0.743888 -0.991058 0
M  V30 18 C -0.192996 0.633458 -1.143848 0
M  V30 19 C -1.007818 1.170642 -2.119708 0
M  V30 20 C -1.845749 0.434289 -2.932998 0
M  V30 21 N -2.704748 0.747558 -3.924407 0
M  V30 22 N -3.261627 -0.369996 -4.372175 0
M  V30 23 C -2.783830 -1.429541 -3.690044 0
M  V30 24 C -3.142840 -2.837117 -3.877269 0
M  V30 25 C -4.513573 -3.076798 -4.008044 0
M  V30 26 C -4.928055 -4.400082 -4.189872 0
M  V30 27 N -4.042631 -5.421778 -4.239231 0
M  V30 28 C -2.738566 -5.171751 -4.112314 0
M  V30 29 C -2.257139 -3.902729 -3.931603 0
M  V30 30 C -1.866977 -0.934609 -2.754282 0
M  V30 31 C -1.076781 -1.522459 -1.798040 0
M  V30 32 H 1.575058 0.172464 0.869749 0
M  V30 33 H 1.999194 -2.710276 1.761722 0
M  V30 34 H 3.818295 -0.363294 1.257544 0
M  V30 35 H 4.143546 -2.138442 1.126703 0
M  V30 36 H 4.498632 -2.412637 3.427725 0
M  V30 37 H 5.451065 -1.019110 2.853522 0
M  V30 38 H 3.655247 -1.024763 5.006872 0
M  V30 39 H 4.478590 0.405901 4.320136 0
M  V30 40 H 1.726178 0.650580 5.448883 0
M  V30 41 H 2.498553 1.917700 4.451667 0
M  V30 42 H 1.493851 2.867476 2.619072 0
M  V30 43 H -0.494170 3.716293 1.578190 0
M  V30 44 H -2.697529 2.725674 2.181120 0
M  V30 45 H -2.757421 0.861279 3.869080 0
M  V30 46 H -0.663345 0.051989 4.895255 0
M  V30 47 H 1.895721 -1.998111 3.914879 0
M  V30 48 H 0.642314 -0.982886 3.204394 0
M  V30 49 H 0.458294 1.193775 -0.509934 0
M  V30 50 H -0.956507 2.265798 -2.224915 0
M  V30 51 H -2.907495 1.702507 -4.288461 0
M  V30 52 H -5.257798 -2.276661 -3.973223 0
M  V30 53 H -5.997240 -4.562473 -4.289084 0
M  V30 54 H -2.064118 -6.004936 -4.156158 0
M  V30 55 H -1.215542 -3.658114 -3.825125 0
M  V30 56 H -1.107654 -2.600586 -1.672858 0
M  V30 END ATOM
M  V30 BEGIN BOND
M  V30 1 2 1 2
M  V30 2 1 2 3
M  V30 3 1 3 4
M  V30 4 1 4 5
M  V30 5 1 5 6
M  V30 6 1 6 7
M  V30 7 1 7 8
M  V30 8 1 8 9
M  V30 9 1 9 10
M  V30 10 2 10 11
M  V30 11 1 11 12
M  V30 12 2 12 13
M  V30 13 1 13 14
M  V30 14 2 14 15
M  V30 15 1 8 16
M  V30 16 1 2 17
M  V30 17 2 17 18
M  V30 18 1 18 19
M  V30 19 2 19 20
M  V30 20 1 20 21
M  V30 21 1 21 22
M  V30 22 2 22 23
M  V30 23 1 23 24
M  V30 24 2 24 25
M  V30 25 1 25 26
M  V30 26 2 26 27
M  V30 27 1 27 28
M  V30 28 2 28 29
M  V30 29 1 23 30
M  V30 30 2 30 31
M  V30 31 1 16 4
M  V30 32 1 31 17
M  V30 33 1 15 10
M  V30 34 1 30 20
M  V30 35 1 29 24
M  V30 36 1 3 32
M  V30 37 1 4 33 CFG=1
M  V30 38 1 5 34
M  V30 39 1 5 35
M  V30 40 1 6 36
M  V30 41 1 6 37
M  V30 42 1 7 38
M  V30 43 1 7 39
M  V30 44 1 9 40
M  V30 45 1 9 41
M  V30 46 1 11 42
M  V30 47 1 12 43
M  V30 48 1 13 44
M  V30 49 1 14 45
M  V30 50 1 15 46
M  V30 51 1 16 47
M  V30 52 1 16 48
M  V30 53 1 18 49
M  V30 54 1 19 50
M  V30 55 1 21 51
M  V30 56 1 25 52
M  V30 57 1 26 53
M  V30 58 1 28 54
M  V30 59 1 29 55
M  V30 60 1 31 56
M  V30 END BOND
M  V30 END CTAB
M  END
>  <Dataset>  (704) 
ChEMBL_Kinases

>  <Ligand_Instance>  (704) 
nan

>  <PDB_ID>  (704) 
nan

>  <Standardized_SMILES>  (704) 
O=C(N[C@H]1CCCN(Cc2ccccc2)C1)c1ccc2[nH]nc(-c3ccncc3)c2c1

>  <Name>  (704) 
nan

>  <Pocket>  (704) 
nan

>  <ATP_Site>  (704) 
nan

>  <Peripheral>  (704) 
nan

>  <Num_H_Atoms_ProtBoundConf>  (704) 
nan

>  <Num_Resolved_Atoms>  (704) 
nan

>  <Num_Not_Resolved_Atoms>  (704) 
nan

$$$$
CHEMBL3651172
     RDKit          3D

  0  0  0  0  0  0  0  0  0  0999 V3000
M  V30 BEGIN CTAB
M  V30 COUNTS 56 60 0 0 0
M  V30 BEGIN ATOM
M  V30 1 O -0.137101 -2.234947 1.738021 0
M  V30 2 C 0.358555 -1.697622 0.733967 0
M  V30 3 N 1.585016 -0.989685 0.959805 0
M  V30 4 C 2.231808 -0.881968 2.233029 0 CFG=1
M  V30 5 C 3.609273 -1.316328 2.356686 0
M  V30 6 C 4.579822 -0.295632 2.930758 0
M  V30 7 C 4.381550 1.064984 2.290804 0
M  V30 8 N 3.016575 1.473981 2.288745 0
M  V30 9 C 2.727292 2.231691 1.127029 0
M  V30 10 C 1.318141 2.686344 1.025690 0
M  V30 11 C 0.320254 2.175212 0.221192 0
M  V30 12 C -0.945988 2.738422 0.265369 0
M  V30 13 C -1.216322 3.802364 1.104046 0
M  V30 14 C -0.217248 4.316948 1.911743 0
M  V30 15 C 1.048704 3.762327 1.875173 0
M  V30 16 F 1.958258 4.341686 2.708087 0
M  V30 17 C 2.059898 0.532535 2.733936 0
M  V30 18 C -0.268810 -1.784680 -0.580886 0
M  V30 19 C 0.208399 -1.218832 -1.753092 0
M  V30 20 C -0.457472 -1.356649 -2.952481 0
M  V30 21 C -1.633878 -2.076725 -2.998470 0
M  V30 22 N -2.518888 -2.399258 -3.984894 0
M  V30 23 N -3.513211 -3.130718 -3.488432 0
M  V30 24 C -3.329958 -3.323440 -2.155946 0
M  V30 25 C -4.197612 -4.067526 -1.261472 0
M  V30 26 C -4.667141 -5.299375 -1.684053 0
M  V30 27 C -5.507718 -6.070304 -0.873127 0
M  V30 28 N -5.886498 -5.623867 0.359990 0
M  V30 29 C -5.415265 -4.408640 0.761051 0
M  V30 30 C -4.586580 -3.627056 -0.014962 0
M  V30 31 C -2.154598 -2.662011 -1.859302 0
M  V30 32 C -1.440908 -2.486444 -0.695315 0
M  V30 33 H 2.021015 -0.531078 0.129640 0
M  V30 34 H 1.567373 -1.493275 2.924084 0
M  V30 35 H 3.667459 -2.170387 3.080520 0
M  V30 36 H 4.052807 -1.796124 1.434225 0
M  V30 37 H 5.621917 -0.570038 2.763394 0
M  V30 38 H 4.430126 -0.154910 4.020601 0
M  V30 39 H 4.950968 1.768875 2.943585 0
M  V30 40 H 4.856476 1.137970 1.284413 0
M  V30 41 H 3.430776 3.118867 1.120138 0
M  V30 42 H 2.970824 1.647034 0.226597 0
M  V30 43 H 0.624634 1.349550 -0.396793 0
M  V30 44 H -1.630558 2.234635 -0.422229 0
M  V30 45 H -2.246523 4.146689 1.040116 0
M  V30 46 H -0.548308 5.133901 2.511753 0
M  V30 47 H 1.027389 0.831606 2.405433 0
M  V30 48 H 1.983357 0.479638 3.848042 0
M  V30 49 H 1.129775 -0.661988 -1.686921 0
M  V30 50 H -0.060781 -0.903740 -3.850554 0
M  V30 51 H -2.434889 -2.115854 -4.991371 0
M  V30 52 H -4.382822 -5.681426 -2.660493 0
M  V30 53 H -5.872143 -7.021117 -1.196141 0
M  V30 54 H -5.749941 -4.108718 1.747318 0
M  V30 55 H -4.234291 -2.669977 0.337120 0
M  V30 56 H -1.859485 -2.950784 0.187680 0
M  V30 END ATOM
M  V30 BEGIN BOND
M  V30 1 2 1 2
M  V30 2 1 2 3
M  V30 3 1 3 4
M  V30 4 1 4 5
M  V30 5 1 5 6
M  V30 6 1 6 7
M  V30 7 1 7 8
M  V30 8 1 8 9
M  V30 9 1 9 10
M  V30 10 2 10 11
M  V30 11 1 11 12
M  V30 12 2 12 13
M  V30 13 1 13 14
M  V30 14 2 14 15
M  V30 15 1 15 16
M  V30 16 1 8 17
M  V30 17 1 2 18
M  V30 18 2 18 19
M  V30 19 1 19 20
M  V30 20 2 20 21
M  V30 21 1 21 22
M  V30 22 1 22 23
M  V30 23 2 23 24
M  V30 24 1 24 25
M  V30 25 2 25 26
M  V30 26 1 26 27
M  V30 27 2 27 28
M  V30 28 1 28 29
M  V30 29 2 29 30
M  V30 30 1 24 31
M  V30 31 2 31 32
M  V30 32 1 17 4
M  V30 33 1 32 18
M  V30 34 1 15 10
M  V30 35 1 31 21
M  V30 36 1 30 25
M  V30 37 1 3 33
M  V30 38 1 4 34 CFG=1
M  V30 39 1 5 35
M  V30 40 1 5 36
M  V30 41 1 6 37
M  V30 42 1 6 38
M  V30 43 1 7 39
M  V30 44 1 7 40
M  V30 45 1 9 41
M  V30 46 1 9 42
M  V30 47 1 11 43
M  V30 48 1 12 44
M  V30 49 1 13 45
M  V30 50 1 14 46
M  V30 51 1 17 47
M  V30 52 1 17 48
M  V30 53 1 19 49
M  V30 54 1 20 50
M  V30 55 1 22 51
M  V30 56 1 26 52
M  V30 57 1 27 53
M  V30 58 1 29 54
M  V30 59 1 30 55
M  V30 60 1 32 56
M  V30 END BOND
M  V30 END CTAB
M  END
>  <Dataset>  (705) 
ChEMBL_Kinases

>  <Ligand_Instance>  (705) 
nan

>  <PDB_ID>  (705) 
nan

>  <Standardized_SMILES>  (705) 
O=C(N[C@H]1CCCN(Cc2ccccc2F)C1)c1ccc2[nH]nc(-c3ccncc3)c2c1

>  <Name>  (705) 
nan

>  <Pocket>  (705) 
nan

>  <ATP_Site>  (705) 
nan

>  <Peripheral>  (705) 
nan

>  <Num_H_Atoms_ProtBoundConf>  (705) 
nan

>  <Num_Resolved_Atoms>  (705) 
nan

>  <Num_Not_Resolved_Atoms>  (705) 
nan

$$$$
CHEMBL3651173
     RDKit          3D

  0  0  0  0  0  0  0  0  0  0999 V3000
M  V30 BEGIN CTAB
M  V30 COUNTS 56 60 0 0 0
M  V30 BEGIN ATOM
M  V30 1 O 0.705393 -2.336892 -0.321129 0
M  V30 2 C 0.092150 -1.702250 0.592373 0
M  V30 3 N 0.916210 -0.955493 1.478671 0
M  V30 4 C 2.376585 -0.892439 1.383810 0 CFG=2
M  V30 5 C 3.040699 -1.582307 2.532266 0
M  V30 6 C 3.525347 -0.696049 3.627018 0
M  V30 7 C 4.161020 0.580338 3.118398 0
M  V30 8 N 3.339619 1.211795 2.162903 0
M  V30 9 C 3.373158 2.615575 2.056546 0
M  V30 10 C 2.438452 3.077301 0.995426 0
M  V30 11 C 2.905904 3.202801 -0.305262 0
M  V30 12 C 2.044740 3.634580 -1.315741 0
M  V30 13 C 0.719821 3.946852 -1.061502 0
M  V30 14 C 0.300399 3.805050 0.255569 0
M  V30 15 C 1.118797 3.382935 1.276387 0
M  V30 16 C 2.880918 0.464510 1.057793 0
M  V30 17 C -1.346075 -1.744101 0.712547 0
M  V30 18 C -2.079640 -1.098869 1.654703 0
M  V30 19 C -3.453962 -1.139693 1.768435 0
M  V30 20 C -4.161559 -1.898885 0.851514 0
M  V30 21 N -5.445234 -2.204077 0.604807 0
M  V30 22 N -5.534197 -3.003680 -0.441003 0
M  V30 23 C -4.310447 -3.265490 -0.936269 0
M  V30 24 C -4.083504 -4.121875 -2.095666 0
M  V30 25 C -4.784933 -5.305277 -2.123451 0
M  V30 26 C -4.655469 -6.204148 -3.171703 0
M  V30 27 N -3.817166 -5.926683 -4.210327 0
M  V30 28 C -3.122226 -4.768090 -4.195871 0
M  V30 29 C -3.241422 -3.866813 -3.161275 0
M  V30 30 C -3.437569 -2.570753 -0.124671 0
M  V30 31 C -2.065590 -2.496029 -0.193316 0
M  V30 32 H 0.476518 -0.401563 2.264344 0
M  V30 33 H 2.601010 -1.544787 0.494380 0
M  V30 34 H 2.277900 -2.276856 2.984833 0
M  V30 35 H 3.870075 -2.272330 2.227087 0
M  V30 36 H 4.304040 -1.243971 4.200741 0
M  V30 37 H 2.695892 -0.501995 4.336117 0
M  V30 38 H 4.265664 1.260788 3.988733 0
M  V30 39 H 5.201089 0.355784 2.775123 0
M  V30 40 H 4.376181 3.053672 1.857273 0
M  V30 41 H 2.995054 3.061218 3.004976 0
M  V30 42 H 3.924154 2.970155 -0.538421 0
M  V30 43 H 2.470007 3.711062 -2.305363 0
M  V30 44 H 0.066850 4.279191 -1.853077 0
M  V30 45 H -0.739922 4.039488 0.510436 0
M  V30 46 H 0.830400 3.263294 2.295761 0
M  V30 47 H 2.054067 1.032298 0.577622 0
M  V30 48 H 3.693030 0.417750 0.296703 0
M  V30 49 H -1.557297 -0.489210 2.396609 0
M  V30 50 H -4.007909 -0.614612 2.529893 0
M  V30 51 H -6.204601 -1.814095 1.212785 0
M  V30 52 H -5.458714 -5.580508 -1.337910 0
M  V30 53 H -5.228795 -7.132656 -3.157870 0
M  V30 54 H -2.459316 -4.555497 -5.023628 0
M  V30 55 H -2.701846 -2.929585 -3.114543 0
M  V30 56 H -1.520248 -3.034747 -0.971737 0
M  V30 END ATOM
M  V30 BEGIN BOND
M  V30 1 2 1 2
M  V30 2 1 2 3
M  V30 3 1 3 4
M  V30 4 1 4 5
M  V30 5 1 5 6
M  V30 6 1 6 7
M  V30 7 1 7 8
M  V30 8 1 8 9
M  V30 9 1 9 10
M  V30 10 2 10 11
M  V30 11 1 11 12
M  V30 12 2 12 13
M  V30 13 1 13 14
M  V30 14 2 14 15
M  V30 15 1 8 16
M  V30 16 1 2 17
M  V30 17 2 17 18
M  V30 18 1 18 19
M  V30 19 2 19 20
M  V30 20 1 20 21
M  V30 21 1 21 22
M  V30 22 2 22 23
M  V30 23 1 23 24
M  V30 24 2 24 25
M  V30 25 1 25 26
M  V30 26 2 26 27
M  V30 27 1 27 28
M  V30 28 2 28 29
M  V30 29 1 23 30
M  V30 30 2 30 31
M  V30 31 1 16 4
M  V30 32 1 31 17
M  V30 33 1 15 10
M  V30 34 1 30 20
M  V30 35 1 29 24
M  V30 36 1 3 32
M  V30 37 1 4 33 CFG=3
M  V30 38 1 5 34
M  V30 39 1 5 35
M  V30 40 1 6 36
M  V30 41 1 6 37
M  V30 42 1 7 38
M  V30 43 1 7 39
M  V30 44 1 9 40
M  V30 45 1 9 41
M  V30 46 1 11 42
M  V30 47 1 12 43
M  V30 48 1 13 44
M  V30 49 1 14 45
M  V30 50 1 15 46
M  V30 51 1 16 47
M  V30 52 1 16 48
M  V30 53 1 18 49
M  V30 54 1 19 50
M  V30 55 1 21 51
M  V30 56 1 25 52
M  V30 57 1 26 53
M  V30 58 1 28 54
M  V30 59 1 29 55
M  V30 60 1 31 56
M  V30 END BOND
M  V30 END CTAB
M  END
>  <Dataset>  (706) 
ChEMBL_Kinases

>  <Ligand_Instance>  (706) 
nan

>  <PDB_ID>  (706) 
nan

>  <Standardized_SMILES>  (706) 
O=C(N[C@@H]1CCCN(Cc2ccccc2)C1)c1ccc2[nH]nc(-c3ccncc3)c2c1

>  <Name>  (706) 
nan

>  <Pocket>  (706) 
nan

>  <ATP_Site>  (706) 
nan

>  <Peripheral>  (706) 
nan

>  <Num_H_Atoms_ProtBoundConf>  (706) 
nan

>  <Num_Resolved_Atoms>  (706) 
nan

>  <Num_Not_Resolved_Atoms>  (706) 
nan

$$$$
CHEMBL3651174
     RDKit          3D

  0  0  0  0  0  0  0  0  0  0999 V3000
M  V30 BEGIN CTAB
M  V30 COUNTS 56 60 0 0 0
M  V30 BEGIN ATOM
M  V30 1 O 0.623676 -2.938266 0.641306 0
M  V30 2 C -0.259451 -2.055066 0.749981 0
M  V30 3 N 0.184004 -0.819638 1.302516 0
M  V30 4 C 1.542013 -0.483248 1.747580 0 CFG=2
M  V30 5 C 1.561123 -0.197898 3.232557 0
M  V30 6 C 1.075449 1.203278 3.529765 0
M  V30 7 C 1.967455 2.213571 2.841418 0
M  V30 8 N 2.666946 1.676365 1.735025 0
M  V30 9 C 3.688432 2.435344 1.141130 0
M  V30 10 C 3.350337 3.732547 0.558502 0
M  V30 11 C 3.202082 3.846694 -0.830748 0
M  V30 12 C 2.876067 5.001732 -1.521722 0
M  V30 13 C 2.677536 6.148961 -0.782889 0
M  V30 14 C 2.805422 6.118597 0.591272 0
M  V30 15 C 3.130277 4.936167 1.195094 0
M  V30 16 F 3.258378 4.945674 2.542758 0
M  V30 17 C 1.996520 0.710499 0.938188 0
M  V30 18 C -1.658080 -2.198459 0.364157 0
M  V30 19 C -2.645237 -1.241640 0.475143 0
M  V30 20 C -3.937851 -1.466000 0.083349 0
M  V30 21 C -4.262910 -2.695931 -0.441828 0
M  V30 22 N -5.420639 -3.203308 -0.904966 0
M  V30 23 N -5.216021 -4.447770 -1.308616 0
M  V30 24 C -3.910463 -4.758273 -1.107541 0
M  V30 25 C -3.331709 -6.054551 -1.440445 0
M  V30 26 C -4.072894 -7.174632 -1.063825 0
M  V30 27 C -3.616092 -8.448620 -1.330729 0
M  V30 28 N -2.449300 -8.674786 -1.959049 0
M  V30 29 C -1.726311 -7.594343 -2.326742 0
M  V30 30 C -2.133521 -6.301573 -2.085933 0
M  V30 31 C -3.287322 -3.662896 -0.559083 0
M  V30 32 C -1.988518 -3.429437 -0.162460 0
M  V30 33 H -0.422022 0.011751 1.459502 0
M  V30 34 H 2.163198 -1.359806 1.567379 0
M  V30 35 H 2.554325 -0.394837 3.666559 0
M  V30 36 H 0.843380 -0.899997 3.704548 0
M  V30 37 H 0.021907 1.296694 3.249126 0
M  V30 38 H 1.148765 1.356490 4.623140 0
M  V30 39 H 1.326231 3.093884 2.617048 0
M  V30 40 H 2.717972 2.545354 3.587985 0
M  V30 41 H 4.514669 2.525608 1.913442 0
M  V30 42 H 4.177568 1.821638 0.340823 0
M  V30 43 H 3.350760 2.964773 -1.447798 0
M  V30 44 H 2.783149 5.003449 -2.577131 0
M  V30 45 H 2.423181 7.083939 -1.235909 0
M  V30 46 H 2.651399 7.015707 1.181776 0
M  V30 47 H 1.161405 1.133485 0.334634 0
M  V30 48 H 2.750568 0.318081 0.208618 0
M  V30 49 H -2.351312 -0.302112 0.887975 0
M  V30 50 H -4.666553 -0.690395 0.190323 0
M  V30 51 H -6.317114 -2.674778 -0.928421 0
M  V30 52 H -5.017398 -7.070643 -0.556717 0
M  V30 53 H -4.213217 -9.311128 -1.026935 0
M  V30 54 H -0.793947 -7.748953 -2.828457 0
M  V30 55 H -1.581751 -5.415716 -2.365422 0
M  V30 56 H -1.291057 -4.231446 -0.286407 0
M  V30 END ATOM
M  V30 BEGIN BOND
M  V30 1 2 1 2
M  V30 2 1 2 3
M  V30 3 1 3 4
M  V30 4 1 4 5
M  V30 5 1 5 6
M  V30 6 1 6 7
M  V30 7 1 7 8
M  V30 8 1 8 9
M  V30 9 1 9 10
M  V30 10 2 10 11
M  V30 11 1 11 12
M  V30 12 2 12 13
M  V30 13 1 13 14
M  V30 14 2 14 15
M  V30 15 1 15 16
M  V30 16 1 8 17
M  V30 17 1 2 18
M  V30 18 2 18 19
M  V30 19 1 19 20
M  V30 20 2 20 21
M  V30 21 1 21 22
M  V30 22 1 22 23
M  V30 23 2 23 24
M  V30 24 1 24 25
M  V30 25 2 25 26
M  V30 26 1 26 27
M  V30 27 2 27 28
M  V30 28 1 28 29
M  V30 29 2 29 30
M  V30 30 1 24 31
M  V30 31 2 31 32
M  V30 32 1 17 4
M  V30 33 1 32 18
M  V30 34 1 15 10
M  V30 35 1 31 21
M  V30 36 1 30 25
M  V30 37 1 3 33
M  V30 38 1 4 34 CFG=1
M  V30 39 1 5 35
M  V30 40 1 5 36
M  V30 41 1 6 37
M  V30 42 1 6 38
M  V30 43 1 7 39
M  V30 44 1 7 40
M  V30 45 1 9 41
M  V30 46 1 9 42
M  V30 47 1 11 43
M  V30 48 1 12 44
M  V30 49 1 13 45
M  V30 50 1 14 46
M  V30 51 1 17 47
M  V30 52 1 17 48
M  V30 53 1 19 49
M  V30 54 1 20 50
M  V30 55 1 22 51
M  V30 56 1 26 52
M  V30 57 1 27 53
M  V30 58 1 29 54
M  V30 59 1 30 55
M  V30 60 1 32 56
M  V30 END BOND
M  V30 END CTAB
M  END
>  <Dataset>  (707) 
ChEMBL_Kinases

>  <Ligand_Instance>  (707) 
nan

>  <PDB_ID>  (707) 
nan

>  <Standardized_SMILES>  (707) 
O=C(N[C@@H]1CCCN(Cc2ccccc2F)C1)c1ccc2[nH]nc(-c3ccncc3)c2c1

>  <Name>  (707) 
nan

>  <Pocket>  (707) 
nan

>  <ATP_Site>  (707) 
nan

>  <Peripheral>  (707) 
nan

>  <Num_H_Atoms_ProtBoundConf>  (707) 
nan

>  <Num_Resolved_Atoms>  (707) 
nan

>  <Num_Not_Resolved_Atoms>  (707) 
nan

$$$$
CHEMBL3651165
     RDKit          3D

  0  0  0  0  0  0  0  0  0  0999 V3000
M  V30 BEGIN CTAB
M  V30 COUNTS 62 67 0 0 0
M  V30 BEGIN ATOM
M  V30 1 O 0.465072 -1.139180 1.070340 0
M  V30 2 C -0.521734 -0.873376 1.808071 0
M  V30 3 N -0.338631 -0.035757 2.931486 0
M  V30 4 C 0.947694 0.498386 3.221140 0 CFG=2
M  V30 5 C 1.538887 0.052705 4.535773 0
M  V30 6 C 2.868524 0.752477 4.692474 0
M  V30 7 C 3.350098 1.446986 3.458254 0
M  V30 8 N 2.397254 2.393459 2.924685 0
M  V30 9 C 2.672747 2.481807 1.489649 0
M  V30 10 C 1.793958 3.404828 0.773842 0
M  V30 11 C 0.741096 2.969214 -0.029080 0
M  V30 12 C -0.139992 3.754075 -0.741743 0
M  V30 13 C 0.044030 5.114014 -0.647105 0
M  V30 14 C 1.071243 5.613929 0.133548 0
M  V30 15 C 1.931537 4.793345 0.831449 0
M  V30 16 F 2.926549 5.327746 1.586282 0
M  V30 17 C 1.027765 1.995426 3.159865 0
M  V30 18 C -1.839678 -1.433601 1.493020 0
M  V30 19 C -2.996255 -1.226725 2.216620 0
M  V30 20 C -4.193493 -1.797691 1.841723 0
M  V30 21 C -4.286485 -2.589874 0.741946 0
M  V30 22 N -5.297856 -3.258422 0.157953 0
M  V30 23 N -4.833695 -3.895605 -0.926029 0
M  V30 24 C -3.530749 -3.655813 -1.063536 0
M  V30 25 C -2.668722 -4.172574 -2.123439 0
M  V30 26 C -3.043725 -4.165285 -3.472430 0
M  V30 27 C -2.208320 -4.661246 -4.454245 0
M  V30 28 C -0.960107 -5.187619 -4.137023 0
M  V30 29 C -0.581968 -5.196772 -2.790682 0
M  V30 30 C -1.422150 -4.697281 -1.796960 0
M  V30 31 C 0.792860 -5.807680 -2.701309 0
M  V30 32 C 1.313276 -5.503433 -4.109916 0
M  V30 33 O 0.111271 -5.757854 -4.852282 0
M  V30 34 C -3.172993 -2.830192 -0.013423 0
M  V30 35 C -1.982052 -2.250094 0.376908 0
M  V30 36 H -1.115330 0.219756 3.578101 0
M  V30 37 H 1.662344 0.112338 2.435696 0
M  V30 38 H 1.623501 -1.057341 4.548336 0
M  V30 39 H 0.891463 0.418943 5.371723 0
M  V30 40 H 3.620082 -0.068885 4.889093 0
M  V30 41 H 2.903384 1.409348 5.584293 0
M  V30 42 H 3.685105 0.753785 2.667160 0
M  V30 43 H 4.234950 2.048216 3.756109 0
M  V30 44 H 2.610889 1.480335 1.013903 0
M  V30 45 H 3.733371 2.799272 1.399021 0
M  V30 46 H 0.612021 1.882928 -0.092029 0
M  V30 47 H -0.913114 3.272535 -1.325175 0
M  V30 48 H -0.629010 5.759834 -1.193963 0
M  V30 49 H 1.218330 6.696451 0.209372 0
M  V30 50 H 0.740259 2.399419 4.152435 0
M  V30 51 H 0.419098 2.351297 2.332720 0
M  V30 52 H -2.917988 -0.596776 3.089188 0
M  V30 53 H -5.034739 -1.578734 2.466063 0
M  V30 54 H -6.282103 -3.240904 0.547081 0
M  V30 55 H -4.014786 -3.758183 -3.734311 0
M  V30 56 H -2.482159 -4.662706 -5.495832 0
M  V30 57 H -1.043020 -4.748462 -0.782734 0
M  V30 58 H 0.744948 -6.891687 -2.565788 0
M  V30 59 H 1.400409 -5.273303 -1.922429 0
M  V30 60 H 2.121808 -6.167055 -4.412954 0
M  V30 61 H 1.522221 -4.419325 -4.210889 0
M  V30 62 H -1.088371 -2.425658 -0.206313 0
M  V30 END ATOM
M  V30 BEGIN BOND
M  V30 1 2 1 2
M  V30 2 1 2 3
M  V30 3 1 3 4
M  V30 4 1 4 5
M  V30 5 1 5 6
M  V30 6 1 6 7
M  V30 7 1 7 8
M  V30 8 1 8 9
M  V30 9 1 9 10
M  V30 10 2 10 11
M  V30 11 1 11 12
M  V30 12 2 12 13
M  V30 13 1 13 14
M  V30 14 2 14 15
M  V30 15 1 15 16
M  V30 16 1 8 17
M  V30 17 1 2 18
M  V30 18 2 18 19
M  V30 19 1 19 20
M  V30 20 2 20 21
M  V30 21 1 21 22
M  V30 22 1 22 23
M  V30 23 2 23 24
M  V30 24 1 24 25
M  V30 25 2 25 26
M  V30 26 1 26 27
M  V30 27 2 27 28
M  V30 28 1 28 29
M  V30 29 2 29 30
M  V30 30 1 29 31
M  V30 31 1 31 32
M  V30 32 1 32 33
M  V30 33 1 24 34
M  V30 34 2 34 35
M  V30 35 1 17 4
M  V30 36 1 35 18
M  V30 37 1 15 10
M  V30 38 1 34 21
M  V30 39 1 30 25
M  V30 40 1 33 28
M  V30 41 1 3 36
M  V30 42 1 4 37 CFG=3
M  V30 43 1 5 38
M  V30 44 1 5 39
M  V30 45 1 6 40
M  V30 46 1 6 41
M  V30 47 1 7 42
M  V30 48 1 7 43
M  V30 49 1 9 44
M  V30 50 1 9 45
M  V30 51 1 11 46
M  V30 52 1 12 47
M  V30 53 1 13 48
M  V30 54 1 14 49
M  V30 55 1 17 50
M  V30 56 1 17 51
M  V30 57 1 19 52
M  V30 58 1 20 53
M  V30 59 1 22 54
M  V30 60 1 26 55
M  V30 61 1 27 56
M  V30 62 1 30 57
M  V30 63 1 31 58
M  V30 64 1 31 59
M  V30 65 1 32 60
M  V30 66 1 32 61
M  V30 67 1 35 62
M  V30 END BOND
M  V30 END CTAB
M  END
>  <Dataset>  (708) 
ChEMBL_Kinases

>  <Ligand_Instance>  (708) 
nan

>  <PDB_ID>  (708) 
nan

>  <Standardized_SMILES>  (708) 
O=C(N[C@@H]1CCCN(Cc2ccccc2F)C1)c1ccc2[nH]nc(-c3ccc4c(c3)CCO4)c2c1

>  <Name>  (708) 
nan

>  <Pocket>  (708) 
nan

>  <ATP_Site>  (708) 
nan

>  <Peripheral>  (708) 
nan

>  <Num_H_Atoms_ProtBoundConf>  (708) 
nan

>  <Num_Resolved_Atoms>  (708) 
nan

>  <Num_Not_Resolved_Atoms>  (708) 
nan

$$$$
CHEMBL3647956
     RDKit          3D

  0  0  0  0  0  0  0  0  0  0999 V3000
M  V30 BEGIN CTAB
M  V30 COUNTS 53 56 0 0 0
M  V30 BEGIN ATOM
M  V30 1 N -3.161123 -4.379381 2.649588 0
M  V30 2 C -2.127818 -3.884727 2.701851 0
M  V30 3 C -0.828774 -3.254205 2.786939 0
M  V30 4 S -0.389032 -1.801900 3.794463 0
M  V30 5 C 1.423756 -1.873970 3.161227 0
M  V30 6 N 2.373024 -0.899157 3.631956 0
M  V30 7 C 2.668429 0.389610 3.068643 0
M  V30 8 C 3.182848 0.293492 1.668666 0
M  V30 9 N 2.179014 -0.343513 0.839522 0
M  V30 10 C 0.872225 0.154354 0.602948 0
M  V30 11 N 0.496197 1.308928 1.167976 0
M  V30 12 C -0.708373 1.878067 1.014661 0
M  V30 13 C -0.930479 3.130828 1.695197 0
M  V30 14 C 0.129177 3.682223 2.383698 0
M  V30 15 C 0.045565 4.868295 3.077702 0
M  V30 16 C -1.128477 5.582050 3.121085 0
M  V30 17 Cl -1.202756 7.085942 4.011399 0
M  V30 18 C -2.210942 5.064812 2.445951 0
M  V30 19 C -2.074676 3.879092 1.769848 0
M  V30 20 Cl -3.515521 3.347102 0.979476 0
M  V30 21 C -1.525227 1.149012 0.210957 0
M  V30 22 N -1.221440 -0.006609 -0.385270 0
M  V30 23 N -1.874478 -0.832652 -1.180395 0
M  V30 24 C -1.097584 -1.879475 -1.508019 0
M  V30 25 C -1.518211 -2.986984 -2.381481 0
M  V30 26 O -2.689677 -2.918623 -2.835468 0
M  V30 27 N -0.607603 -4.024953 -2.646702 0
M  V30 28 C -0.987546 -5.133604 -3.503812 0
M  V30 29 C -1.329798 -4.571848 -4.835587 0
M  V30 30 O -1.245776 -3.309135 -5.007156 0
M  V30 31 O -1.673780 -4.156402 -6.121079 0
M  V30 32 C 0.116788 -1.723727 -0.895592 0
M  V30 33 C -0.003037 -0.538362 -0.202551 0
M  V30 34 N 1.401751 -2.786130 2.447647 0
M  V30 35 C 0.385450 -3.572089 2.149829 0
M  V30 36 N 0.404765 -4.688919 1.261280 0
M  V30 37 H 2.852637 -1.251971 4.478649 0
M  V30 38 H 1.770413 1.031387 3.147096 0
M  V30 39 H 3.436021 0.900512 3.707640 0
M  V30 40 H 3.365621 1.347336 1.298022 0
M  V30 41 H 4.149220 -0.219390 1.608931 0
M  V30 42 H 2.464205 -1.254912 0.377766 0
M  V30 43 H 1.129046 3.221815 2.434805 0
M  V30 44 H 0.890205 5.277453 3.607671 0
M  V30 45 H -3.120384 5.639152 2.492662 0
M  V30 46 H -2.496399 1.508049 0.018225 0
M  V30 47 H 0.349513 -4.035998 -2.247609 0
M  V30 48 H -0.217100 -5.898152 -3.584205 0
M  V30 49 H -1.895696 -5.652237 -3.102852 0
M  V30 50 H -2.149952 -4.796430 -6.773779 0
M  V30 51 H 0.979021 -2.385711 -0.945513 0
M  V30 52 H 1.222077 -5.342192 1.206046 0
M  V30 53 H 1.230755 -5.350137 1.204648 0
M  V30 END ATOM
M  V30 BEGIN BOND
M  V30 1 3 1 2
M  V30 2 1 2 3
M  V30 3 1 3 4
M  V30 4 1 4 5
M  V30 5 1 5 6
M  V30 6 1 6 7
M  V30 7 1 7 8
M  V30 8 1 8 9
M  V30 9 1 9 10
M  V30 10 2 10 11
M  V30 11 1 11 12
M  V30 12 1 12 13
M  V30 13 2 13 14
M  V30 14 1 14 15
M  V30 15 2 15 16
M  V30 16 1 16 17
M  V30 17 1 16 18
M  V30 18 2 18 19
M  V30 19 1 19 20
M  V30 20 2 12 21
M  V30 21 1 21 22
M  V30 22 1 22 23
M  V30 23 2 23 24
M  V30 24 1 24 25
M  V30 25 2 25 26
M  V30 26 1 25 27
M  V30 27 1 27 28
M  V30 28 1 28 29
M  V30 29 2 29 30
M  V30 30 1 29 31
M  V30 31 1 24 32
M  V30 32 2 32 33
M  V30 33 2 5 34
M  V30 34 1 34 35
M  V30 35 1 35 36
M  V30 36 2 35 3
M  V30 37 1 33 10
M  V30 38 1 19 13
M  V30 39 1 33 22
M  V30 40 1 6 37
M  V30 41 1 7 38
M  V30 42 1 7 39
M  V30 43 1 8 40
M  V30 44 1 8 41
M  V30 45 1 9 42
M  V30 46 1 14 43
M  V30 47 1 15 44
M  V30 48 1 18 45
M  V30 49 1 21 46
M  V30 50 1 27 47
M  V30 51 1 28 48
M  V30 52 1 28 49
M  V30 53 1 31 50
M  V30 54 1 32 51
M  V30 55 1 36 52
M  V30 56 1 36 53
M  V30 END BOND
M  V30 END CTAB
M  END
>  <Dataset>  (709) 
ChEMBL_Kinases

>  <Ligand_Instance>  (709) 
nan

>  <PDB_ID>  (709) 
nan

>  <Standardized_SMILES>  (709) 
N#Cc1sc(NCCNc2nc(-c3ccc(Cl)cc3Cl)cn3nc(C(=O)NCC(=O)O)cc23)nc1N

>  <Name>  (709) 
nan

>  <Pocket>  (709) 
nan

>  <ATP_Site>  (709) 
nan

>  <Peripheral>  (709) 
nan

>  <Num_H_Atoms_ProtBoundConf>  (709) 
nan

>  <Num_Resolved_Atoms>  (709) 
nan

>  <Num_Not_Resolved_Atoms>  (709) 
nan

$$$$
CHEMBL3647955
     RDKit          3D

  0  0  0  0  0  0  0  0  0  0999 V3000
M  V30 BEGIN CTAB
M  V30 COUNTS 53 57 0 0 0
M  V30 BEGIN ATOM
M  V30 1 N -1.164021 -6.036086 5.247627 0
M  V30 2 C -0.297764 -5.499707 4.747450 0
M  V30 3 C 0.797205 -4.795566 4.094772 0
M  V30 4 S 0.729468 -3.161554 3.309082 0
M  V30 5 C 2.567733 -3.261180 2.844510 0
M  V30 6 N 3.156153 -2.141167 2.129952 0
M  V30 7 C 2.545528 -0.941524 1.685811 0
M  V30 8 C 3.552673 0.032859 1.114306 0
M  V30 9 C 2.875964 1.251432 0.562195 0
M  V30 10 C 1.381967 1.211446 0.735171 0
M  V30 11 N 0.808106 -0.063800 0.331910 0
M  V30 12 C -0.474250 0.006302 -0.342684 0
M  V30 13 N -1.145663 1.163478 -0.288988 0
M  V30 14 C -2.344069 1.418249 -0.821729 0
M  V30 15 C -2.877652 2.743832 -0.629723 0
M  V30 16 C -2.155095 3.618570 0.150739 0
M  V30 17 C -2.544003 4.911937 0.410567 0
M  V30 18 C -3.713934 5.400995 -0.118692 0
M  V30 19 Cl -4.217101 7.044184 0.207086 0
M  V30 20 C -4.478599 4.574843 -0.906414 0
M  V30 21 C -4.027428 3.294548 -1.123237 0
M  V30 22 Cl -5.055277 2.331646 -2.141459 0
M  V30 23 C -2.845102 0.326728 -1.460014 0
M  V30 24 N -2.277896 -0.873515 -1.583164 0
M  V30 25 N -2.630994 -2.000235 -2.166645 0
M  V30 26 C -1.669462 -2.915390 -1.993918 0
M  V30 27 C -1.679149 -4.278699 -2.483509 0
M  V30 28 O -2.689757 -4.644419 -3.136334 0
M  V30 29 O -0.591324 -5.124531 -2.221398 0
M  V30 30 C -0.678118 -2.308172 -1.264224 0
M  V30 31 C -1.073719 -1.029114 -1.013486 0
M  V30 32 C 1.501233 -1.302300 0.626896 0
M  V30 33 N 2.879909 -4.281048 3.259469 0
M  V30 34 C 2.124196 -5.145445 3.896251 0
M  V30 35 N 2.655720 -6.382078 4.356523 0
M  V30 36 H 4.165964 -2.291363 1.945878 0
M  V30 37 H 2.011370 -0.440887 2.502872 0
M  V30 38 H 4.219149 0.340681 1.934938 0
M  V30 39 H 4.158071 -0.509810 0.373618 0
M  V30 40 H 3.242430 2.184677 1.019600 0
M  V30 41 H 3.095895 1.303176 -0.517707 0
M  V30 42 H 1.070981 1.366421 1.787977 0
M  V30 43 H 0.909202 2.012454 0.140626 0
M  V30 44 H -1.217129 3.357602 0.626506 0
M  V30 45 H -1.973873 5.580088 1.018066 0
M  V30 46 H -5.396547 4.958677 -1.322345 0
M  V30 47 H -3.803817 0.423424 -1.915484 0
M  V30 48 H -0.671883 -6.109799 -2.517868 0
M  V30 49 H 0.216569 -2.794932 -0.981789 0
M  V30 50 H 0.846024 -2.037030 1.086899 0
M  V30 51 H 2.092425 -1.643811 -0.248252 0
M  V30 52 H 2.046281 -7.176593 4.644669 0
M  V30 53 H 3.629477 -6.682476 4.474699 0
M  V30 END ATOM
M  V30 BEGIN BOND
M  V30 1 3 1 2
M  V30 2 1 2 3
M  V30 3 1 3 4
M  V30 4 1 4 5
M  V30 5 1 5 6
M  V30 6 1 6 7
M  V30 7 1 7 8
M  V30 8 1 8 9
M  V30 9 1 9 10
M  V30 10 1 10 11
M  V30 11 1 11 12
M  V30 12 2 12 13
M  V30 13 1 13 14
M  V30 14 1 14 15
M  V30 15 2 15 16
M  V30 16 1 16 17
M  V30 17 2 17 18
M  V30 18 1 18 19
M  V30 19 1 18 20
M  V30 20 2 20 21
M  V30 21 1 21 22
M  V30 22 2 14 23
M  V30 23 1 23 24
M  V30 24 1 24 25
M  V30 25 2 25 26
M  V30 26 1 26 27
M  V30 27 2 27 28
M  V30 28 1 27 29
M  V30 29 1 26 30
M  V30 30 2 30 31
M  V30 31 1 11 32
M  V30 32 2 5 33
M  V30 33 1 33 34
M  V30 34 1 34 35
M  V30 35 2 34 3
M  V30 36 1 32 7
M  V30 37 1 31 12
M  V30 38 1 21 15
M  V30 39 1 31 24
M  V30 40 1 6 36
M  V30 41 1 7 37
M  V30 42 1 8 38
M  V30 43 1 8 39
M  V30 44 1 9 40
M  V30 45 1 9 41
M  V30 46 1 10 42
M  V30 47 1 10 43
M  V30 48 1 16 44
M  V30 49 1 17 45
M  V30 50 1 20 46
M  V30 51 1 23 47
M  V30 52 1 29 48
M  V30 53 1 30 49
M  V30 54 1 32 50
M  V30 55 1 32 51
M  V30 56 1 35 52
M  V30 57 1 35 53
M  V30 END BOND
M  V30 END CTAB
M  END
>  <Dataset>  (710) 
ChEMBL_Kinases

>  <Ligand_Instance>  (710) 
nan

>  <PDB_ID>  (710) 
nan

>  <Standardized_SMILES>  (710) 
N#Cc1sc(NC2CCCN(c3nc(-c4ccc(Cl)cc4Cl)cn4nc(C(=O)O)cc34)C2)nc1N

>  <Name>  (710) 
nan

>  <Pocket>  (710) 
nan

>  <ATP_Site>  (710) 
nan

>  <Peripheral>  (710) 
nan

>  <Num_H_Atoms_ProtBoundConf>  (710) 
nan

>  <Num_Resolved_Atoms>  (710) 
nan

>  <Num_Not_Resolved_Atoms>  (710) 
nan

$$$$
CHEMBL3647954
     RDKit          3D

  0  0  0  0  0  0  0  0  0  0999 V3000
M  V30 BEGIN CTAB
M  V30 COUNTS 63 67 0 0 0
M  V30 BEGIN ATOM
M  V30 1 C 6.398987 -0.441408 4.824594 0
M  V30 2 C 5.912836 -1.347388 3.700552 0
M  V30 3 O 4.669497 -0.929773 3.173892 0
M  V30 4 C 4.441865 0.295694 2.591717 0
M  V30 5 O 5.365096 1.144298 2.492480 0
M  V30 6 C 3.124529 0.630116 2.080180 0
M  V30 7 C 2.004961 -0.137973 2.090955 0
M  V30 8 C 0.972048 0.535424 1.517717 0
M  V30 9 C -0.330367 0.235142 1.290075 0
M  V30 10 N -0.947044 -1.034815 1.610203 0
M  V30 11 C -2.419627 -1.001127 1.558983 0
M  V30 12 C -2.973950 -2.075458 2.420184 0
M  V30 13 C -2.556430 -3.383691 1.777580 0
M  V30 14 C -1.055786 -3.522991 1.750541 0
M  V30 15 N -0.611852 -4.399889 0.710092 0
M  V30 16 C -0.825791 -4.250919 -0.681393 0
M  V30 17 N -0.362252 -5.168493 -1.813374 0
M  V30 18 C -0.815774 -4.587163 -2.909988 0
M  V30 19 N -0.338851 -5.509442 -3.922927 0
M  V30 20 C -1.559283 -3.405841 -3.113540 0
M  V30 21 C -1.948442 -2.949228 -4.361558 0
M  V30 22 C -2.723132 -1.692328 -4.187919 0
M  V30 23 O -1.623086 -3.601378 -5.382461 0
M  V30 24 S -1.691515 -2.948236 -1.427646 0
M  V30 25 C -0.290407 -2.255086 1.928938 0
M  V30 26 N -1.068041 1.182811 0.696005 0
M  V30 27 C -0.664002 2.392101 0.301042 0
M  V30 28 C -1.662123 3.242537 -0.303475 0
M  V30 29 C -2.963264 2.820707 -0.303216 0
M  V30 30 C -4.004763 3.529311 -0.849443 0
M  V30 31 C -3.781008 4.746210 -1.447384 0
M  V30 32 Cl -5.114083 5.641593 -2.138079 0
M  V30 33 C -2.494087 5.217002 -1.476373 0
M  V30 34 C -1.497788 4.456900 -0.911097 0
M  V30 35 Cl 0.084837 5.146182 -1.033668 0
M  V30 36 C 0.652945 2.598769 0.570834 0
M  V30 37 N 1.475278 1.726630 1.156854 0
M  V30 38 N 2.755189 1.798996 1.484078 0
M  V30 39 H 6.651881 -1.015828 5.746386 0
M  V30 40 H 5.552426 0.225689 5.092670 0
M  V30 41 H 7.230575 0.221009 4.496310 0
M  V30 42 H 6.695054 -1.481934 2.938050 0
M  V30 43 H 5.746209 -2.342303 4.161667 0
M  V30 44 H 1.986787 -1.105046 2.501386 0
M  V30 45 H -2.789259 -0.025731 1.991824 0
M  V30 46 H -2.799037 -1.019267 0.548801 0
M  V30 47 H -4.089410 -2.043772 2.331352 0
M  V30 48 H -2.618621 -2.020931 3.454937 0
M  V30 49 H -2.931013 -3.442272 0.737004 0
M  V30 50 H -3.079666 -4.173472 2.341547 0
M  V30 51 H -0.853894 -4.132851 2.695476 0
M  V30 52 H -0.050347 -5.293168 0.877859 0
M  V30 53 H -0.685725 -6.284809 -4.537249 0
M  V30 54 H 0.576657 -5.675634 -4.368460 0
M  V30 55 H -2.037832 -0.944494 -3.732345 0
M  V30 56 H -3.603935 -1.883137 -3.506154 0
M  V30 57 H -3.139462 -1.335397 -5.147143 0
M  V30 58 H -0.008067 -2.172711 3.007337 0
M  V30 59 H 0.613463 -2.439999 1.263670 0
M  V30 60 H -3.275776 1.872597 0.139295 0
M  V30 61 H -5.020943 3.169758 -0.831918 0
M  V30 62 H -2.330451 6.168484 -1.945640 0
M  V30 63 H 1.069603 3.544857 0.299680 0
M  V30 END ATOM
M  V30 BEGIN BOND
M  V30 1 1 1 2
M  V30 2 1 2 3
M  V30 3 1 3 4
M  V30 4 2 4 5
M  V30 5 1 4 6
M  V30 6 1 6 7
M  V30 7 2 7 8
M  V30 8 1 8 9
M  V30 9 1 9 10
M  V30 10 1 10 11
M  V30 11 1 11 12
M  V30 12 1 12 13
M  V30 13 1 13 14
M  V30 14 1 14 15
M  V30 15 1 15 16
M  V30 16 2 16 17
M  V30 17 1 17 18
M  V30 18 1 18 19
M  V30 19 2 18 20
M  V30 20 1 20 21
M  V30 21 1 21 22
M  V30 22 2 21 23
M  V30 23 1 20 24
M  V30 24 1 14 25
M  V30 25 2 9 26
M  V30 26 1 26 27
M  V30 27 1 27 28
M  V30 28 2 28 29
M  V30 29 1 29 30
M  V30 30 2 30 31
M  V30 31 1 31 32
M  V30 32 1 31 33
M  V30 33 2 33 34
M  V30 34 1 34 35
M  V30 35 2 27 36
M  V30 36 1 36 37
M  V30 37 1 37 38
M  V30 38 2 38 6
M  V30 39 1 37 8
M  V30 40 1 25 10
M  V30 41 1 34 28
M  V30 42 1 24 16
M  V30 43 1 1 39
M  V30 44 1 1 40
M  V30 45 1 1 41
M  V30 46 1 2 42
M  V30 47 1 2 43
M  V30 48 1 7 44
M  V30 49 1 11 45
M  V30 50 1 11 46
M  V30 51 1 12 47
M  V30 52 1 12 48
M  V30 53 1 13 49
M  V30 54 1 13 50
M  V30 55 1 14 51
M  V30 56 1 15 52
M  V30 57 1 19 53
M  V30 58 1 19 54
M  V30 59 1 22 55
M  V30 60 1 22 56
M  V30 61 1 22 57
M  V30 62 1 25 58
M  V30 63 1 25 59
M  V30 64 1 29 60
M  V30 65 1 30 61
M  V30 66 1 33 62
M  V30 67 1 36 63
M  V30 END BOND
M  V30 END CTAB
M  END
>  <Dataset>  (711) 
ChEMBL_Kinases

>  <Ligand_Instance>  (711) 
nan

>  <PDB_ID>  (711) 
nan

>  <Standardized_SMILES>  (711) 
CCOC(=O)c1cc2c(N3CCCC(Nc4nc(N)c(C(C)=O)s4)C3)nc(-c3ccc(Cl)cc3Cl)cn2n1

>  <Name>  (711) 
nan

>  <Pocket>  (711) 
nan

>  <ATP_Site>  (711) 
nan

>  <Peripheral>  (711) 
nan

>  <Num_H_Atoms_ProtBoundConf>  (711) 
nan

>  <Num_Resolved_Atoms>  (711) 
nan

>  <Num_Not_Resolved_Atoms>  (711) 
nan

$$$$
CHEMBL3647953
     RDKit          3D

  0  0  0  0  0  0  0  0  0  0999 V3000
M  V30 BEGIN CTAB
M  V30 COUNTS 49 52 0 0 0
M  V30 BEGIN ATOM
M  V30 1 C 2.446900 -3.797221 3.333567 0
M  V30 2 C 2.975483 -2.740801 2.445081 0
M  V30 3 N 4.287902 -2.556955 2.117329 0
M  V30 4 C 4.439216 -1.522042 1.283671 0
M  V30 5 C 5.708839 -1.008941 0.706138 0
M  V30 6 N 3.198446 -1.053666 1.089946 0
M  V30 7 N 2.775314 -0.046035 0.356068 0
M  V30 8 C 1.523315 0.354298 0.214976 0
M  V30 9 C 1.241873 1.500064 -0.637815 0
M  V30 10 C 2.276576 2.133663 -1.294947 0
M  V30 11 C 2.114497 3.224279 -2.120058 0
M  V30 12 C 0.812536 3.669918 -2.262962 0
M  V30 13 C -0.301989 3.109354 -1.651176 0
M  V30 14 C -0.011406 2.027702 -0.853174 0
M  V30 15 N 0.614750 -0.356374 0.899402 0
M  V30 16 C 0.939931 -1.404613 1.679884 0
M  V30 17 N -0.036220 -2.119946 2.411352 0
M  V30 18 C -1.463953 -1.885838 2.411170 0
M  V30 19 C -1.814668 -0.454345 2.744463 0
M  V30 20 N -3.283690 -0.388566 2.733984 0
M  V30 21 C -3.778334 -0.897443 1.475694 0
M  V30 22 C -3.560085 -0.326856 0.257301 0
M  V30 23 C -4.081609 -0.881095 -0.885927 0
M  V30 24 C -4.845315 -2.034593 -0.841072 0
M  V30 25 C -5.389040 -2.603023 -2.069032 0
M  V30 26 N -5.797413 -3.056170 -3.033868 0
M  V30 27 C -5.057691 -2.601746 0.408088 0
M  V30 28 N -4.523291 -2.016361 1.489608 0
M  V30 29 C 2.261575 -1.768618 1.782643 0
M  V30 30 H 2.021731 -3.418572 4.266037 0
M  V30 31 H 1.802773 -4.542589 2.803419 0
M  V30 32 H 3.352393 -4.392638 3.690118 0
M  V30 33 H 6.221541 -0.427346 1.496941 0
M  V30 34 H 5.523269 -0.320610 -0.146432 0
M  V30 35 H 6.314421 -1.832256 0.306367 0
M  V30 36 H 3.320784 1.800161 -1.202663 0
M  V30 37 H 2.946221 3.697449 -2.616781 0
M  V30 38 H 0.631518 4.539060 -2.911791 0
M  V30 39 H -1.297599 3.502811 -1.799475 0
M  V30 40 H -0.839412 1.532670 -0.336622 0
M  V30 41 H 0.171809 -2.901433 3.035945 0
M  V30 42 H -2.026430 -2.529172 3.109204 0
M  V30 43 H -1.886948 -2.064699 1.377903 0
M  V30 44 H -1.514487 0.259676 1.944919 0
M  V30 45 H -1.399057 -0.088410 3.684829 0
M  V30 46 H -3.866980 -0.019905 3.522906 0
M  V30 47 H -2.965979 0.568701 0.218744 0
M  V30 48 H -3.938613 -0.466920 -1.869822 0
M  V30 49 H -5.650502 -3.501463 0.481517 0
M  V30 END ATOM
M  V30 BEGIN BOND
M  V30 1 1 1 2
M  V30 2 1 2 3
M  V30 3 2 3 4
M  V30 4 1 4 5
M  V30 5 1 4 6
M  V30 6 1 6 7
M  V30 7 2 7 8
M  V30 8 1 8 9
M  V30 9 2 9 10
M  V30 10 1 10 11
M  V30 11 2 11 12
M  V30 12 1 12 13
M  V30 13 2 13 14
M  V30 14 1 8 15
M  V30 15 2 15 16
M  V30 16 1 16 17
M  V30 17 1 17 18
M  V30 18 1 18 19
M  V30 19 1 19 20
M  V30 20 1 20 21
M  V30 21 2 21 22
M  V30 22 1 22 23
M  V30 23 2 23 24
M  V30 24 1 24 25
M  V30 25 3 25 26
M  V30 26 1 24 27
M  V30 27 2 27 28
M  V30 28 1 16 29
M  V30 29 2 29 2
M  V30 30 1 29 6
M  V30 31 1 14 9
M  V30 32 1 28 21
M  V30 33 1 1 30
M  V30 34 1 1 31
M  V30 35 1 1 32
M  V30 36 1 5 33
M  V30 37 1 5 34
M  V30 38 1 5 35
M  V30 39 1 10 36
M  V30 40 1 11 37
M  V30 41 1 12 38
M  V30 42 1 13 39
M  V30 43 1 14 40
M  V30 44 1 17 41
M  V30 45 1 18 42
M  V30 46 1 18 43
M  V30 47 1 19 44
M  V30 48 1 19 45
M  V30 49 1 20 46
M  V30 50 1 22 47
M  V30 51 1 23 48
M  V30 52 1 27 49
M  V30 END BOND
M  V30 END CTAB
M  END
>  <Dataset>  (712) 
ChEMBL_Kinases

>  <Ligand_Instance>  (712) 
nan

>  <PDB_ID>  (712) 
nan

>  <Standardized_SMILES>  (712) 
Cc1nc(C)n2nc(-c3ccccc3)nc(NCCNc3ccc(C#N)cn3)c12

>  <Name>  (712) 
nan

>  <Pocket>  (712) 
nan

>  <ATP_Site>  (712) 
nan

>  <Peripheral>  (712) 
nan

>  <Num_H_Atoms_ProtBoundConf>  (712) 
nan

>  <Num_Resolved_Atoms>  (712) 
nan

>  <Num_Not_Resolved_Atoms>  (712) 
nan

$$$$
CHEMBL3647952
     RDKit          3D

  0  0  0  0  0  0  0  0  0  0999 V3000
M  V30 BEGIN CTAB
M  V30 COUNTS 71 75 0 0 0
M  V30 BEGIN ATOM
M  V30 1 C -6.969141 -2.960251 -1.205899 0
M  V30 2 N -5.871118 -2.580168 -2.029555 0
M  V30 3 C -5.013987 -3.661103 -2.399155 0
M  V30 4 C -4.236936 -3.402245 -3.636285 0
M  V30 5 N -3.887380 -2.029213 -3.875325 0
M  V30 6 C -2.698412 -1.612334 -3.180950 0
M  V30 7 C -2.367873 -0.180934 -3.544839 0
M  V30 8 N -1.152313 0.194821 -2.805266 0
M  V30 9 C -0.461067 1.419228 -2.812568 0
M  V30 10 O -0.968023 2.255652 -3.586926 0
M  V30 11 C 0.714547 1.591671 -1.967086 0
M  V30 12 C 0.833190 0.866213 -0.773591 0
M  V30 13 C 2.023139 1.166271 -0.165512 0
M  V30 14 C 2.663923 0.769987 1.019270 0
M  V30 15 N 1.888632 -0.131236 1.820158 0
M  V30 16 C 2.406950 -0.635012 3.093789 0
M  V30 17 C 1.302671 -1.325719 3.876243 0
M  V30 18 N 0.772413 -2.453512 3.159434 0
M  V30 19 C -0.261656 -2.931247 4.048048 0
M  V30 20 C -0.267814 -3.786862 5.122089 0
M  V30 21 C -1.419661 -4.054699 5.805341 0
M  V30 22 C -2.613915 -3.454996 5.417084 0
M  V30 23 C -3.806865 -3.734882 6.140101 0
M  V30 24 N -4.780543 -3.958854 6.753745 0
M  V30 25 C -2.571327 -2.592449 4.324942 0
M  V30 26 N -1.410097 -2.348973 3.667046 0
M  V30 27 N 3.862757 1.288835 1.299984 0
M  V30 28 C 4.477787 2.180787 0.496702 0
M  V30 29 C 5.783020 2.685570 0.893007 0
M  V30 30 C 6.483293 3.555438 0.082976 0
M  V30 31 C 7.741262 4.074190 0.403125 0
M  V30 32 C 8.298203 3.669293 1.621521 0
M  V30 33 Cl 9.891903 4.254284 2.136982 0
M  V30 34 C 7.638575 2.805160 2.458404 0
M  V30 35 C 6.383847 2.325591 2.076319 0
M  V30 36 Cl 5.600720 1.234869 3.184237 0
M  V30 37 C 3.856977 2.588234 -0.673286 0
M  V30 38 N 2.627421 2.071756 -0.993177 0
M  V30 39 N 1.841910 2.308214 -2.045622 0
M  V30 40 C -4.999938 -1.124221 -3.656396 0
M  V30 41 C -6.257316 -1.887551 -3.256206 0
M  V30 42 H -7.915940 -2.973053 -1.795570 0
M  V30 43 H -7.113299 -2.168729 -0.435366 0
M  V30 44 H -6.820580 -3.911010 -0.653692 0
M  V30 45 H -5.663719 -4.550235 -2.574724 0
M  V30 46 H -4.360956 -3.955887 -1.524163 0
M  V30 47 H -3.304762 -3.993189 -3.603110 0
M  V30 48 H -4.766363 -3.746366 -4.571192 0
M  V30 49 H -1.873721 -2.301824 -3.375373 0
M  V30 50 H -2.920455 -1.686403 -2.073117 0
M  V30 51 H -2.210117 -0.136874 -4.633641 0
M  V30 52 H -3.146894 0.529569 -3.287981 0
M  V30 53 H -0.730170 -0.551007 -2.174169 0
M  V30 54 H 0.108505 0.160728 -0.356595 0
M  V30 55 H 0.949507 -0.466639 1.544487 0
M  V30 56 H 3.183460 -1.428000 2.944076 0
M  V30 57 H 2.884021 0.160494 3.700115 0
M  V30 58 H 1.771606 -1.708715 4.813831 0
M  V30 59 H 0.515528 -0.586060 4.153764 0
M  V30 60 H 0.807098 -3.051642 2.312142 0
M  V30 61 H 0.744901 -4.171720 5.293733 0
M  V30 62 H -1.314680 -4.728791 6.618416 0
M  V30 63 H -3.548249 -2.165013 4.086946 0
M  V30 64 H 6.133235 3.914208 -0.870433 0
M  V30 65 H 8.275581 4.755279 -0.236593 0
M  V30 66 H 8.085373 2.510373 3.391770 0
M  V30 67 H 4.290940 3.291960 -1.355126 0
M  V30 68 H -5.181411 -0.425779 -4.491816 0
M  V30 69 H -4.755275 -0.518463 -2.760105 0
M  V30 70 H -6.523874 -2.570526 -4.062097 0
M  V30 71 H -7.039774 -1.115719 -3.047723 0
M  V30 END ATOM
M  V30 BEGIN BOND
M  V30 1 1 1 2
M  V30 2 1 2 3
M  V30 3 1 3 4
M  V30 4 1 4 5
M  V30 5 1 5 6
M  V30 6 1 6 7
M  V30 7 1 7 8
M  V30 8 1 8 9
M  V30 9 2 9 10
M  V30 10 1 9 11
M  V30 11 1 11 12
M  V30 12 2 12 13
M  V30 13 1 13 14
M  V30 14 1 14 15
M  V30 15 1 15 16
M  V30 16 1 16 17
M  V30 17 1 17 18
M  V30 18 1 18 19
M  V30 19 2 19 20
M  V30 20 1 20 21
M  V30 21 2 21 22
M  V30 22 1 22 23
M  V30 23 3 23 24
M  V30 24 1 22 25
M  V30 25 2 25 26
M  V30 26 2 14 27
M  V30 27 1 27 28
M  V30 28 1 28 29
M  V30 29 2 29 30
M  V30 30 1 30 31
M  V30 31 2 31 32
M  V30 32 1 32 33
M  V30 33 1 32 34
M  V30 34 2 34 35
M  V30 35 1 35 36
M  V30 36 2 28 37
M  V30 37 1 37 38
M  V30 38 1 38 39
M  V30 39 1 5 40
M  V30 40 1 40 41
M  V30 41 1 41 2
M  V30 42 2 39 11
M  V30 43 1 38 13
M  V30 44 1 26 19
M  V30 45 1 35 29
M  V30 46 1 1 42
M  V30 47 1 1 43
M  V30 48 1 1 44
M  V30 49 1 3 45
M  V30 50 1 3 46
M  V30 51 1 4 47
M  V30 52 1 4 48
M  V30 53 1 6 49
M  V30 54 1 6 50
M  V30 55 1 7 51
M  V30 56 1 7 52
M  V30 57 1 8 53
M  V30 58 1 12 54
M  V30 59 1 15 55
M  V30 60 1 16 56
M  V30 61 1 16 57
M  V30 62 1 17 58
M  V30 63 1 17 59
M  V30 64 1 18 60
M  V30 65 1 20 61
M  V30 66 1 21 62
M  V30 67 1 25 63
M  V30 68 1 30 64
M  V30 69 1 31 65
M  V30 70 1 34 66
M  V30 71 1 37 67
M  V30 72 1 40 68
M  V30 73 1 40 69
M  V30 74 1 41 70
M  V30 75 1 41 71
M  V30 END BOND
M  V30 END CTAB
M  END
>  <Dataset>  (713) 
ChEMBL_Kinases

>  <Ligand_Instance>  (713) 
nan

>  <PDB_ID>  (713) 
nan

>  <Standardized_SMILES>  (713) 
CN1CCN(CCNC(=O)c2cc3c(NCCNc4ccc(C#N)cn4)nc(-c4ccc(Cl)cc4Cl)cn3n2)CC1

>  <Name>  (713) 
nan

>  <Pocket>  (713) 
nan

>  <ATP_Site>  (713) 
nan

>  <Peripheral>  (713) 
nan

>  <Num_H_Atoms_ProtBoundConf>  (713) 
nan

>  <Num_Resolved_Atoms>  (713) 
nan

>  <Num_Not_Resolved_Atoms>  (713) 
nan

$$$$
CHEMBL3647951
     RDKit          3D

  0  0  0  0  0  0  0  0  0  0999 V3000
M  V30 BEGIN CTAB
M  V30 COUNTS 47 50 0 0 0
M  V30 BEGIN ATOM
M  V30 1 N 1.439831 -2.047486 8.496758 0
M  V30 2 C 1.696853 -1.639970 7.443972 0
M  V30 3 C 2.019443 -1.117222 6.148292 0
M  V30 4 C 1.436781 -1.734635 5.068218 0
M  V30 5 C 1.766225 -1.207425 3.814753 0
M  V30 6 C 2.632598 -0.120321 3.651415 0
M  V30 7 N 2.907627 0.347258 2.318103 0
M  V30 8 C 2.234158 -0.382590 1.241096 0
M  V30 9 C 2.627914 0.229190 -0.064296 0
M  V30 10 N 1.954645 -0.502941 -1.131077 0
M  V30 11 C 0.559709 -0.586169 -1.288583 0
M  V30 12 N -0.235695 0.048385 -0.415261 0
M  V30 13 C -1.575197 0.049226 -0.459373 0
M  V30 14 C -2.264000 0.794583 0.565971 0
M  V30 15 C -1.495967 1.478834 1.482673 0
M  V30 16 C -2.026529 2.223955 2.509938 0
M  V30 17 C -3.386832 2.327129 2.679515 0
M  V30 18 Cl -4.037095 3.280208 3.992661 0
M  V30 19 C -4.194753 1.660260 1.787518 0
M  V30 20 C -3.606063 0.934056 0.784922 0
M  V30 21 Cl -4.740347 0.137151 -0.266825 0
M  V30 22 C -2.062489 -0.676703 -1.505880 0
M  V30 23 N -1.334336 -1.332773 -2.411943 0
M  V30 24 N -1.629740 -2.070038 -3.467908 0
M  V30 25 C -0.496908 -2.510645 -4.054620 0
M  V30 26 C -0.400711 -3.353173 -5.246666 0
M  V30 27 O 0.696180 -3.725656 -5.737949 0
M  V30 28 O -1.558313 -3.780525 -5.892176 0
M  V30 29 C 0.580974 -2.032754 -3.340115 0
M  V30 30 C 0.001913 -1.302992 -2.324424 0
M  V30 31 N 3.177227 0.449854 4.733534 0
M  V30 32 C 2.872204 -0.042540 5.938701 0
M  V30 33 H 0.764999 -2.573282 5.149959 0
M  V30 34 H 1.289293 -1.716368 2.967933 0
M  V30 35 H 3.556913 1.158640 2.229550 0
M  V30 36 H 1.153305 -0.339959 1.456864 0
M  V30 37 H 2.549043 -1.464360 1.267702 0
M  V30 38 H 3.726930 0.176917 -0.190172 0
M  V30 39 H 2.313175 1.296831 -0.064479 0
M  V30 40 H 2.562268 -0.997394 -1.822203 0
M  V30 41 H -0.395967 1.487228 1.469654 0
M  V30 42 H -1.402028 2.750544 3.214480 0
M  V30 43 H -5.250662 1.750478 1.932970 0
M  V30 44 H -3.102374 -0.739184 -1.634623 0
M  V30 45 H -1.628607 -4.726512 -6.296322 0
M  V30 46 H 1.628811 -2.156531 -3.480218 0
M  V30 47 H 3.265679 0.355151 6.869556 0
M  V30 END ATOM
M  V30 BEGIN BOND
M  V30 1 3 1 2
M  V30 2 1 2 3
M  V30 3 2 3 4
M  V30 4 1 4 5
M  V30 5 2 5 6
M  V30 6 1 6 7
M  V30 7 1 7 8
M  V30 8 1 8 9
M  V30 9 1 9 10
M  V30 10 1 10 11
M  V30 11 2 11 12
M  V30 12 1 12 13
M  V30 13 1 13 14
M  V30 14 2 14 15
M  V30 15 1 15 16
M  V30 16 2 16 17
M  V30 17 1 17 18
M  V30 18 1 17 19
M  V30 19 2 19 20
M  V30 20 1 20 21
M  V30 21 2 13 22
M  V30 22 1 22 23
M  V30 23 1 23 24
M  V30 24 2 24 25
M  V30 25 1 25 26
M  V30 26 2 26 27
M  V30 27 1 26 28
M  V30 28 1 25 29
M  V30 29 2 29 30
M  V30 30 1 6 31
M  V30 31 2 31 32
M  V30 32 1 32 3
M  V30 33 1 30 11
M  V30 34 1 20 14
M  V30 35 1 30 23
M  V30 36 1 4 33
M  V30 37 1 5 34
M  V30 38 1 7 35
M  V30 39 1 8 36
M  V30 40 1 8 37
M  V30 41 1 9 38
M  V30 42 1 9 39
M  V30 43 1 10 40
M  V30 44 1 15 41
M  V30 45 1 16 42
M  V30 46 1 19 43
M  V30 47 1 22 44
M  V30 48 1 28 45
M  V30 49 1 29 46
M  V30 50 1 32 47
M  V30 END BOND
M  V30 END CTAB
M  END
>  <Dataset>  (714) 
ChEMBL_Kinases

>  <Ligand_Instance>  (714) 
nan

>  <PDB_ID>  (714) 
nan

>  <Standardized_SMILES>  (714) 
N#Cc1ccc(NCCNc2nc(-c3ccc(Cl)cc3Cl)cn3nc(C(=O)O)cc23)nc1

>  <Name>  (714) 
nan

>  <Pocket>  (714) 
nan

>  <ATP_Site>  (714) 
nan

>  <Peripheral>  (714) 
nan

>  <Num_H_Atoms_ProtBoundConf>  (714) 
nan

>  <Num_Resolved_Atoms>  (714) 
nan

>  <Num_Not_Resolved_Atoms>  (714) 
nan

$$$$
CHEMBL3647950
     RDKit          3D

  0  0  0  0  0  0  0  0  0  0999 V3000
M  V30 BEGIN CTAB
M  V30 COUNTS 43 46 0 0 0
M  V30 BEGIN ATOM
M  V30 1 N 3.410285 -4.193891 5.529657 0
M  V30 2 C 3.614648 -3.434582 4.716428 0
M  V30 3 C 3.860067 -2.455312 3.645461 0
M  V30 4 S 2.698675 -2.308295 2.148758 0
M  V30 5 C 3.808787 -0.917915 1.477362 0
M  V30 6 N 3.400657 -0.343430 0.233540 0
M  V30 7 C 2.192785 -0.840537 -0.430576 0
M  V30 8 C 1.921176 -0.130703 -1.707991 0
M  V30 9 N 0.713810 -0.683775 -2.294927 0
M  V30 10 C -0.574284 -0.656428 -1.703401 0
M  V30 11 N -0.738899 -0.080752 -0.512602 0
M  V30 12 C -1.889296 0.023685 0.165082 0
M  V30 13 C -1.851961 0.691364 1.441384 0
M  V30 14 C -0.644549 1.209730 1.855232 0
M  V30 15 C -0.477074 1.865982 3.052322 0
M  V30 16 C -1.530474 2.042846 3.918260 0
M  V30 17 Cl -1.285789 2.880423 5.430530 0
M  V30 18 C -2.755476 1.540430 3.544410 0
M  V30 19 C -2.864444 0.894267 2.338207 0
M  V30 20 Cl -4.457814 0.305943 1.992354 0
M  V30 21 C -2.914070 -0.544781 -0.521853 0
M  V30 22 N -2.844372 -1.140980 -1.713513 0
M  V30 23 C -3.748568 -1.739249 -2.508069 0
M  V30 24 C -3.119755 -2.191331 -3.648941 0
M  V30 25 N -1.829165 -1.846678 -3.508263 0
M  V30 26 C -1.661343 -1.211069 -2.337545 0
M  V30 27 N 4.599461 -0.858641 2.277502 0
M  V30 28 C 4.778616 -1.525887 3.393407 0
M  V30 29 N 5.808952 -1.414417 4.389075 0
M  V30 30 H 4.029036 0.395116 -0.079939 0
M  V30 31 H 1.384721 -0.745146 0.300879 0
M  V30 32 H 2.404904 -1.928449 -0.584067 0
M  V30 33 H 1.663756 0.927752 -1.461912 0
M  V30 34 H 2.777854 -0.215725 -2.378686 0
M  V30 35 H 0.816941 -1.145382 -3.248297 0
M  V30 36 H 0.261764 1.137922 1.265440 0
M  V30 37 H 0.481968 2.261443 3.349017 0
M  V30 38 H -3.560712 1.686750 4.228046 0
M  V30 39 H -3.879026 -0.521623 -0.085406 0
M  V30 40 H -4.797399 -1.843174 -2.278759 0
M  V30 41 H -3.612575 -2.718939 -4.475117 0
M  V30 42 H 6.694865 -1.922312 4.561472 0
M  V30 43 H 5.688284 -0.683632 5.114831 0
M  V30 END ATOM
M  V30 BEGIN BOND
M  V30 1 3 1 2
M  V30 2 1 2 3
M  V30 3 1 3 4
M  V30 4 1 4 5
M  V30 5 1 5 6
M  V30 6 1 6 7
M  V30 7 1 7 8
M  V30 8 1 8 9
M  V30 9 1 9 10
M  V30 10 2 10 11
M  V30 11 1 11 12
M  V30 12 1 12 13
M  V30 13 2 13 14
M  V30 14 1 14 15
M  V30 15 2 15 16
M  V30 16 1 16 17
M  V30 17 1 16 18
M  V30 18 2 18 19
M  V30 19 1 19 20
M  V30 20 2 12 21
M  V30 21 1 21 22
M  V30 22 1 22 23
M  V30 23 2 23 24
M  V30 24 1 24 25
M  V30 25 2 25 26
M  V30 26 2 5 27
M  V30 27 1 27 28
M  V30 28 1 28 29
M  V30 29 2 28 3
M  V30 30 1 26 10
M  V30 31 1 19 13
M  V30 32 1 26 22
M  V30 33 1 6 30
M  V30 34 1 7 31
M  V30 35 1 7 32
M  V30 36 1 8 33
M  V30 37 1 8 34
M  V30 38 1 9 35
M  V30 39 1 14 36
M  V30 40 1 15 37
M  V30 41 1 18 38
M  V30 42 1 21 39
M  V30 43 1 23 40
M  V30 44 1 24 41
M  V30 45 1 29 42
M  V30 46 1 29 43
M  V30 END BOND
M  V30 END CTAB
M  END
>  <Dataset>  (715) 
ChEMBL_Kinases

>  <Ligand_Instance>  (715) 
nan

>  <PDB_ID>  (715) 
nan

>  <Standardized_SMILES>  (715) 
N#Cc1sc(NCCNc2nc(-c3ccc(Cl)cc3Cl)cn3ccnc23)nc1N

>  <Name>  (715) 
nan

>  <Pocket>  (715) 
nan

>  <ATP_Site>  (715) 
nan

>  <Peripheral>  (715) 
nan

>  <Num_H_Atoms_ProtBoundConf>  (715) 
nan

>  <Num_Resolved_Atoms>  (715) 
nan

>  <Num_Not_Resolved_Atoms>  (715) 
nan

$$$$
CHEMBL364757
     RDKit          3D

  0  0  0  0  0  0  0  0  0  0999 V3000
M  V30 BEGIN CTAB
M  V30 COUNTS 26 28 0 0 0
M  V30 BEGIN ATOM
M  V30 1 N -0.118881 -3.736801 3.452217 0
M  V30 2 C -0.248837 -2.771588 2.817846 0
M  V30 3 C -0.426575 -1.580950 2.043613 0
M  V30 4 C 0.434422 -1.180477 1.153971 0
M  V30 5 N 0.465083 -0.062292 0.292130 0
M  V30 6 C 1.571936 0.045421 -0.544727 0
M  V30 7 C 1.804318 1.070084 -1.476837 0
M  V30 8 C 2.977136 0.978923 -2.212394 0
M  V30 9 C 3.886875 -0.036311 -2.070347 0
M  V30 10 C 3.668527 -1.038809 -1.164456 0
M  V30 11 C 2.498335 -0.938554 -0.437774 0
M  V30 12 S 1.939621 -2.110034 0.826262 0
M  V30 13 C -1.626314 -0.786638 2.269986 0
M  V30 14 C -2.798706 -1.480992 2.514672 0
M  V30 15 C -3.985256 -0.801988 2.744264 0
M  V30 16 N -4.051359 0.541990 2.739722 0
M  V30 17 C -2.897990 1.191895 2.499772 0
M  V30 18 Cl -2.906835 2.944212 2.478720 0
M  V30 19 N -1.747903 0.547448 2.277083 0
M  V30 20 H -0.362584 0.597052 0.360193 0
M  V30 21 H 1.134348 1.901027 -1.643383 0
M  V30 22 H 3.158406 1.782837 -2.942593 0
M  V30 23 H 4.767680 -0.016438 -2.689037 0
M  V30 24 H 4.367981 -1.839009 -1.039724 0
M  V30 25 H -2.840311 -2.577471 2.537045 0
M  V30 26 H -4.887158 -1.379465 2.931922 0
M  V30 END ATOM
M  V30 BEGIN BOND
M  V30 1 3 1 2
M  V30 2 1 2 3
M  V30 3 2 3 4
M  V30 4 1 4 5
M  V30 5 1 5 6
M  V30 6 2 6 7
M  V30 7 1 7 8
M  V30 8 2 8 9
M  V30 9 1 9 10
M  V30 10 2 10 11
M  V30 11 1 11 12
M  V30 12 1 3 13
M  V30 13 2 13 14
M  V30 14 1 14 15
M  V30 15 2 15 16
M  V30 16 1 16 17
M  V30 17 1 17 18
M  V30 18 2 17 19
M  V30 19 1 12 4
M  V30 20 1 19 13
M  V30 21 1 11 6
M  V30 22 1 5 20
M  V30 23 1 7 21
M  V30 24 1 8 22
M  V30 25 1 9 23
M  V30 26 1 10 24
M  V30 27 1 14 25
M  V30 28 1 15 26
M  V30 END BOND
M  V30 END CTAB
M  END
>  <Dataset>  (716) 
ChEMBL_Kinases

>  <Ligand_Instance>  (716) 
nan

>  <PDB_ID>  (716) 
nan

>  <Standardized_SMILES>  (716) 
N#C/C(=C1/Nc2ccccc2S1)c1ccnc(Cl)n1

>  <Name>  (716) 
nan

>  <Pocket>  (716) 
nan

>  <ATP_Site>  (716) 
nan

>  <Peripheral>  (716) 
nan

>  <Num_H_Atoms_ProtBoundConf>  (716) 
nan

>  <Num_Resolved_Atoms>  (716) 
nan

>  <Num_Not_Resolved_Atoms>  (716) 
nan

$$$$
CHEMBL3647299
     RDKit          3D

  0  0  0  0  0  0  0  0  0  0999 V3000
M  V30 BEGIN CTAB
M  V30 COUNTS 68 72 0 0 0
M  V30 BEGIN ATOM
M  V30 1 C 2.837428 -4.934345 2.750571 0
M  V30 2 N 4.112096 -5.164873 2.065605 0
M  V30 3 C 3.942803 -6.340021 1.217657 0
M  V30 4 C 4.296273 -4.040865 1.135500 0
M  V30 5 C 4.518573 -2.827338 2.001759 0
M  V30 6 C 4.721686 -1.594854 1.195180 0
M  V30 7 N 5.955731 -1.177352 0.783016 0
M  V30 8 C 5.764858 -0.045516 0.086340 0
M  V30 9 C 6.700250 0.749282 -0.530148 0
M  V30 10 N 6.272640 1.852380 -1.180259 0
M  V30 11 C 4.937972 2.141550 -1.204965 0
M  V30 12 C 4.602316 3.288031 -1.891923 0
M  V30 13 C 3.256916 3.584735 -1.918362 0
M  V30 14 C 2.273132 2.801535 -1.303095 0
M  V30 15 C 0.888729 3.196243 -1.384424 0
M  V30 16 C -0.276777 3.507580 -1.459018 0
M  V30 17 C -1.712938 3.872131 -1.557506 0
M  V30 18 N -2.538938 2.659758 -1.436006 0
M  V30 19 C -2.286935 2.053454 -0.185423 0
M  V30 20 O -1.417771 2.769717 0.424075 0
M  V30 21 C -2.854250 0.860540 0.373553 0
M  V30 22 C -2.385411 0.523300 1.651349 0
M  V30 23 N -2.830718 -0.568459 2.291456 0
M  V30 24 C -3.738236 -1.395263 1.760616 0
M  V30 25 N -4.204301 -1.094697 0.536069 0
M  V30 26 C -5.189256 -1.966043 -0.071431 0
M  V30 27 C -6.569731 -1.533460 0.283290 0
M  V30 28 C -7.098601 -2.081330 1.451940 0
M  V30 29 C -8.378856 -1.688368 1.789758 0
M  V30 30 C -9.181015 -0.808717 1.083612 0
M  V30 31 F -10.413218 -0.479082 1.479727 0
M  V30 32 C -8.611337 -0.286077 -0.077228 0
M  V30 33 F -9.341250 0.582823 -0.818330 0
M  V30 34 C -7.335549 -0.652505 -0.450394 0
M  V30 35 C -3.786972 -0.017444 -0.134803 0
M  V30 36 O -4.206185 0.271820 -1.260724 0
M  V30 37 C 2.699883 1.651316 -0.624819 0
M  V30 38 C 4.033164 1.316106 -0.572664 0
M  V30 39 C 4.399969 0.178957 0.106026 0
M  V30 40 N 3.720103 -0.757282 0.781631 0
M  V30 41 C 2.317240 -0.898884 1.030919 0
M  V30 42 H 2.178689 -4.279585 2.115075 0
M  V30 43 H 3.016741 -4.440107 3.726723 0
M  V30 44 H 2.309282 -5.895475 2.823002 0
M  V30 45 H 4.484629 -6.233765 0.262724 0
M  V30 46 H 4.279147 -7.260810 1.717752 0
M  V30 47 H 2.864838 -6.435224 0.967407 0
M  V30 48 H 3.339452 -3.885486 0.568882 0
M  V30 49 H 5.160984 -4.208580 0.490598 0
M  V30 50 H 5.480192 -3.024530 2.543207 0
M  V30 51 H 3.671494 -2.731760 2.684514 0
M  V30 52 H 7.748997 0.508188 -0.502461 0
M  V30 53 H 5.322509 3.909552 -2.373636 0
M  V30 54 H 2.962202 4.479818 -2.450271 0
M  V30 55 H -1.996989 4.650673 -0.844825 0
M  V30 56 H -1.857343 4.259851 -2.586658 0
M  V30 57 H -3.242078 2.183122 -2.064737 0
M  V30 58 H -1.658234 1.110040 2.177304 0
M  V30 59 H -4.041509 -2.251490 2.345614 0
M  V30 60 H -5.019211 -3.041688 0.205425 0
M  V30 61 H -5.039119 -1.944376 -1.179597 0
M  V30 62 H -6.594626 -2.786366 2.117121 0
M  V30 63 H -8.848408 -2.087799 2.699304 0
M  V30 64 H -6.903179 -0.241885 -1.352072 0
M  V30 65 H 1.886280 1.136604 -0.198955 0
M  V30 66 H 2.212014 -1.875845 1.603994 0
M  V30 67 H 1.865574 -0.169161 1.708286 0
M  V30 68 H 1.706932 -1.133264 0.112921 0
M  V30 END ATOM
M  V30 BEGIN BOND
M  V30 1 1 1 2
M  V30 2 1 2 3
M  V30 3 1 2 4
M  V30 4 1 4 5
M  V30 5 1 5 6
M  V30 6 2 6 7
M  V30 7 1 7 8
M  V30 8 2 8 9
M  V30 9 1 9 10
M  V30 10 2 10 11
M  V30 11 1 11 12
M  V30 12 2 12 13
M  V30 13 1 13 14
M  V30 14 1 14 15
M  V30 15 3 15 16
M  V30 16 1 16 17
M  V30 17 1 17 18
M  V30 18 1 18 19
M  V30 19 2 19 20
M  V30 20 1 19 21
M  V30 21 2 21 22
M  V30 22 1 22 23
M  V30 23 2 23 24
M  V30 24 1 24 25
M  V30 25 1 25 26
M  V30 26 1 26 27
M  V30 27 2 27 28
M  V30 28 1 28 29
M  V30 29 2 29 30
M  V30 30 1 30 31
M  V30 31 1 30 32
M  V30 32 1 32 33
M  V30 33 2 32 34
M  V30 34 1 25 35
M  V30 35 2 35 36
M  V30 36 2 14 37
M  V30 37 1 37 38
M  V30 38 2 38 39
M  V30 39 1 39 40
M  V30 40 1 40 41
M  V30 41 1 40 6
M  V30 42 1 39 8
M  V30 43 1 38 11
M  V30 44 1 35 21
M  V30 45 1 34 27
M  V30 46 1 1 42
M  V30 47 1 1 43
M  V30 48 1 1 44
M  V30 49 1 3 45
M  V30 50 1 3 46
M  V30 51 1 3 47
M  V30 52 1 4 48
M  V30 53 1 4 49
M  V30 54 1 5 50
M  V30 55 1 5 51
M  V30 56 1 9 52
M  V30 57 1 12 53
M  V30 58 1 13 54
M  V30 59 1 17 55
M  V30 60 1 17 56
M  V30 61 1 18 57
M  V30 62 1 22 58
M  V30 63 1 24 59
M  V30 64 1 26 60
M  V30 65 1 26 61
M  V30 66 1 28 62
M  V30 67 1 29 63
M  V30 68 1 34 64
M  V30 69 1 37 65
M  V30 70 1 41 66
M  V30 71 1 41 67
M  V30 72 1 41 68
M  V30 END BOND
M  V30 END CTAB
M  END
>  <Dataset>  (717) 
ChEMBL_Kinases

>  <Ligand_Instance>  (717) 
nan

>  <PDB_ID>  (717) 
nan

>  <Standardized_SMILES>  (717) 
CN(C)CCc1nc2cnc3ccc(C#CCNC(=O)c4cncn(Cc5ccc(F)c(F)c5)c4=O)cc3c2n1C

>  <Name>  (717) 
nan

>  <Pocket>  (717) 
nan

>  <ATP_Site>  (717) 
nan

>  <Peripheral>  (717) 
nan

>  <Num_H_Atoms_ProtBoundConf>  (717) 
nan

>  <Num_Resolved_Atoms>  (717) 
nan

>  <Num_Not_Resolved_Atoms>  (717) 
nan

$$$$
CHEMBL3647298
     RDKit          3D

  0  0  0  0  0  0  0  0  0  0999 V3000
M  V30 BEGIN CTAB
M  V30 COUNTS 71 75 0 0 0
M  V30 BEGIN ATOM
M  V30 1 C 2.879073 -7.881661 -0.734531 0
M  V30 2 N 2.248749 -6.569196 -0.763546 0
M  V30 3 C 0.812076 -6.823805 -0.771127 0
M  V30 4 C 2.656998 -5.865546 -1.953573 0
M  V30 5 C 1.975718 -4.459229 -1.977133 0
M  V30 6 C 2.457657 -3.823663 -3.231998 0
M  V30 7 C 2.000866 -2.487839 -3.564344 0
M  V30 8 N 2.553432 -2.073092 -4.750533 0
M  V30 9 C 2.114385 -0.840569 -5.031638 0
M  V30 10 C 2.397367 -0.014183 -6.120150 0
M  V30 11 N 1.818072 1.198282 -6.167308 0
M  V30 12 C 0.980231 1.604537 -5.179595 0
M  V30 13 C 0.432625 2.860145 -5.309630 0
M  V30 14 C -0.417385 3.265686 -4.302054 0
M  V30 15 C -0.701087 2.437939 -3.211093 0
M  V30 16 C -1.599653 2.960116 -2.220096 0
M  V30 17 C -2.342205 3.396282 -1.372485 0
M  V30 18 C -3.237466 3.935364 -0.319778 0
M  V30 19 N -3.169320 3.127901 0.877634 0
M  V30 20 C -3.926514 3.419069 2.040872 0
M  V30 21 O -4.621738 4.463157 1.815086 0
M  V30 22 C -3.919799 2.664520 3.282810 0
M  V30 23 C -4.780631 3.209552 4.244568 0
M  V30 24 N -4.909220 2.649345 5.454220 0
M  V30 25 C -4.239892 1.554590 5.821059 0
M  V30 26 N -3.415167 1.030397 4.903193 0
M  V30 27 C -2.655665 -0.157284 5.231294 0
M  V30 28 C -1.358046 0.246722 5.829404 0
M  V30 29 C -1.307467 0.419150 7.216820 0
M  V30 30 C -0.179374 0.787705 7.892218 0
M  V30 31 C 0.981851 1.008166 7.204806 0
M  V30 32 F 2.139212 1.378169 7.828000 0
M  V30 33 C 0.977101 0.848493 5.826316 0
M  V30 34 F 2.117914 1.061522 5.118978 0
M  V30 35 C -0.175013 0.476228 5.172031 0
M  V30 36 C -3.235217 1.535589 3.673416 0
M  V30 37 O -2.487162 1.090106 2.790676 0
M  V30 38 C -0.107985 1.193466 -3.160837 0
M  V30 39 C 0.745429 0.740328 -4.136449 0
M  V30 40 C 1.285788 -0.515447 -3.994935 0
M  V30 41 N 1.206641 -1.506969 -3.095010 0
M  V30 42 C 0.448551 -1.549999 -1.882868 0
M  V30 43 H 3.981739 -7.812810 -0.762366 0
M  V30 44 H 2.533922 -8.496730 -1.597047 0
M  V30 45 H 2.576358 -8.425213 0.186366 0
M  V30 46 H 0.340072 -6.001455 -0.208481 0
M  V30 47 H 0.445405 -6.858977 -1.830235 0
M  V30 48 H 0.543867 -7.780346 -0.274316 0
M  V30 49 H 3.744872 -5.729805 -1.946734 0
M  V30 50 H 2.363354 -6.417486 -2.854926 0
M  V30 51 H 0.903653 -4.720099 -2.012801 0
M  V30 52 H 2.326181 -4.006672 -1.038048 0
M  V30 53 H 2.173963 -4.534022 -4.083567 0
M  V30 54 H 3.592740 -3.879018 -3.257820 0
M  V30 55 H 3.079055 -0.398315 -6.881613 0
M  V30 56 H 0.661026 3.490592 -6.159708 0
M  V30 57 H -0.856841 4.250276 -4.387593 0
M  V30 58 H -2.896084 4.962889 -0.033809 0
M  V30 59 H -4.244493 3.992464 -0.754969 0
M  V30 60 H -2.533697 2.301901 0.870194 0
M  V30 61 H -5.391602 4.090946 4.105154 0
M  V30 62 H -4.307559 1.064841 6.781611 0
M  V30 63 H -2.489272 -0.777492 4.325031 0
M  V30 64 H -3.219132 -0.744289 5.999925 0
M  V30 65 H -2.183598 0.265308 7.846330 0
M  V30 66 H -0.112750 0.926666 8.950689 0
M  V30 67 H -0.195578 0.347897 4.105874 0
M  V30 68 H -0.406765 0.669832 -2.284382 0
M  V30 69 H 0.796507 -0.824642 -1.096923 0
M  V30 70 H -0.659443 -1.553208 -2.022699 0
M  V30 71 H 0.627642 -2.526507 -1.386228 0
M  V30 END ATOM
M  V30 BEGIN BOND
M  V30 1 1 1 2
M  V30 2 1 2 3
M  V30 3 1 2 4
M  V30 4 1 4 5
M  V30 5 1 5 6
M  V30 6 1 6 7
M  V30 7 2 7 8
M  V30 8 1 8 9
M  V30 9 2 9 10
M  V30 10 1 10 11
M  V30 11 2 11 12
M  V30 12 1 12 13
M  V30 13 2 13 14
M  V30 14 1 14 15
M  V30 15 1 15 16
M  V30 16 3 16 17
M  V30 17 1 17 18
M  V30 18 1 18 19
M  V30 19 1 19 20
M  V30 20 2 20 21
M  V30 21 1 20 22
M  V30 22 2 22 23
M  V30 23 1 23 24
M  V30 24 2 24 25
M  V30 25 1 25 26
M  V30 26 1 26 27
M  V30 27 1 27 28
M  V30 28 2 28 29
M  V30 29 1 29 30
M  V30 30 2 30 31
M  V30 31 1 31 32
M  V30 32 1 31 33
M  V30 33 1 33 34
M  V30 34 2 33 35
M  V30 35 1 26 36
M  V30 36 2 36 37
M  V30 37 2 15 38
M  V30 38 1 38 39
M  V30 39 2 39 40
M  V30 40 1 40 41
M  V30 41 1 41 42
M  V30 42 1 41 7
M  V30 43 1 40 9
M  V30 44 1 39 12
M  V30 45 1 36 22
M  V30 46 1 35 28
M  V30 47 1 1 43
M  V30 48 1 1 44
M  V30 49 1 1 45
M  V30 50 1 3 46
M  V30 51 1 3 47
M  V30 52 1 3 48
M  V30 53 1 4 49
M  V30 54 1 4 50
M  V30 55 1 5 51
M  V30 56 1 5 52
M  V30 57 1 6 53
M  V30 58 1 6 54
M  V30 59 1 10 55
M  V30 60 1 13 56
M  V30 61 1 14 57
M  V30 62 1 18 58
M  V30 63 1 18 59
M  V30 64 1 19 60
M  V30 65 1 23 61
M  V30 66 1 25 62
M  V30 67 1 27 63
M  V30 68 1 27 64
M  V30 69 1 29 65
M  V30 70 1 30 66
M  V30 71 1 35 67
M  V30 72 1 38 68
M  V30 73 1 42 69
M  V30 74 1 42 70
M  V30 75 1 42 71
M  V30 END BOND
M  V30 END CTAB
M  END
>  <Dataset>  (718) 
ChEMBL_Kinases

>  <Ligand_Instance>  (718) 
nan

>  <PDB_ID>  (718) 
nan

>  <Standardized_SMILES>  (718) 
CN(C)CCCc1nc2cnc3ccc(C#CCNC(=O)c4cncn(Cc5ccc(F)c(F)c5)c4=O)cc3c2n1C

>  <Name>  (718) 
nan

>  <Pocket>  (718) 
nan

>  <ATP_Site>  (718) 
nan

>  <Peripheral>  (718) 
nan

>  <Num_H_Atoms_ProtBoundConf>  (718) 
nan

>  <Num_Resolved_Atoms>  (718) 
nan

>  <Num_Not_Resolved_Atoms>  (718) 
nan

$$$$
CHEMBL3647297
     RDKit          3D

  0  0  0  0  0  0  0  0  0  0999 V3000
M  V30 BEGIN CTAB
M  V30 COUNTS 61 65 0 0 0
M  V30 BEGIN ATOM
M  V30 1 C 1.998187 -3.690209 3.480693 0
M  V30 2 O 2.281062 -3.450196 4.812800 0
M  V30 3 C 1.732557 -2.269261 5.281891 0
M  V30 4 C 2.262052 -1.106578 4.515919 0
M  V30 5 N 3.444880 -0.591603 4.934746 0
M  V30 6 C 3.738352 0.429515 4.135522 0
M  V30 7 C 4.816269 1.280710 4.129935 0
M  V30 8 N 4.860094 2.240850 3.192493 0
M  V30 9 C 3.869520 2.375956 2.268423 0
M  V30 10 C 4.032293 3.393685 1.362222 0
M  V30 11 C 3.019167 3.510745 0.433066 0
M  V30 12 C 1.925417 2.669184 0.415465 0
M  V30 13 C 0.943810 2.903079 -0.607685 0
M  V30 14 C 0.104883 3.088446 -1.456430 0
M  V30 15 C -0.943123 3.304898 -2.484039 0
M  V30 16 N -1.579236 2.015803 -2.667462 0
M  V30 17 C -2.153505 1.550594 -1.462209 0
M  V30 18 O -1.950759 2.397541 -0.548064 0
M  V30 19 C -2.868416 0.323123 -1.233976 0
M  V30 20 C -3.333324 0.104813 0.052476 0
M  V30 21 N -4.011550 -0.999669 0.386803 0
M  V30 22 C -4.283815 -1.958555 -0.490549 0
M  V30 23 N -3.850205 -1.786099 -1.751507 0
M  V30 24 C -4.135867 -2.820555 -2.724733 0
M  V30 25 C -3.035221 -3.822248 -2.736124 0
M  V30 26 C -1.913198 -3.782721 -3.532983 0
M  V30 27 C -0.954707 -4.776549 -3.452207 0
M  V30 28 C -1.075583 -5.828825 -2.589757 0
M  V30 29 F -0.144893 -6.808439 -2.500496 0
M  V30 30 C -2.181715 -5.880440 -1.794837 0
M  V30 31 F -2.313043 -6.926071 -0.930163 0
M  V30 32 C -3.150901 -4.889901 -1.865846 0
M  V30 33 C -3.176095 -0.693594 -2.094241 0
M  V30 34 O -2.781787 -0.551802 -3.270820 0
M  V30 35 C 1.813006 1.646790 1.366796 0
M  V30 36 C 2.804422 1.502742 2.306593 0
M  V30 37 C 2.682796 0.493574 3.232633 0
M  V30 38 N 1.750114 -0.446730 3.443743 0
M  V30 39 C 0.525444 -0.726108 2.780078 0
M  V30 40 H 0.917008 -3.767768 3.336239 0
M  V30 41 H 2.471342 -2.867381 2.905089 0
M  V30 42 H 2.451802 -4.655622 3.134276 0
M  V30 43 H 0.616526 -2.320989 5.125453 0
M  V30 44 H 1.957070 -2.189888 6.377295 0
M  V30 45 H 5.594440 1.147695 4.882847 0
M  V30 46 H 4.898803 4.039860 1.396986 0
M  V30 47 H 3.106027 4.304737 -0.305849 0
M  V30 48 H -1.644437 4.049386 -2.068873 0
M  V30 49 H -0.505312 3.670265 -3.432364 0
M  V30 50 H -1.662786 1.424215 -3.520242 0
M  V30 51 H -3.161567 0.830745 0.843462 0
M  V30 52 H -4.836955 -2.813039 -0.127055 0
M  V30 53 H -5.099546 -3.310254 -2.448768 0
M  V30 54 H -4.273617 -2.361923 -3.735372 0
M  V30 55 H -1.826717 -2.949654 -4.209976 0
M  V30 56 H -0.113593 -4.681074 -4.098334 0
M  V30 57 H -3.984331 -5.009151 -1.207360 0
M  V30 58 H 0.948210 1.086366 1.240747 0
M  V30 59 H -0.275978 0.042891 2.896172 0
M  V30 60 H 0.600055 -1.176077 1.772823 0
M  V30 61 H 0.028357 -1.579851 3.340070 0
M  V30 END ATOM
M  V30 BEGIN BOND
M  V30 1 1 1 2
M  V30 2 1 2 3
M  V30 3 1 3 4
M  V30 4 2 4 5
M  V30 5 1 5 6
M  V30 6 2 6 7
M  V30 7 1 7 8
M  V30 8 2 8 9
M  V30 9 1 9 10
M  V30 10 2 10 11
M  V30 11 1 11 12
M  V30 12 1 12 13
M  V30 13 3 13 14
M  V30 14 1 14 15
M  V30 15 1 15 16
M  V30 16 1 16 17
M  V30 17 2 17 18
M  V30 18 1 17 19
M  V30 19 2 19 20
M  V30 20 1 20 21
M  V30 21 2 21 22
M  V30 22 1 22 23
M  V30 23 1 23 24
M  V30 24 1 24 25
M  V30 25 2 25 26
M  V30 26 1 26 27
M  V30 27 2 27 28
M  V30 28 1 28 29
M  V30 29 1 28 30
M  V30 30 1 30 31
M  V30 31 2 30 32
M  V30 32 1 23 33
M  V30 33 2 33 34
M  V30 34 2 12 35
M  V30 35 1 35 36
M  V30 36 2 36 37
M  V30 37 1 37 38
M  V30 38 1 38 39
M  V30 39 1 38 4
M  V30 40 1 37 6
M  V30 41 1 36 9
M  V30 42 1 33 19
M  V30 43 1 32 25
M  V30 44 1 1 40
M  V30 45 1 1 41
M  V30 46 1 1 42
M  V30 47 1 3 43
M  V30 48 1 3 44
M  V30 49 1 7 45
M  V30 50 1 10 46
M  V30 51 1 11 47
M  V30 52 1 15 48
M  V30 53 1 15 49
M  V30 54 1 16 50
M  V30 55 1 20 51
M  V30 56 1 22 52
M  V30 57 1 24 53
M  V30 58 1 24 54
M  V30 59 1 26 55
M  V30 60 1 27 56
M  V30 61 1 32 57
M  V30 62 1 35 58
M  V30 63 1 39 59
M  V30 64 1 39 60
M  V30 65 1 39 61
M  V30 END BOND
M  V30 END CTAB
M  END
>  <Dataset>  (719) 
ChEMBL_Kinases

>  <Ligand_Instance>  (719) 
nan

>  <PDB_ID>  (719) 
nan

>  <Standardized_SMILES>  (719) 
COCc1nc2cnc3ccc(C#CCNC(=O)c4cncn(Cc5ccc(F)c(F)c5)c4=O)cc3c2n1C

>  <Name>  (719) 
nan

>  <Pocket>  (719) 
nan

>  <ATP_Site>  (719) 
nan

>  <Peripheral>  (719) 
nan

>  <Num_H_Atoms_ProtBoundConf>  (719) 
nan

>  <Num_Resolved_Atoms>  (719) 
nan

>  <Num_Not_Resolved_Atoms>  (719) 
nan

$$$$
CHEMBL3647296
     RDKit          3D

  0  0  0  0  0  0  0  0  0  0999 V3000
M  V30 BEGIN CTAB
M  V30 COUNTS 58 62 0 0 0
M  V30 BEGIN ATOM
M  V30 1 C 4.445463 -3.917705 3.910117 0
M  V30 2 O 3.460863 -2.977706 3.533127 0
M  V30 3 C 3.743441 -1.883274 2.729428 0
M  V30 4 N 4.994181 -1.627776 2.240696 0
M  V30 5 C 4.888608 -0.493699 1.509705 0
M  V30 6 C 5.861538 0.167664 0.819970 0
M  V30 7 N 5.464366 1.279767 0.176736 0
M  V30 8 C 4.197848 1.713549 0.208887 0
M  V30 9 C 3.927289 2.856106 -0.486550 0
M  V30 10 C 2.613197 3.307283 -0.454092 0
M  V30 11 C 1.603461 2.659185 0.236151 0
M  V30 12 C 0.242047 3.166238 0.245128 0
M  V30 13 C -0.895505 3.575511 0.268921 0
M  V30 14 C -2.293087 4.067578 0.321943 0
M  V30 15 N -3.172061 2.965722 0.764369 0
M  V30 16 C -3.155790 1.899240 -0.085147 0
M  V30 17 O -2.467397 1.845561 -1.166872 0
M  V30 18 C -3.468862 0.632914 -0.591334 0
M  V30 19 C -4.273866 0.419302 0.660221 0
M  V30 20 N -5.029437 -0.670753 1.090628 0
M  V30 21 C -5.098566 -1.773665 0.289812 0
M  V30 22 N -4.406825 -1.661286 -0.846765 0
M  V30 23 C -4.273563 -2.636803 -1.905494 0
M  V30 24 C -3.110163 -3.527258 -1.683987 0
M  V30 25 C -3.162871 -4.648883 -0.886117 0
M  V30 26 C -2.107645 -5.503161 -0.661622 0
M  V30 27 C -0.902447 -5.236004 -1.269165 0
M  V30 28 F 0.173020 -6.055969 -1.074517 0
M  V30 29 C -0.762894 -4.136832 -2.081810 0
M  V30 30 F 0.421973 -3.873018 -2.681726 0
M  V30 31 C -1.875740 -3.324244 -2.257036 0
M  V30 32 C -3.762587 -0.554921 -1.066057 0
M  V30 33 O -3.031818 -0.248291 -2.113977 0
M  V30 34 C 1.967303 1.491083 0.925216 0
M  V30 35 C 3.246172 1.020007 0.915097 0
M  V30 36 C 3.564261 -0.124355 1.599500 0
M  V30 37 N 2.820883 -0.952422 2.341731 0
M  V30 38 C 1.439777 -0.972758 2.706356 0
M  V30 39 H 3.985755 -4.924078 4.112980 0
M  V30 40 H 4.807398 -3.562181 4.916634 0
M  V30 41 H 5.305327 -3.975198 3.236315 0
M  V30 42 H 6.894967 -0.195182 0.799818 0
M  V30 43 H 4.701445 3.394001 -1.043353 0
M  V30 44 H 2.395951 4.206821 -1.000822 0
M  V30 45 H -2.425367 4.920064 0.996352 0
M  V30 46 H -2.553053 4.397271 -0.678004 0
M  V30 47 H -3.833024 2.661254 1.497599 0
M  V30 48 H -4.596430 0.914140 1.650814 0
M  V30 49 H -5.555579 -2.745956 0.287359 0
M  V30 50 H -4.276391 -2.195268 -2.926691 0
M  V30 51 H -5.176966 -3.315692 -1.815760 0
M  V30 52 H -4.077500 -4.915905 -0.381371 0
M  V30 53 H -2.193240 -6.385679 -0.018401 0
M  V30 54 H -1.697970 -2.482660 -2.909834 0
M  V30 55 H 1.124926 1.066331 1.423422 0
M  V30 56 H 1.258698 -1.902559 3.338731 0
M  V30 57 H 1.104289 -0.136409 3.354011 0
M  V30 58 H 0.726806 -1.126894 1.865994 0
M  V30 END ATOM
M  V30 BEGIN BOND
M  V30 1 1 1 2
M  V30 2 1 2 3
M  V30 3 2 3 4
M  V30 4 1 4 5
M  V30 5 2 5 6
M  V30 6 1 6 7
M  V30 7 2 7 8
M  V30 8 1 8 9
M  V30 9 2 9 10
M  V30 10 1 10 11
M  V30 11 1 11 12
M  V30 12 3 12 13
M  V30 13 1 13 14
M  V30 14 1 14 15
M  V30 15 1 15 16
M  V30 16 2 16 17
M  V30 17 1 16 18
M  V30 18 2 18 19
M  V30 19 1 19 20
M  V30 20 2 20 21
M  V30 21 1 21 22
M  V30 22 1 22 23
M  V30 23 1 23 24
M  V30 24 2 24 25
M  V30 25 1 25 26
M  V30 26 2 26 27
M  V30 27 1 27 28
M  V30 28 1 27 29
M  V30 29 1 29 30
M  V30 30 2 29 31
M  V30 31 1 22 32
M  V30 32 2 32 33
M  V30 33 2 11 34
M  V30 34 1 34 35
M  V30 35 2 35 36
M  V30 36 1 36 37
M  V30 37 1 37 38
M  V30 38 1 37 3
M  V30 39 1 36 5
M  V30 40 1 35 8
M  V30 41 1 32 18
M  V30 42 1 31 24
M  V30 43 1 1 39
M  V30 44 1 1 40
M  V30 45 1 1 41
M  V30 46 1 6 42
M  V30 47 1 9 43
M  V30 48 1 10 44
M  V30 49 1 14 45
M  V30 50 1 14 46
M  V30 51 1 15 47
M  V30 52 1 19 48
M  V30 53 1 21 49
M  V30 54 1 23 50
M  V30 55 1 23 51
M  V30 56 1 25 52
M  V30 57 1 26 53
M  V30 58 1 31 54
M  V30 59 1 34 55
M  V30 60 1 38 56
M  V30 61 1 38 57
M  V30 62 1 38 58
M  V30 END BOND
M  V30 END CTAB
M  END
>  <Dataset>  (720) 
ChEMBL_Kinases

>  <Ligand_Instance>  (720) 
nan

>  <PDB_ID>  (720) 
nan

>  <Standardized_SMILES>  (720) 
COc1nc2cnc3ccc(C#CCNC(=O)c4cncn(Cc5ccc(F)c(F)c5)c4=O)cc3c2n1C

>  <Name>  (720) 
nan

>  <Pocket>  (720) 
nan

>  <ATP_Site>  (720) 
nan

>  <Peripheral>  (720) 
nan

>  <Num_H_Atoms_ProtBoundConf>  (720) 
nan

>  <Num_Resolved_Atoms>  (720) 
nan

>  <Num_Not_Resolved_Atoms>  (720) 
nan

$$$$
CHEMBL3647295
     RDKit          3D

  0  0  0  0  0  0  0  0  0  0999 V3000
M  V30 BEGIN CTAB
M  V30 COUNTS 60 64 0 0 0
M  V30 BEGIN ATOM
M  V30 1 C 4.337078 -1.891126 4.601489 0
M  V30 2 C 4.156712 -2.362931 3.170618 0
M  V30 3 C 4.137530 -1.155522 2.276737 0
M  V30 4 N 5.285977 -0.650803 1.727240 0
M  V30 5 C 4.918550 0.413540 0.992354 0
M  V30 6 C 5.707727 1.253579 0.246074 0
M  V30 7 N 5.085916 2.250015 -0.402253 0
M  V30 8 C 3.763435 2.395143 -0.308331 0
M  V30 9 C 3.214188 3.459571 -1.015255 0
M  V30 10 C 1.846407 3.614294 -0.919560 0
M  V30 11 C 1.030058 2.784821 -0.176748 0
M  V30 12 C -0.401848 3.038894 -0.132581 0
M  V30 13 C -1.587999 3.250627 -0.074861 0
M  V30 14 C -3.031657 3.503596 0.020673 0
M  V30 15 N -3.751343 2.321128 0.522458 0
M  V30 16 C -3.641830 1.215435 -0.248060 0
M  V30 17 O -2.972225 1.180431 -1.332625 0
M  V30 18 C -3.827056 -0.099276 -0.665616 0
M  V30 19 C -4.626083 -0.313210 0.591601 0
M  V30 20 N -5.280851 -1.443561 1.086635 0
M  V30 21 C -5.219134 -2.590972 0.337584 0
M  V30 22 N -4.522616 -2.493384 -0.807926 0
M  V30 23 C -4.305047 -3.538773 -1.775353 0
M  V30 24 C -3.050502 -4.290109 -1.446745 0
M  V30 25 C -3.023873 -5.306741 -0.517583 0
M  V30 26 C -1.831523 -5.947714 -0.283222 0
M  V30 27 C -0.648961 -5.658062 -0.903680 0
M  V30 28 F 0.534279 -6.293418 -0.672137 0
M  V30 29 C -0.661938 -4.632259 -1.846314 0
M  V30 30 F 0.485408 -4.299110 -2.498579 0
M  V30 31 C -1.857868 -3.980535 -2.089477 0
M  V30 32 C -3.999390 -1.321419 -1.053532 0
M  V30 33 O -3.289068 -1.042440 -2.123929 0
M  V30 34 C 1.629303 1.726348 0.518088 0
M  V30 35 C 2.980253 1.545919 0.443937 0
M  V30 36 C 3.542956 0.520306 1.122310 0
M  V30 37 N 3.048298 -0.421386 1.897387 0
M  V30 38 C 1.717133 -0.746554 2.342318 0
M  V30 39 H 3.334760 -1.803782 5.089827 0
M  V30 40 H 4.822267 -0.889650 4.652403 0
M  V30 41 H 5.004004 -2.580875 5.164712 0
M  V30 42 H 5.046546 -3.000306 2.891973 0
M  V30 43 H 3.258250 -2.987984 3.063759 0
M  V30 44 H 6.791931 1.090237 0.203248 0
M  V30 45 H 3.850026 4.116546 -1.603271 0
M  V30 46 H 1.410423 4.440152 -1.466755 0
M  V30 47 H -3.290983 4.336843 0.697077 0
M  V30 48 H -3.368915 3.772092 -0.987166 0
M  V30 49 H -4.355265 2.003557 1.305007 0
M  V30 50 H -5.007209 0.213842 1.545051 0
M  V30 51 H -5.590745 -3.595711 0.414801 0
M  V30 52 H -4.162644 -3.120262 -2.780345 0
M  V30 53 H -5.158578 -4.263636 -1.782305 0
M  V30 54 H -3.927663 -5.586182 0.009495 0
M  V30 55 H -1.742745 -6.762855 0.442683 0
M  V30 56 H -1.781196 -3.197682 -2.838787 0
M  V30 57 H 0.899526 1.159231 1.051328 0
M  V30 58 H 1.266279 0.039286 3.007880 0
M  V30 59 H 1.741609 -1.645818 3.035791 0
M  V30 60 H 1.026600 -1.076347 1.545325 0
M  V30 END ATOM
M  V30 BEGIN BOND
M  V30 1 1 1 2
M  V30 2 1 2 3
M  V30 3 2 3 4
M  V30 4 1 4 5
M  V30 5 2 5 6
M  V30 6 1 6 7
M  V30 7 2 7 8
M  V30 8 1 8 9
M  V30 9 2 9 10
M  V30 10 1 10 11
M  V30 11 1 11 12
M  V30 12 3 12 13
M  V30 13 1 13 14
M  V30 14 1 14 15
M  V30 15 1 15 16
M  V30 16 2 16 17
M  V30 17 1 16 18
M  V30 18 2 18 19
M  V30 19 1 19 20
M  V30 20 2 20 21
M  V30 21 1 21 22
M  V30 22 1 22 23
M  V30 23 1 23 24
M  V30 24 2 24 25
M  V30 25 1 25 26
M  V30 26 2 26 27
M  V30 27 1 27 28
M  V30 28 1 27 29
M  V30 29 1 29 30
M  V30 30 2 29 31
M  V30 31 1 22 32
M  V30 32 2 32 33
M  V30 33 2 11 34
M  V30 34 1 34 35
M  V30 35 2 35 36
M  V30 36 1 36 37
M  V30 37 1 37 38
M  V30 38 1 37 3
M  V30 39 1 36 5
M  V30 40 1 35 8
M  V30 41 1 32 18
M  V30 42 1 31 24
M  V30 43 1 1 39
M  V30 44 1 1 40
M  V30 45 1 1 41
M  V30 46 1 2 42
M  V30 47 1 2 43
M  V30 48 1 6 44
M  V30 49 1 9 45
M  V30 50 1 10 46
M  V30 51 1 14 47
M  V30 52 1 14 48
M  V30 53 1 15 49
M  V30 54 1 19 50
M  V30 55 1 21 51
M  V30 56 1 23 52
M  V30 57 1 23 53
M  V30 58 1 25 54
M  V30 59 1 26 55
M  V30 60 1 31 56
M  V30 61 1 34 57
M  V30 62 1 38 58
M  V30 63 1 38 59
M  V30 64 1 38 60
M  V30 END BOND
M  V30 END CTAB
M  END
>  <Dataset>  (721) 
ChEMBL_Kinases

>  <Ligand_Instance>  (721) 
nan

>  <PDB_ID>  (721) 
nan

>  <Standardized_SMILES>  (721) 
CCc1nc2cnc3ccc(C#CCNC(=O)c4cncn(Cc5ccc(F)c(F)c5)c4=O)cc3c2n1C

>  <Name>  (721) 
nan

>  <Pocket>  (721) 
nan

>  <ATP_Site>  (721) 
nan

>  <Peripheral>  (721) 
nan

>  <Num_H_Atoms_ProtBoundConf>  (721) 
nan

>  <Num_Resolved_Atoms>  (721) 
nan

>  <Num_Not_Resolved_Atoms>  (721) 
nan

$$$$
CHEMBL3647294
     RDKit          3D

  0  0  0  0  0  0  0  0  0  0999 V3000
M  V30 BEGIN CTAB
M  V30 COUNTS 64 69 0 0 0
M  V30 BEGIN ATOM
M  V30 1 C 2.681354 -0.723832 -0.399990 0
M  V30 2 N 3.544303 0.371292 -0.686514 0
M  V30 3 C 4.846519 0.438154 -0.271879 0
M  V30 4 C 5.651795 -0.502840 0.506324 0
M  V30 5 C 5.483632 -0.896474 1.818493 0
M  V30 6 C 6.359188 -1.805246 2.377388 0
M  V30 7 C 7.421011 -2.360837 1.690196 0
M  V30 8 C 7.570303 -1.952670 0.378657 0
M  V30 9 C 6.717077 -1.049001 -0.211568 0
M  V30 10 N 5.445508 1.596591 -0.681480 0
M  V30 11 C 4.513693 2.310296 -1.383554 0
M  V30 12 C 4.640229 3.534009 -1.991566 0
M  V30 13 N 3.543127 3.992665 -2.615401 0
M  V30 14 C 2.399359 3.278657 -2.630897 0
M  V30 15 C 1.342715 3.853279 -3.304236 0
M  V30 16 C 0.171742 3.123131 -3.322213 0
M  V30 17 C 0.038850 1.880564 -2.706523 0
M  V30 18 C -1.240606 1.233468 -2.809408 0
M  V30 19 C -2.318550 0.704592 -2.910787 0
M  V30 20 C -3.634394 0.077582 -3.053334 0
M  V30 21 N -4.053374 -0.647202 -1.869319 0
M  V30 22 C -3.260100 -1.724944 -1.402917 0
M  V30 23 O -2.265419 -1.848999 -2.177218 0
M  V30 24 C -3.531611 -2.551271 -0.239790 0
M  V30 25 C -2.568512 -3.542798 -0.034577 0
M  V30 26 N -2.673876 -4.386645 0.989195 0
M  V30 27 C -3.661708 -4.368452 1.875976 0
M  V30 28 N -4.591447 -3.420240 1.687811 0
M  V30 29 C -5.705332 -3.322517 2.604117 0
M  V30 30 C -5.456356 -2.436344 3.754287 0
M  V30 31 C -4.896772 -2.961374 4.922997 0
M  V30 32 C -4.624081 -2.209127 6.059068 0
M  V30 33 C -4.941964 -0.889945 5.968973 0
M  V30 34 F -4.697653 -0.093629 7.057942 0
M  V30 35 C -5.495928 -0.262904 4.872484 0
M  V30 36 F -5.785948 1.052837 4.852780 0
M  V30 37 C -5.734729 -1.079113 3.788947 0
M  V30 38 C -4.550260 -2.539057 0.682092 0
M  V30 39 O -5.397571 -1.638223 0.470353 0
M  V30 40 C 1.133078 1.355834 -2.046667 0
M  V30 41 C 2.314895 2.054295 -2.007972 0
M  V30 42 C 3.388856 1.511038 -1.347081 0
M  V30 43 H 3.269845 -1.477274 0.217986 0
M  V30 44 H 2.400062 -1.309678 -1.285698 0
M  V30 45 H 1.851990 -0.462211 0.286738 0
M  V30 46 H 4.646768 -0.437188 2.306392 0
M  V30 47 H 6.195295 -2.091980 3.414190 0
M  V30 48 H 8.044887 -3.063524 2.225433 0
M  V30 49 H 8.406564 -2.390455 -0.162263 0
M  V30 50 H 6.952239 -0.816161 -1.253802 0
M  V30 51 H 5.565976 4.085845 -1.965397 0
M  V30 52 H 1.417773 4.812074 -3.789008 0
M  V30 53 H -0.666714 3.560967 -3.847140 0
M  V30 54 H -3.598233 -0.691005 -3.876481 0
M  V30 55 H -4.334172 0.883761 -3.322103 0
M  V30 56 H -4.926416 -0.381619 -1.365280 0
M  V30 57 H -1.682467 -3.744796 -0.626236 0
M  V30 58 H -3.780909 -5.032621 2.714479 0
M  V30 59 H -5.953141 -4.330817 3.000584 0
M  V30 60 H -6.599862 -2.937819 2.048693 0
M  V30 61 H -4.665189 -4.020969 4.935053 0
M  V30 62 H -4.190502 -2.668197 6.935789 0
M  V30 63 H -6.168313 -0.630698 2.908109 0
M  V30 64 H 0.903941 0.404385 -1.619514 0
M  V30 END ATOM
M  V30 BEGIN BOND
M  V30 1 1 1 2
M  V30 2 1 2 3
M  V30 3 1 3 4
M  V30 4 2 4 5
M  V30 5 1 5 6
M  V30 6 2 6 7
M  V30 7 1 7 8
M  V30 8 2 8 9
M  V30 9 2 3 10
M  V30 10 1 10 11
M  V30 11 2 11 12
M  V30 12 1 12 13
M  V30 13 2 13 14
M  V30 14 1 14 15
M  V30 15 2 15 16
M  V30 16 1 16 17
M  V30 17 1 17 18
M  V30 18 3 18 19
M  V30 19 1 19 20
M  V30 20 1 20 21
M  V30 21 1 21 22
M  V30 22 2 22 23
M  V30 23 1 22 24
M  V30 24 2 24 25
M  V30 25 1 25 26
M  V30 26 2 26 27
M  V30 27 1 27 28
M  V30 28 1 28 29
M  V30 29 1 29 30
M  V30 30 2 30 31
M  V30 31 1 31 32
M  V30 32 2 32 33
M  V30 33 1 33 34
M  V30 34 1 33 35
M  V30 35 1 35 36
M  V30 36 2 35 37
M  V30 37 1 28 38
M  V30 38 2 38 39
M  V30 39 2 17 40
M  V30 40 1 40 41
M  V30 41 2 41 42
M  V30 42 1 42 2
M  V30 43 1 9 4
M  V30 44 1 42 11
M  V30 45 1 41 14
M  V30 46 1 38 24
M  V30 47 1 37 30
M  V30 48 1 1 43
M  V30 49 1 1 44
M  V30 50 1 1 45
M  V30 51 1 5 46
M  V30 52 1 6 47
M  V30 53 1 7 48
M  V30 54 1 8 49
M  V30 55 1 9 50
M  V30 56 1 12 51
M  V30 57 1 15 52
M  V30 58 1 16 53
M  V30 59 1 20 54
M  V30 60 1 20 55
M  V30 61 1 21 56
M  V30 62 1 25 57
M  V30 63 1 27 58
M  V30 64 1 29 59
M  V30 65 1 29 60
M  V30 66 1 31 61
M  V30 67 1 32 62
M  V30 68 1 37 63
M  V30 69 1 40 64
M  V30 END BOND
M  V30 END CTAB
M  END
>  <Dataset>  (722) 
ChEMBL_Kinases

>  <Ligand_Instance>  (722) 
nan

>  <PDB_ID>  (722) 
nan

>  <Standardized_SMILES>  (722) 
Cn1c(-c2ccccc2)nc2cnc3ccc(C#CCNC(=O)c4cncn(Cc5ccc(F)c(F)c5)c4=O)cc3c21

>  <Name>  (722) 
nan

>  <Pocket>  (722) 
nan

>  <ATP_Site>  (722) 
nan

>  <Peripheral>  (722) 
nan

>  <Num_H_Atoms_ProtBoundConf>  (722) 
nan

>  <Num_Resolved_Atoms>  (722) 
nan

>  <Num_Not_Resolved_Atoms>  (722) 
nan

$$$$
CHEMBL3647293
     RDKit          3D

  0  0  0  0  0  0  0  0  0  0999 V3000
M  V30 BEGIN CTAB
M  V30 COUNTS 61 65 0 0 0
M  V30 BEGIN ATOM
M  V30 1 C 3.112381 -0.670425 2.062424 0
M  V30 2 N 4.334439 -0.064696 1.667750 0
M  V30 3 C 5.589284 -0.560844 1.891724 0
M  V30 4 C 5.902407 -1.838544 2.598566 0
M  V30 5 C 5.965875 -3.016957 1.632238 0
M  V30 6 O 6.260951 -4.178038 2.355309 0
M  V30 7 N 6.581173 0.237980 1.397201 0
M  V30 8 C 5.959018 1.300458 0.825857 0
M  V30 9 C 6.512880 2.386589 0.188796 0
M  V30 10 N 5.658603 3.308883 -0.293202 0
M  V30 11 C 4.313070 3.172295 -0.156222 0
M  V30 12 C 3.548749 4.187604 -0.694134 0
M  V30 13 C 2.186570 4.022493 -0.539748 0
M  V30 14 C 1.618451 2.937000 0.097717 0
M  V30 15 C 0.180710 2.894910 0.186347 0
M  V30 16 C -1.028034 2.839561 0.253877 0
M  V30 17 C -2.491143 2.754981 0.317082 0
M  V30 18 N -2.928367 1.368187 0.527747 0
M  V30 19 C -2.481086 0.561279 -0.527717 0
M  V30 20 O -1.824469 1.280312 -1.358809 0
M  V30 21 C -2.683243 -0.857509 -0.723665 0
M  V30 22 C -2.111732 -1.393771 -1.885753 0
M  V30 23 N -2.228259 -2.698870 -2.182699 0
M  V30 24 C -2.890971 -3.562220 -1.395730 0
M  V30 25 N -3.446907 -3.067721 -0.275549 0
M  V30 26 C -4.174724 -3.955695 0.610152 0
M  V30 27 C -5.618287 -4.049653 0.271218 0
M  V30 28 C -6.594240 -3.232541 0.794303 0
M  V30 29 C -7.932733 -3.327287 0.472746 0
M  V30 30 C -8.293124 -4.308383 -0.430650 0
M  V30 31 F -9.577836 -4.496170 -0.822154 0
M  V30 32 C -7.367654 -5.161414 -0.993485 0
M  V30 33 F -7.642402 -6.140104 -1.879317 0
M  V30 34 C -6.035680 -5.026897 -0.639115 0
M  V30 35 C -3.351045 -1.771921 0.052599 0
M  V30 36 O -3.861365 -1.319381 1.080444 0
M  V30 37 C 2.448985 1.947036 0.618346 0
M  V30 38 C 3.813811 2.062817 0.491589 0
M  V30 39 C 4.611605 1.072431 1.014384 0
M  V30 40 H 2.539995 -0.164751 2.855965 0
M  V30 41 H 2.477939 -1.061312 1.213896 0
M  V30 42 H 3.392611 -1.650549 2.569152 0
M  V30 43 H 5.195459 -2.038467 3.424386 0
M  V30 44 H 6.926273 -1.784623 3.055850 0
M  V30 45 H 6.796141 -2.897811 0.911909 0
M  V30 46 H 5.033404 -3.142767 1.051326 0
M  V30 47 H 5.394459 -4.541536 2.664837 0
M  V30 48 H 7.588087 2.469279 0.094269 0
M  V30 49 H 4.011753 5.025061 -1.187055 0
M  V30 50 H 1.545317 4.798949 -0.948634 0
M  V30 51 H -2.895049 3.379506 1.161797 0
M  V30 52 H -2.893073 3.077719 -0.642935 0
M  V30 53 H -3.480863 0.922769 1.287073 0
M  V30 54 H -1.564888 -0.779985 -2.572305 0
M  V30 55 H -2.943548 -4.592451 -1.696206 0
M  V30 56 H -4.044260 -3.675675 1.676379 0
M  V30 57 H -3.751924 -4.987587 0.491719 0
M  V30 58 H -6.318201 -2.477454 1.489820 0
M  V30 59 H -8.685819 -2.678981 0.891412 0
M  V30 60 H -5.276933 -5.666516 -1.049438 0
M  V30 61 H 1.889648 1.170794 1.081744 0
M  V30 END ATOM
M  V30 BEGIN BOND
M  V30 1 1 1 2
M  V30 2 1 2 3
M  V30 3 1 3 4
M  V30 4 1 4 5
M  V30 5 1 5 6
M  V30 6 2 3 7
M  V30 7 1 7 8
M  V30 8 2 8 9
M  V30 9 1 9 10
M  V30 10 2 10 11
M  V30 11 1 11 12
M  V30 12 2 12 13
M  V30 13 1 13 14
M  V30 14 1 14 15
M  V30 15 3 15 16
M  V30 16 1 16 17
M  V30 17 1 17 18
M  V30 18 1 18 19
M  V30 19 2 19 20
M  V30 20 1 19 21
M  V30 21 2 21 22
M  V30 22 1 22 23
M  V30 23 2 23 24
M  V30 24 1 24 25
M  V30 25 1 25 26
M  V30 26 1 26 27
M  V30 27 2 27 28
M  V30 28 1 28 29
M  V30 29 2 29 30
M  V30 30 1 30 31
M  V30 31 1 30 32
M  V30 32 1 32 33
M  V30 33 2 32 34
M  V30 34 1 25 35
M  V30 35 2 35 36
M  V30 36 2 14 37
M  V30 37 1 37 38
M  V30 38 2 38 39
M  V30 39 1 39 2
M  V30 40 1 39 8
M  V30 41 1 38 11
M  V30 42 1 35 21
M  V30 43 1 34 27
M  V30 44 1 1 40
M  V30 45 1 1 41
M  V30 46 1 1 42
M  V30 47 1 4 43
M  V30 48 1 4 44
M  V30 49 1 5 45
M  V30 50 1 5 46
M  V30 51 1 6 47
M  V30 52 1 9 48
M  V30 53 1 12 49
M  V30 54 1 13 50
M  V30 55 1 17 51
M  V30 56 1 17 52
M  V30 57 1 18 53
M  V30 58 1 22 54
M  V30 59 1 24 55
M  V30 60 1 26 56
M  V30 61 1 26 57
M  V30 62 1 28 58
M  V30 63 1 29 59
M  V30 64 1 34 60
M  V30 65 1 37 61
M  V30 END BOND
M  V30 END CTAB
M  END
>  <Dataset>  (723) 
ChEMBL_Kinases

>  <Ligand_Instance>  (723) 
nan

>  <PDB_ID>  (723) 
nan

>  <Standardized_SMILES>  (723) 
Cn1c(CCO)nc2cnc3ccc(C#CCNC(=O)c4cncn(Cc5ccc(F)c(F)c5)c4=O)cc3c21

>  <Name>  (723) 
nan

>  <Pocket>  (723) 
nan

>  <ATP_Site>  (723) 
nan

>  <Peripheral>  (723) 
nan

>  <Num_H_Atoms_ProtBoundConf>  (723) 
nan

>  <Num_Resolved_Atoms>  (723) 
nan

>  <Num_Not_Resolved_Atoms>  (723) 
nan

$$$$
CHEMBL3649499
     RDKit          3D

  0  0  0  0  0  0  0  0  0  0999 V3000
M  V30 BEGIN CTAB
M  V30 COUNTS 39 42 0 0 0
M  V30 BEGIN ATOM
M  V30 1 C 1.414030 -4.699472 -0.497054 0
M  V30 2 C 2.581390 -3.926497 -0.053867 0
M  V30 3 C 3.692470 -4.655705 0.379929 0
M  V30 4 C 4.834674 -4.025841 0.821952 0
M  V30 5 C 4.846729 -2.642655 0.823021 0
M  V30 6 C 3.760123 -1.891056 0.399432 0
M  V30 7 C 2.620347 -2.549871 -0.041908 0
M  V30 8 C 1.467233 -1.783046 -0.507055 0
M  V30 9 N 0.977151 -1.940756 -1.750751 0
M  V30 10 N -0.064847 -1.246677 -2.158496 0
M  V30 11 C -0.729989 -0.344636 -1.419385 0
M  V30 12 C -0.257716 -0.152369 -0.132558 0
M  V30 13 N -0.907686 0.745335 0.637473 0
M  V30 14 C -0.532667 1.010561 1.923216 0
M  V30 15 O -1.184731 1.929212 2.740379 0
M  V30 16 C -2.280430 2.641182 2.269904 0
M  V30 17 C -2.269133 3.879281 1.671788 0
M  V30 18 C -3.369988 4.560199 1.212596 0
M  V30 19 C -4.565481 3.896802 1.396773 0
M  V30 20 F -5.710358 4.516974 0.957717 0
M  V30 21 C -4.694366 2.654425 1.985492 0
M  V30 22 C -3.517921 2.031496 2.423386 0
M  V30 23 C 0.560707 0.287150 2.362455 0
M  V30 24 C 1.252631 -0.638721 1.605380 0
M  V30 25 C 0.833916 -0.870533 0.313512 0
M  V30 26 H 0.570023 -4.081422 -0.826397 0
M  V30 27 H 1.651352 -5.519615 -1.221424 0
M  V30 28 H 1.052496 -5.254868 0.422056 0
M  V30 29 H 3.680214 -5.743498 0.377467 0
M  V30 30 H 5.728031 -4.534070 1.168886 0
M  V30 31 H 5.742190 -2.121211 1.172944 0
M  V30 32 H 3.851624 -0.795791 0.431301 0
M  V30 33 H -1.585731 0.195085 -1.817712 0
M  V30 34 H -1.294757 4.351189 1.562472 0
M  V30 35 H -3.263190 5.530968 0.755026 0
M  V30 36 H -5.666910 2.210357 2.089338 0
M  V30 37 H -3.653964 1.063198 2.879555 0
M  V30 38 H 0.921972 0.441677 3.375211 0
M  V30 39 H 2.097528 -1.167586 2.014060 0
M  V30 END ATOM
M  V30 BEGIN BOND
M  V30 1 1 1 2
M  V30 2 2 2 3
M  V30 3 1 3 4
M  V30 4 2 4 5
M  V30 5 1 5 6
M  V30 6 2 6 7
M  V30 7 1 7 8
M  V30 8 2 8 9
M  V30 9 1 9 10
M  V30 10 2 10 11
M  V30 11 1 11 12
M  V30 12 2 12 13
M  V30 13 1 13 14
M  V30 14 1 14 15
M  V30 15 1 15 16
M  V30 16 2 16 17
M  V30 17 1 17 18
M  V30 18 2 18 19
M  V30 19 1 19 20
M  V30 20 1 19 21
M  V30 21 2 21 22
M  V30 22 2 14 23
M  V30 23 1 23 24
M  V30 24 2 24 25
M  V30 25 1 7 2
M  V30 26 1 25 8
M  V30 27 1 25 12
M  V30 28 1 22 16
M  V30 29 1 1 26
M  V30 30 1 1 27
M  V30 31 1 1 28
M  V30 32 1 3 29
M  V30 33 1 4 30
M  V30 34 1 5 31
M  V30 35 1 6 32
M  V30 36 1 11 33
M  V30 37 1 17 34
M  V30 38 1 18 35
M  V30 39 1 21 36
M  V30 40 1 22 37
M  V30 41 1 23 38
M  V30 42 1 24 39
M  V30 END BOND
M  V30 END CTAB
M  END
>  <Dataset>  (724) 
ChEMBL_Kinases

>  <Ligand_Instance>  (724) 
nan

>  <PDB_ID>  (724) 
nan

>  <Standardized_SMILES>  (724) 
Cc1ccccc1-c1nncc2nc(Oc3ccc(F)cc3)ccc12

>  <Name>  (724) 
nan

>  <Pocket>  (724) 
nan

>  <ATP_Site>  (724) 
nan

>  <Peripheral>  (724) 
nan

>  <Num_H_Atoms_ProtBoundConf>  (724) 
nan

>  <Num_Resolved_Atoms>  (724) 
nan

>  <Num_Not_Resolved_Atoms>  (724) 
nan

$$$$
CHEMBL3645227
     RDKit          3D

  0  0  0  0  0  0  0  0  0  0999 V3000
M  V30 BEGIN CTAB
M  V30 COUNTS 90 97 0 0 0
M  V30 BEGIN ATOM
M  V30 1 C 2.743572 -0.597582 -1.122365 0
M  V30 2 O 1.949539 -1.121127 -2.166445 0
M  V30 3 C 0.731604 -1.418042 -1.608071 0
M  V30 4 C -0.267942 -2.000170 -2.603292 0 CFG=1
M  V30 5 C -0.443056 -0.985024 -3.630967 0
M  V30 6 O 0.315282 -0.075705 -3.140896 0
M  V30 7 N -1.152677 -0.800969 -4.862830 0
M  V30 8 C -0.788366 0.532092 -5.289910 0
M  V30 9 C 0.315945 0.806073 -6.067326 0
M  V30 10 C 0.549842 2.113280 -6.399961 0
M  V30 11 C -0.336767 3.068545 -5.934475 0
M  V30 12 N -0.350267 4.423126 -6.105788 0
M  V30 13 N -1.400402 4.937296 -5.470693 0
M  V30 14 C -2.102331 3.983619 -4.873523 0
M  V30 15 C -3.313970 4.204830 -4.093474 0
M  V30 16 C -4.343934 3.333364 -4.392285 0
M  V30 17 C -5.574553 3.417570 -3.735453 0
M  V30 18 N -5.745238 4.373307 -2.793607 0
M  V30 19 C -4.762555 5.230261 -2.484874 0
M  V30 20 C -4.977961 6.275948 -1.450412 0
M  V30 21 C -4.108250 7.444377 -1.304278 0
M  V30 22 C -4.022934 6.335228 -0.306453 0
M  V30 23 C -3.546269 5.157700 -3.124711 0
M  V30 24 C -1.436959 2.810348 -5.162289 0
M  V30 25 C -1.682739 1.500826 -4.821240 0
M  V30 26 C 0.249796 -3.304147 -3.163777 0
M  V30 27 C -0.612519 -4.388663 -2.526670 0
M  V30 28 N -1.472159 -3.759332 -1.637181 0
M  V30 29 C -2.279609 -4.404224 -0.721411 0
M  V30 30 C -1.663361 -5.096833 0.423640 0
M  V30 31 O -2.633696 -5.620137 1.095225 0
M  V30 32 N -0.333850 -5.329489 0.960638 0
M  V30 33 C 1.052114 -4.987563 0.625491 0
M  V30 34 C 1.624666 -4.273398 1.791644 0
M  V30 35 C 1.272398 -4.386812 3.058922 0
M  V30 36 C 1.891174 -3.642864 4.147219 0
M  V30 37 C 2.913403 -2.732274 3.995278 0
M  V30 38 C 3.490055 -2.036189 5.037679 0
M  V30 39 C 3.033798 -2.244696 6.327210 0
M  V30 40 C 3.678723 -1.483053 7.393683 0
M  V30 41 N 4.686700 -0.599290 7.158843 0
M  V30 42 C 5.261374 0.086409 8.161707 0
M  V30 43 C 4.840030 -0.089081 9.479512 0
M  V30 44 C 3.827279 -0.979903 9.698227 0
M  V30 45 N 3.269102 -1.653002 8.676409 0
M  V30 46 C 2.008622 -3.149853 6.527964 0
M  V30 47 C 1.468340 -3.819619 5.446962 0
M  V30 48 C 0.185318 -5.328816 3.375154 0
M  V30 49 C -0.248547 -6.118425 2.188043 0
M  V30 50 C -1.496140 -2.356751 -1.803993 0
M  V30 51 H 2.844843 -1.345605 -0.333459 0
M  V30 52 H 3.714683 -0.206842 -1.498595 0
M  V30 53 H 2.233022 0.289892 -0.651426 0
M  V30 54 H 0.303958 -0.432428 -1.257329 0
M  V30 55 H 0.812047 -2.020916 -0.703174 0
M  V30 56 H -1.667536 -1.683400 -5.004351 0
M  V30 57 H 0.942463 -0.022620 -6.378273 0
M  V30 58 H 1.410770 2.368408 -7.010294 0
M  V30 59 H 0.344446 5.002064 -6.648903 0
M  V30 60 H -4.369636 2.523921 -5.110509 0
M  V30 61 H -6.430908 2.774961 -3.909310 0
M  V30 62 H -6.067144 6.333202 -1.161806 0
M  V30 63 H -4.603279 8.408703 -1.013172 0
M  V30 64 H -3.237781 7.569321 -1.995654 0
M  V30 65 H -4.432509 6.509666 0.705974 0
M  V30 66 H -3.160347 5.653812 -0.352263 0
M  V30 67 H -2.708829 5.808895 -2.932559 0
M  V30 68 H -2.542547 1.268183 -4.212780 0
M  V30 69 H 0.131315 -3.277882 -4.264763 0
M  V30 70 H 1.311759 -3.472744 -2.960525 0
M  V30 71 H -1.232875 -4.813411 -3.370821 0
M  V30 72 H -0.020361 -5.254032 -2.176556 0
M  V30 73 H -3.091178 -3.724331 -0.290492 0
M  V30 74 H -2.922062 -5.145414 -1.300179 0
M  V30 75 H 1.119333 -4.356718 -0.270709 0
M  V30 76 H 1.643477 -5.900861 0.415481 0
M  V30 77 H 2.422012 -3.584797 1.555674 0
M  V30 78 H 3.307788 -2.526630 3.022003 0
M  V30 79 H 4.290364 -1.337212 4.862302 0
M  V30 80 H 6.048358 0.771887 7.937494 0
M  V30 81 H 5.270945 0.437980 10.314390 0
M  V30 82 H 3.401804 -1.215506 10.660016 0
M  V30 83 H 1.669979 -3.291177 7.544575 0
M  V30 84 H 0.671700 -4.516532 5.665989 0
M  V30 85 H 0.577644 -6.046976 4.145978 0
M  V30 86 H -0.686008 -4.769443 3.818582 0
M  V30 87 H 0.459301 -6.954693 2.011529 0
M  V30 88 H -1.273844 -6.543256 2.435366 0
M  V30 89 H -2.440616 -2.061319 -2.296842 0
M  V30 90 H -1.499925 -1.862398 -0.811905 0
M  V30 END ATOM
M  V30 BEGIN BOND
M  V30 1 1 1 2
M  V30 2 1 2 3
M  V30 3 1 4 3 CFG=1
M  V30 4 1 4 5
M  V30 5 2 5 6
M  V30 6 1 5 7
M  V30 7 1 7 8
M  V30 8 2 8 9
M  V30 9 1 9 10
M  V30 10 2 10 11
M  V30 11 1 11 12
M  V30 12 1 12 13
M  V30 13 2 13 14
M  V30 14 1 14 15
M  V30 15 2 15 16
M  V30 16 1 16 17
M  V30 17 2 17 18
M  V30 18 1 18 19
M  V30 19 1 19 20
M  V30 20 1 20 21
M  V30 21 1 21 22
M  V30 22 2 19 23
M  V30 23 1 14 24
M  V30 24 2 24 25
M  V30 25 1 4 26
M  V30 26 1 26 27
M  V30 27 1 27 28
M  V30 28 1 28 29
M  V30 29 1 29 30
M  V30 30 2 30 31
M  V30 31 1 30 32
M  V30 32 1 32 33
M  V30 33 1 33 34
M  V30 34 2 34 35
M  V30 35 1 35 36
M  V30 36 2 36 37
M  V30 37 1 37 38
M  V30 38 2 38 39
M  V30 39 1 39 40
M  V30 40 2 40 41
M  V30 41 1 41 42
M  V30 42 2 42 43
M  V30 43 1 43 44
M  V30 44 2 44 45
M  V30 45 1 39 46
M  V30 46 2 46 47
M  V30 47 1 35 48
M  V30 48 1 48 49
M  V30 49 1 28 50
M  V30 50 1 50 4
M  V30 51 1 25 8
M  V30 52 1 49 32
M  V30 53 1 24 11
M  V30 54 1 47 36
M  V30 55 1 23 15
M  V30 56 1 45 40
M  V30 57 1 22 20
M  V30 58 1 1 51
M  V30 59 1 1 52
M  V30 60 1 1 53
M  V30 61 1 3 54
M  V30 62 1 3 55
M  V30 63 1 7 56
M  V30 64 1 9 57
M  V30 65 1 10 58
M  V30 66 1 12 59
M  V30 67 1 16 60
M  V30 68 1 17 61
M  V30 69 1 20 62
M  V30 70 1 21 63
M  V30 71 1 21 64
M  V30 72 1 22 65
M  V30 73 1 22 66
M  V30 74 1 23 67
M  V30 75 1 25 68
M  V30 76 1 26 69
M  V30 77 1 26 70
M  V30 78 1 27 71
M  V30 79 1 27 72
M  V30 80 1 29 73
M  V30 81 1 29 74
M  V30 82 1 33 75
M  V30 83 1 33 76
M  V30 84 1 34 77
M  V30 85 1 37 78
M  V30 86 1 38 79
M  V30 87 1 42 80
M  V30 88 1 43 81
M  V30 89 1 44 82
M  V30 90 1 46 83
M  V30 91 1 47 84
M  V30 92 1 48 85
M  V30 93 1 48 86
M  V30 94 1 49 87
M  V30 95 1 49 88
M  V30 96 1 50 89
M  V30 97 1 50 90
M  V30 END BOND
M  V30 END CTAB
M  END
>  <Dataset>  (725) 
ChEMBL_Kinases

>  <Ligand_Instance>  (725) 
nan

>  <PDB_ID>  (725) 
nan

>  <Standardized_SMILES>  (725) 
COC[C@@]1(C(=O)Nc2ccc3[nH]nc(-c4ccnc(C5CC5)c4)c3c2)CCN(CC(=O)N2CC=C(c3ccc(-c4ncccn4)cc3)CC2)C1

>  <Name>  (725) 
nan

>  <Pocket>  (725) 
nan

>  <ATP_Site>  (725) 
nan

>  <Peripheral>  (725) 
nan

>  <Num_H_Atoms_ProtBoundConf>  (725) 
nan

>  <Num_Resolved_Atoms>  (725) 
nan

>  <Num_Not_Resolved_Atoms>  (725) 
nan

$$$$
CHEMBL3645229
     RDKit          3D

  0  0  0  0  0  0  0  0  0  0999 V3000
M  V30 BEGIN CTAB
M  V30 COUNTS 86 92 0 0 0
M  V30 BEGIN ATOM
M  V30 1 C -5.223841 -3.516145 -0.936375 0
M  V30 2 O -4.402004 -2.512759 -1.264839 0
M  V30 3 C -3.177592 -2.671315 -1.799253 0
M  V30 4 C -2.250768 -3.488924 -0.974009 0 CFG=1
M  V30 5 C -2.096334 -2.925788 0.398664 0
M  V30 6 O -2.291348 -3.400293 1.520294 0
M  V30 7 N -1.635584 -1.588355 0.255396 0
M  V30 8 C -1.305835 -0.524798 1.139682 0
M  V30 9 C -0.022205 -0.350560 1.672059 0
M  V30 10 C 0.326600 0.678115 2.525937 0
M  V30 11 C -0.677426 1.564867 2.849023 0
M  V30 12 N -0.689608 2.673604 3.646917 0
M  V30 13 N -1.908142 3.230619 3.663247 0
M  V30 14 C -2.743408 2.498624 2.869341 0
M  V30 15 C -4.152243 2.805525 2.638556 0
M  V30 16 C -4.902703 3.135031 3.761697 0
M  V30 17 C -6.252717 3.450585 3.647812 0
M  V30 18 N -6.821786 3.433271 2.444760 0
M  V30 19 C -6.116061 3.117463 1.343125 0
M  V30 20 C -6.817488 3.119221 0.030888 0
M  V30 21 F -7.568803 4.279113 -0.048326 0
M  V30 22 F -7.677472 2.046371 -0.094893 0
M  V30 23 F -5.924116 3.042112 -1.030250 0
M  V30 24 C -4.757280 2.792253 1.398573 0
M  V30 25 C -1.964284 1.476673 2.378020 0
M  V30 26 C -2.247568 0.433202 1.534299 0
M  V30 27 C -2.485563 -4.934136 -1.077248 0
M  V30 28 C -1.948035 -5.214274 -2.496601 0
M  V30 29 N -0.727025 -4.463159 -2.576964 0
M  V30 30 C -0.564923 -3.835480 -3.894419 0
M  V30 31 C 0.828581 -3.341233 -3.966907 0
M  V30 32 O 0.806569 -2.769736 -5.103173 0
M  V30 33 N 2.103591 -3.276377 -3.279989 0
M  V30 34 C 2.625079 -3.813732 -2.030812 0
M  V30 35 C 3.086614 -2.782417 -1.105528 0
M  V30 36 C 3.562198 -1.647462 -1.579307 0
M  V30 37 C 4.035299 -0.592455 -0.695646 0
M  V30 38 C 4.015260 -0.671162 0.670030 0
M  V30 39 C 4.466220 0.294558 1.527823 0
M  V30 40 C 4.994683 1.464465 1.026810 0
M  V30 41 C 5.477522 2.486062 1.936198 0
M  V30 42 N 6.012193 3.660991 1.585200 0
M  V30 43 C 6.461669 4.602647 2.419151 0
M  V30 44 C 6.366161 4.338361 3.765335 0
M  V30 45 C 5.827707 3.152371 4.159891 0
M  V30 46 N 5.406091 2.275039 3.260353 0
M  V30 47 C 5.030100 1.578462 -0.345506 0
M  V30 48 C 4.569975 0.592328 -1.189569 0
M  V30 49 C 3.624250 -1.404883 -3.032621 0
M  V30 50 C 3.156711 -2.526212 -3.889967 0
M  V30 51 C -0.816498 -3.419509 -1.569560 0
M  V30 52 H -5.431173 -4.197476 -1.807597 0
M  V30 53 H -6.260938 -3.006975 -0.769049 0
M  V30 54 H -5.047833 -4.087017 -0.023895 0
M  V30 55 H -2.736038 -1.665017 -2.028229 0
M  V30 56 H -3.275675 -3.200870 -2.791146 0
M  V30 57 H -1.408309 -1.016015 -0.613126 0
M  V30 58 H 0.764247 -1.061581 1.406374 0
M  V30 59 H 1.323634 0.791824 2.923819 0
M  V30 60 H 0.128042 3.067806 4.192240 0
M  V30 61 H -4.488986 3.164037 4.765415 0
M  V30 62 H -6.908223 3.717507 4.463424 0
M  V30 63 H -4.170829 2.536102 0.531248 0
M  V30 64 H -3.261325 0.320251 1.134038 0
M  V30 65 H -1.766508 -5.453580 -0.390319 0
M  V30 66 H -3.487945 -5.335285 -0.994241 0
M  V30 67 H -2.680295 -5.045672 -3.274903 0
M  V30 68 H -1.623773 -6.299287 -2.461868 0
M  V30 69 H -0.783996 -4.592031 -4.664363 0
M  V30 70 H -1.270629 -2.983668 -3.979913 0
M  V30 71 H 3.492155 -4.477083 -2.371545 0
M  V30 72 H 1.871998 -4.450650 -1.528515 0
M  V30 73 H 3.019853 -2.992196 -0.063534 0
M  V30 74 H 3.623502 -1.541632 1.174728 0
M  V30 75 H 4.433375 0.196568 2.607585 0
M  V30 76 H 6.864941 5.492356 1.990903 0
M  V30 77 H 6.716108 5.066778 4.477146 0
M  V30 78 H 5.713343 2.862882 5.188717 0
M  V30 79 H 5.447362 2.504853 -0.731337 0
M  V30 80 H 4.601882 0.690629 -2.273948 0
M  V30 81 H 4.682425 -1.118513 -3.305862 0
M  V30 82 H 3.046909 -0.454877 -3.248193 0
M  V30 83 H 2.856388 -2.131335 -4.885220 0
M  V30 84 H 4.022505 -3.231189 -4.063807 0
M  V30 85 H -0.177268 -3.723751 -0.719986 0
M  V30 86 H -0.555858 -2.424662 -1.904984 0
M  V30 END ATOM
M  V30 BEGIN BOND
M  V30 1 1 1 2
M  V30 2 1 2 3
M  V30 3 1 4 3 CFG=3
M  V30 4 1 4 5
M  V30 5 2 5 6
M  V30 6 1 5 7
M  V30 7 1 7 8
M  V30 8 2 8 9
M  V30 9 1 9 10
M  V30 10 2 10 11
M  V30 11 1 11 12
M  V30 12 1 12 13
M  V30 13 2 13 14
M  V30 14 1 14 15
M  V30 15 2 15 16
M  V30 16 1 16 17
M  V30 17 2 17 18
M  V30 18 1 18 19
M  V30 19 1 19 20
M  V30 20 1 20 21
M  V30 21 1 20 22
M  V30 22 1 20 23
M  V30 23 2 19 24
M  V30 24 1 14 25
M  V30 25 2 25 26
M  V30 26 1 4 27
M  V30 27 1 27 28
M  V30 28 1 28 29
M  V30 29 1 29 30
M  V30 30 1 30 31
M  V30 31 2 31 32
M  V30 32 1 31 33
M  V30 33 1 33 34
M  V30 34 1 34 35
M  V30 35 2 35 36
M  V30 36 1 36 37
M  V30 37 2 37 38
M  V30 38 1 38 39
M  V30 39 2 39 40
M  V30 40 1 40 41
M  V30 41 2 41 42
M  V30 42 1 42 43
M  V30 43 2 43 44
M  V30 44 1 44 45
M  V30 45 2 45 46
M  V30 46 1 40 47
M  V30 47 2 47 48
M  V30 48 1 36 49
M  V30 49 1 49 50
M  V30 50 1 29 51
M  V30 51 1 51 4
M  V30 52 1 26 8
M  V30 53 1 50 33
M  V30 54 1 25 11
M  V30 55 1 48 37
M  V30 56 1 24 15
M  V30 57 1 46 41
M  V30 58 1 1 52
M  V30 59 1 1 53
M  V30 60 1 1 54
M  V30 61 1 3 55
M  V30 62 1 3 56
M  V30 63 1 7 57
M  V30 64 1 9 58
M  V30 65 1 10 59
M  V30 66 1 12 60
M  V30 67 1 16 61
M  V30 68 1 17 62
M  V30 69 1 24 63
M  V30 70 1 26 64
M  V30 71 1 27 65
M  V30 72 1 27 66
M  V30 73 1 28 67
M  V30 74 1 28 68
M  V30 75 1 30 69
M  V30 76 1 30 70
M  V30 77 1 34 71
M  V30 78 1 34 72
M  V30 79 1 35 73
M  V30 80 1 38 74
M  V30 81 1 39 75
M  V30 82 1 43 76
M  V30 83 1 44 77
M  V30 84 1 45 78
M  V30 85 1 47 79
M  V30 86 1 48 80
M  V30 87 1 49 81
M  V30 88 1 49 82
M  V30 89 1 50 83
M  V30 90 1 50 84
M  V30 91 1 51 85
M  V30 92 1 51 86
M  V30 END BOND
M  V30 END CTAB
M  END
>  <Dataset>  (726) 
ChEMBL_Kinases

>  <Ligand_Instance>  (726) 
nan

>  <PDB_ID>  (726) 
nan

>  <Standardized_SMILES>  (726) 
COC[C@@]1(C(=O)Nc2ccc3[nH]nc(-c4ccnc(C(F)(F)F)c4)c3c2)CCN(CC(=O)N2CC=C(c3ccc(-c4ncccn4)cc3)CC2)C1

>  <Name>  (726) 
nan

>  <Pocket>  (726) 
nan

>  <ATP_Site>  (726) 
nan

>  <Peripheral>  (726) 
nan

>  <Num_H_Atoms_ProtBoundConf>  (726) 
nan

>  <Num_Resolved_Atoms>  (726) 
nan

>  <Num_Not_Resolved_Atoms>  (726) 
nan

$$$$
CHEMBL3645230
     RDKit          3D

  0  0  0  0  0  0  0  0  0  0999 V3000
M  V30 BEGIN CTAB
M  V30 COUNTS 87 94 0 0 0
M  V30 BEGIN ATOM
M  V30 1 C 2.025439 -6.047882 -3.481636 0
M  V30 2 O 1.962511 -4.700591 -3.621698 0
M  V30 3 C 0.735979 -4.108725 -3.642458 0 CFG=1
M  V30 4 C 0.973200 -2.643262 -3.810243 0
M  V30 5 O 0.380459 -1.520529 -3.952089 0
M  V30 6 N 2.317754 -2.088762 -3.851022 0
M  V30 7 C 1.988763 -0.688709 -4.027542 0
M  V30 8 C 1.923078 -0.398244 -5.388229 0
M  V30 9 C 1.610978 0.883187 -5.811524 0
M  V30 10 C 1.371319 1.845756 -4.875909 0
M  V30 11 N 1.048579 3.153666 -4.879737 0
M  V30 12 N 0.919128 3.657027 -3.661655 0
M  V30 13 C 1.161710 2.660005 -2.792527 0
M  V30 14 C 1.118176 2.816670 -1.364601 0
M  V30 15 C 2.080902 2.303839 -0.496503 0
M  V30 16 C 1.902825 2.542966 0.847823 0
M  V30 17 N 0.848227 3.240408 1.310716 0
M  V30 18 C -0.103178 3.752876 0.510293 0
M  V30 19 C -1.240837 4.518180 1.085012 0
M  V30 20 C -2.613714 4.089966 0.552119 0
M  V30 21 C -1.999792 5.457776 0.217246 0
M  V30 22 C 0.039072 3.535383 -0.836367 0
M  V30 23 C 1.441830 1.537098 -3.539861 0
M  V30 24 C 1.746679 0.285526 -3.085732 0
M  V30 25 C -0.117917 -4.487905 -4.860644 0
M  V30 26 C -1.434065 -3.868696 -4.382683 0
M  V30 27 N -1.538304 -4.158767 -2.995185 0
M  V30 28 C -2.097431 -3.103608 -2.173269 0
M  V30 29 C -2.318261 -3.608599 -0.764778 0
M  V30 30 O -2.014504 -4.834958 -0.577725 0
M  V30 31 N -2.827949 -2.762154 0.256692 0
M  V30 32 C -3.208659 -1.339861 0.342128 0
M  V30 33 C -2.229245 -0.767540 1.329261 0
M  V30 34 C -2.137527 -1.334567 2.530606 0
M  V30 35 C -1.228787 -0.866617 3.557089 0
M  V30 36 C -1.142464 -1.424439 4.812641 0
M  V30 37 C -0.285391 -0.991870 5.798452 0
M  V30 38 C 0.556123 0.051292 5.577088 0
M  V30 39 C 1.458256 0.516175 6.617323 0
M  V30 40 N 2.312913 1.535220 6.462891 0
M  V30 41 C 3.150080 1.988369 7.405978 0
M  V30 42 C 3.126989 1.343607 8.649136 0
M  V30 43 C 2.247758 0.282234 8.834467 0
M  V30 44 N 1.445485 -0.100212 7.827299 0
M  V30 45 C 0.527948 0.670718 4.323729 0
M  V30 46 C -0.354302 0.181526 3.394473 0
M  V30 47 C -3.050093 -2.479279 2.713739 0
M  V30 48 C -3.072741 -3.393390 1.534945 0
M  V30 49 C -0.173138 -4.472823 -2.530657 0
M  V30 50 H 1.599584 -6.496142 -2.584638 0
M  V30 51 H 3.127931 -6.309301 -3.431376 0
M  V30 52 H 1.697200 -6.520677 -4.433933 0
M  V30 53 H 3.189399 -2.705406 -3.758314 0
M  V30 54 H 2.094772 -1.089309 -6.220732 0
M  V30 55 H 1.538035 1.199705 -6.841156 0
M  V30 56 H 0.907328 3.741155 -5.729733 0
M  V30 57 H 2.929486 1.738345 -0.915335 0
M  V30 58 H 2.647736 2.145579 1.508774 0
M  V30 59 H -1.202756 4.679099 2.184306 0
M  V30 60 H -2.630647 3.313619 -0.256834 0
M  V30 61 H -3.449268 4.067994 1.276846 0
M  V30 62 H -1.676031 5.631649 -0.821646 0
M  V30 63 H -2.503469 6.317756 0.733601 0
M  V30 64 H -0.736537 3.951579 -1.498491 0
M  V30 65 H 1.830348 -0.069176 -2.081949 0
M  V30 66 H -0.194149 -5.578623 -4.957788 0
M  V30 67 H 0.262916 -3.964812 -5.745202 0
M  V30 68 H -1.419646 -2.787932 -4.592828 0
M  V30 69 H -2.233931 -4.368738 -4.980912 0
M  V30 70 H -3.045953 -2.709523 -2.575738 0
M  V30 71 H -1.317676 -2.329480 -2.046191 0
M  V30 72 H -4.249813 -1.237370 0.686706 0
M  V30 73 H -3.094385 -0.807415 -0.601013 0
M  V30 74 H -1.620068 0.079859 1.066754 0
M  V30 75 H -1.761374 -2.257005 5.106584 0
M  V30 76 H -0.246360 -1.459146 6.779918 0
M  V30 77 H 3.843675 2.801027 7.308987 0
M  V30 78 H 3.760404 1.644705 9.452181 0
M  V30 79 H 2.232448 -0.205568 9.780497 0
M  V30 80 H 1.195781 1.489916 4.162638 0
M  V30 81 H -0.305036 0.724168 2.451612 0
M  V30 82 H -4.088663 -2.078348 2.931911 0
M  V30 83 H -2.808373 -3.074832 3.634785 0
M  V30 84 H -4.145974 -3.764458 1.463529 0
M  V30 85 H -2.491965 -4.338359 1.676537 0
M  V30 86 H -0.184937 -5.581081 -2.453784 0
M  V30 87 H 0.037299 -3.963617 -1.571402 0
M  V30 END ATOM
M  V30 BEGIN BOND
M  V30 1 1 1 2
M  V30 2 1 3 2 CFG=1
M  V30 3 1 3 4
M  V30 4 2 4 5
M  V30 5 1 4 6
M  V30 6 1 6 7
M  V30 7 2 7 8
M  V30 8 1 8 9
M  V30 9 2 9 10
M  V30 10 1 10 11
M  V30 11 1 11 12
M  V30 12 2 12 13
M  V30 13 1 13 14
M  V30 14 2 14 15
M  V30 15 1 15 16
M  V30 16 2 16 17
M  V30 17 1 17 18
M  V30 18 1 18 19
M  V30 19 1 19 20
M  V30 20 1 20 21
M  V30 21 2 18 22
M  V30 22 1 13 23
M  V30 23 2 23 24
M  V30 24 1 3 25
M  V30 25 1 25 26
M  V30 26 1 26 27
M  V30 27 1 27 28
M  V30 28 1 28 29
M  V30 29 2 29 30
M  V30 30 1 29 31
M  V30 31 1 31 32
M  V30 32 1 32 33
M  V30 33 2 33 34
M  V30 34 1 34 35
M  V30 35 2 35 36
M  V30 36 1 36 37
M  V30 37 2 37 38
M  V30 38 1 38 39
M  V30 39 2 39 40
M  V30 40 1 40 41
M  V30 41 2 41 42
M  V30 42 1 42 43
M  V30 43 2 43 44
M  V30 44 1 38 45
M  V30 45 2 45 46
M  V30 46 1 34 47
M  V30 47 1 47 48
M  V30 48 1 27 49
M  V30 49 1 49 3
M  V30 50 1 24 7
M  V30 51 1 48 31
M  V30 52 1 23 10
M  V30 53 1 46 35
M  V30 54 1 22 14
M  V30 55 1 44 39
M  V30 56 1 21 19
M  V30 57 1 1 50
M  V30 58 1 1 51
M  V30 59 1 1 52
M  V30 60 1 6 53
M  V30 61 1 8 54
M  V30 62 1 9 55
M  V30 63 1 11 56
M  V30 64 1 15 57
M  V30 65 1 16 58
M  V30 66 1 19 59
M  V30 67 1 20 60
M  V30 68 1 20 61
M  V30 69 1 21 62
M  V30 70 1 21 63
M  V30 71 1 22 64
M  V30 72 1 24 65
M  V30 73 1 25 66
M  V30 74 1 25 67
M  V30 75 1 26 68
M  V30 76 1 26 69
M  V30 77 1 28 70
M  V30 78 1 28 71
M  V30 79 1 32 72
M  V30 80 1 32 73
M  V30 81 1 33 74
M  V30 82 1 36 75
M  V30 83 1 37 76
M  V30 84 1 41 77
M  V30 85 1 42 78
M  V30 86 1 43 79
M  V30 87 1 45 80
M  V30 88 1 46 81
M  V30 89 1 47 82
M  V30 90 1 47 83
M  V30 91 1 48 84
M  V30 92 1 48 85
M  V30 93 1 49 86
M  V30 94 1 49 87
M  V30 END BOND
M  V30 END CTAB
M  END
>  <Dataset>  (727) 
ChEMBL_Kinases

>  <Ligand_Instance>  (727) 
nan

>  <PDB_ID>  (727) 
nan

>  <Standardized_SMILES>  (727) 
CO[C@@]1(C(=O)Nc2ccc3[nH]nc(-c4ccnc(C5CC5)c4)c3c2)CCN(CC(=O)N2CC=C(c3ccc(-c4ncccn4)cc3)CC2)C1

>  <Name>  (727) 
nan

>  <Pocket>  (727) 
nan

>  <ATP_Site>  (727) 
nan

>  <Peripheral>  (727) 
nan

>  <Num_H_Atoms_ProtBoundConf>  (727) 
nan

>  <Num_Resolved_Atoms>  (727) 
nan

>  <Num_Not_Resolved_Atoms>  (727) 
nan

$$$$
CHEMBL3645232
     RDKit          3D

  0  0  0  0  0  0  0  0  0  0999 V3000
M  V30 BEGIN CTAB
M  V30 COUNTS 83 89 0 0 0
M  V30 BEGIN ATOM
M  V30 1 C 0.354295 -0.914518 0.936875 0
M  V30 2 O -0.925839 -0.824805 0.490961 0
M  V30 3 C -1.896333 -1.152573 1.423717 0 CFG=1
M  V30 4 C -1.849271 -0.075178 2.480173 0
M  V30 5 O -2.480714 -0.281355 3.564063 0
M  V30 6 N -1.128259 1.125970 2.267596 0
M  V30 7 C -0.833561 2.324045 2.958622 0
M  V30 8 C 0.296748 2.151741 3.770447 0
M  V30 9 C 0.814485 3.182894 4.564519 0
M  V30 10 C 0.150671 4.382969 4.504085 0
M  V30 11 N 0.325033 5.587814 5.094602 0
M  V30 12 N -0.579525 6.478905 4.729866 0
M  V30 13 C -1.402862 5.860455 3.857992 0
M  V30 14 C -2.553756 6.514056 3.204955 0
M  V30 15 C -3.833811 6.047038 3.017441 0
M  V30 16 C -4.755136 6.844825 2.374841 0
M  V30 17 N -4.413045 8.067222 1.932607 0
M  V30 18 C -3.203773 8.585516 2.075832 0
M  V30 19 C -2.824695 9.925485 1.609234 0
M  V30 20 C -2.258591 7.798366 2.720735 0
M  V30 21 C -0.961740 4.564873 3.710584 0
M  V30 22 C -1.451451 3.556961 2.947809 0
M  V30 23 C -3.265811 -1.094841 0.838351 0
M  V30 24 C -3.884492 -2.469679 1.031105 0
M  V30 25 N -2.832539 -3.273310 1.455004 0
M  V30 26 C -2.572665 -4.537387 0.931112 0
M  V30 27 C -2.149851 -4.555131 -0.480491 0
M  V30 28 O -2.286254 -3.311515 -0.608701 0
M  V30 29 N -1.705174 -4.974273 -1.765004 0
M  V30 30 C -1.585216 -3.938233 -2.774531 0
M  V30 31 C -0.127117 -3.717730 -2.956679 0
M  V30 32 C 0.583755 -4.830047 -3.016355 0
M  V30 33 C 2.012411 -4.646482 -3.192814 0
M  V30 34 C 2.877611 -5.720511 -3.289437 0
M  V30 35 C 4.250838 -5.660596 -3.453387 0
M  V30 36 C 4.817005 -4.403312 -3.528364 0
M  V30 37 C 6.261988 -4.233015 -3.701556 0
M  V30 38 N 7.139566 -5.271881 -3.817462 0
M  V30 39 C 8.447612 -5.026646 -3.968800 0
M  V30 40 C 8.989101 -3.777611 -4.017217 0
M  V30 41 C 8.071401 -2.759943 -3.895759 0
M  V30 42 N 6.777383 -3.011782 -3.746115 0
M  V30 43 C 4.003624 -3.271372 -3.438139 0
M  V30 44 C 2.646704 -3.448229 -3.276093 0
M  V30 45 C 0.034266 -6.207090 -2.918646 0
M  V30 46 C -1.325323 -6.279354 -2.260288 0
M  V30 47 C -1.768502 -2.506438 2.013379 0
M  V30 48 H 0.670739 -0.361385 1.808639 0
M  V30 49 H 0.998862 -0.616649 0.029784 0
M  V30 50 H 0.701619 -1.976364 1.104463 0
M  V30 51 H -0.632961 1.388747 1.392568 0
M  V30 52 H 0.879183 1.221121 3.869007 0
M  V30 53 H 1.682019 3.059150 5.192512 0
M  V30 54 H 1.084796 5.813409 5.773855 0
M  V30 55 H -3.946870 5.042561 3.431774 0
M  V30 56 H -5.733644 6.367903 2.288030 0
M  V30 57 H -1.728550 10.097269 1.762663 0
M  V30 58 H -3.353091 10.681542 2.261951 0
M  V30 59 H -3.020468 10.057346 0.536938 0
M  V30 60 H -1.252702 8.234553 2.835320 0
M  V30 61 H -2.299566 3.592078 2.302913 0
M  V30 62 H -3.293583 -0.785362 -0.227012 0
M  V30 63 H -3.912751 -0.367724 1.363611 0
M  V30 64 H -4.440076 -2.799342 0.131791 0
M  V30 65 H -4.667275 -2.440144 1.839393 0
M  V30 66 H -1.881127 -5.171571 1.530232 0
M  V30 67 H -3.542225 -5.126917 0.959221 0
M  V30 68 H -1.973843 -4.319524 -3.746291 0
M  V30 69 H -2.137727 -3.007701 -2.478671 0
M  V30 70 H 0.152571 -2.699929 -3.015761 0
M  V30 71 H 2.519249 -6.757663 -3.243333 0
M  V30 72 H 4.884668 -6.527186 -3.525747 0
M  V30 73 H 9.127713 -5.878914 -4.062520 0
M  V30 74 H 10.032806 -3.520704 -4.136009 0
M  V30 75 H 8.415250 -1.713566 -3.921996 0
M  V30 76 H 4.493106 -2.292851 -3.496085 0
M  V30 77 H 2.119571 -2.526226 -3.221351 0
M  V30 78 H 0.726038 -6.834828 -2.308843 0
M  V30 79 H -0.023375 -6.601830 -3.966291 0
M  V30 80 H -2.073760 -6.566804 -3.042433 0
M  V30 81 H -1.339719 -7.071083 -1.477427 0
M  V30 82 H -0.786620 -3.010352 1.849273 0
M  V30 83 H -1.970994 -2.424027 3.114568 0
M  V30 END ATOM
M  V30 BEGIN BOND
M  V30 1 1 1 2
M  V30 2 1 3 2 CFG=3
M  V30 3 1 3 4
M  V30 4 2 4 5
M  V30 5 1 4 6
M  V30 6 1 6 7
M  V30 7 2 7 8
M  V30 8 1 8 9
M  V30 9 2 9 10
M  V30 10 1 10 11
M  V30 11 1 11 12
M  V30 12 2 12 13
M  V30 13 1 13 14
M  V30 14 2 14 15
M  V30 15 1 15 16
M  V30 16 2 16 17
M  V30 17 1 17 18
M  V30 18 1 18 19
M  V30 19 2 18 20
M  V30 20 1 13 21
M  V30 21 2 21 22
M  V30 22 1 3 23
M  V30 23 1 23 24
M  V30 24 1 24 25
M  V30 25 1 25 26
M  V30 26 1 26 27
M  V30 27 2 27 28
M  V30 28 1 27 29
M  V30 29 1 29 30
M  V30 30 1 30 31
M  V30 31 2 31 32
M  V30 32 1 32 33
M  V30 33 2 33 34
M  V30 34 1 34 35
M  V30 35 2 35 36
M  V30 36 1 36 37
M  V30 37 2 37 38
M  V30 38 1 38 39
M  V30 39 2 39 40
M  V30 40 1 40 41
M  V30 41 2 41 42
M  V30 42 1 36 43
M  V30 43 2 43 44
M  V30 44 1 32 45
M  V30 45 1 45 46
M  V30 46 1 25 47
M  V30 47 1 47 3
M  V30 48 1 22 7
M  V30 49 1 46 29
M  V30 50 1 21 10
M  V30 51 1 44 33
M  V30 52 1 20 14
M  V30 53 1 42 37
M  V30 54 1 1 48
M  V30 55 1 1 49
M  V30 56 1 1 50
M  V30 57 1 6 51
M  V30 58 1 8 52
M  V30 59 1 9 53
M  V30 60 1 11 54
M  V30 61 1 15 55
M  V30 62 1 16 56
M  V30 63 1 19 57
M  V30 64 1 19 58
M  V30 65 1 19 59
M  V30 66 1 20 60
M  V30 67 1 22 61
M  V30 68 1 23 62
M  V30 69 1 23 63
M  V30 70 1 24 64
M  V30 71 1 24 65
M  V30 72 1 26 66
M  V30 73 1 26 67
M  V30 74 1 30 68
M  V30 75 1 30 69
M  V30 76 1 31 70
M  V30 77 1 34 71
M  V30 78 1 35 72
M  V30 79 1 39 73
M  V30 80 1 40 74
M  V30 81 1 41 75
M  V30 82 1 43 76
M  V30 83 1 44 77
M  V30 84 1 45 78
M  V30 85 1 45 79
M  V30 86 1 46 80
M  V30 87 1 46 81
M  V30 88 1 47 82
M  V30 89 1 47 83
M  V30 END BOND
M  V30 END CTAB
M  END
>  <Dataset>  (728) 
ChEMBL_Kinases

>  <Ligand_Instance>  (728) 
nan

>  <PDB_ID>  (728) 
nan

>  <Standardized_SMILES>  (728) 
CO[C@@]1(C(=O)Nc2ccc3[nH]nc(-c4ccnc(C)c4)c3c2)CCN(CC(=O)N2CC=C(c3ccc(-c4ncccn4)cc3)CC2)C1

>  <Name>  (728) 
nan

>  <Pocket>  (728) 
nan

>  <ATP_Site>  (728) 
nan

>  <Peripheral>  (728) 
nan

>  <Num_H_Atoms_ProtBoundConf>  (728) 
nan

>  <Num_Resolved_Atoms>  (728) 
nan

>  <Num_Not_Resolved_Atoms>  (728) 
nan

$$$$
CHEMBL3645234
     RDKit          3D

  0  0  0  0  0  0  0  0  0  0999 V3000
M  V30 BEGIN CTAB
M  V30 COUNTS 86 92 0 0 0
M  V30 BEGIN ATOM
M  V30 1 C 1.523069 -6.596330 -0.079810 0
M  V30 2 C 2.737352 -6.934382 -0.905211 0
M  V30 3 N 2.411445 -6.978476 -2.323754 0
M  V30 4 C 1.784326 -5.890947 -3.029886 0
M  V30 5 N 1.942205 -5.212874 -4.182937 0
M  V30 6 N 0.960583 -4.304432 -4.185674 0
M  V30 7 C 0.233607 -4.431779 -3.070155 0
M  V30 8 C -0.932820 -3.654925 -2.635018 0
M  V30 9 C -1.521215 -2.637111 -3.375095 0
M  V30 10 C -2.607706 -1.923558 -2.857656 0
M  V30 11 C -3.146876 -2.168536 -1.627722 0
M  V30 12 C -4.222017 -1.318096 -1.166817 0
M  V30 13 C -4.734208 -1.601679 0.039209 0
M  V30 14 C -5.843975 -0.618362 0.395732 0
M  V30 15 N -5.134017 0.677421 0.226578 0
M  V30 16 C -4.556818 1.215098 1.393913 0
M  V30 17 O -4.904979 0.448603 2.352316 0
M  V30 18 C -3.730706 2.288130 1.908606 0
M  V30 19 N -3.227235 3.186420 0.884921 0
M  V30 20 C -2.424190 4.192497 1.535237 0
M  V30 21 C -0.973604 3.873223 1.237608 0
M  V30 22 C -0.978380 2.998620 0.031641 0 CFG=1
M  V30 23 O -0.542590 3.674438 -1.112141 0
M  V30 24 C -1.304989 4.776581 -1.428687 0
M  V30 25 C -0.084578 1.802038 0.159909 0
M  V30 26 O 0.552938 2.075583 -0.892190 0
M  V30 27 N -0.030767 0.778173 1.135357 0
M  V30 28 C 0.988062 -0.177122 0.865483 0
M  V30 29 C 0.876591 -1.344859 0.166683 0
M  V30 30 C 1.949725 -2.215962 -0.052954 0
M  V30 31 C 3.170181 -1.838936 0.481370 0
M  V30 32 N 4.362318 -2.451373 0.440740 0
M  V30 33 N 5.280503 -1.722387 1.097197 0
M  V30 34 C 4.695201 -0.617411 1.577015 0
M  V30 35 C 5.333622 0.443956 2.339015 0
M  V30 36 C 6.186623 0.332685 3.406507 0
M  V30 37 C 6.718708 1.481876 4.009722 0
M  V30 38 C 6.395910 2.739717 3.545080 0
M  V30 39 F 6.914897 3.854728 4.130981 0
M  V30 40 C 5.538512 2.857995 2.471435 0
M  V30 41 C 5.021519 1.721554 1.885777 0
M  V30 42 C 3.364340 -0.679222 1.197142 0
M  V30 43 C 2.257877 0.121072 1.368221 0
M  V30 44 C -2.406321 2.526810 -0.072262 0
M  V30 45 C -5.261630 0.968771 -1.197971 0
M  V30 46 C -4.729507 -0.207510 -2.008378 0
M  V30 47 C -2.566123 -3.177748 -0.896643 0
M  V30 48 F -2.954781 -3.559527 0.312503 0
M  V30 49 C -1.498187 -3.877748 -1.410330 0
M  V30 50 O 0.765304 -5.403451 -2.401094 0
M  V30 51 H 1.542940 -7.150863 0.892272 0
M  V30 52 H 0.564759 -6.805076 -0.549229 0
M  V30 53 H 1.520165 -5.507544 0.211464 0
M  V30 54 H 3.080369 -7.959919 -0.599598 0
M  V30 55 H 3.596883 -6.280189 -0.743209 0
M  V30 56 H 2.611198 -7.815387 -2.949186 0
M  V30 57 H -1.074235 -2.466396 -4.345109 0
M  V30 58 H -2.903751 -1.197682 -3.600993 0
M  V30 59 H -4.532393 -2.343166 0.760353 0
M  V30 60 H -6.126480 -0.719439 1.457517 0
M  V30 61 H -6.691697 -0.674590 -0.264197 0
M  V30 62 H -2.856870 1.863661 2.441534 0
M  V30 63 H -4.247241 2.911498 2.684049 0
M  V30 64 H -2.540116 4.122183 2.627326 0
M  V30 65 H -2.694219 5.219789 1.230355 0
M  V30 66 H -0.474855 3.395178 2.117286 0
M  V30 67 H -0.444258 4.814605 1.022074 0
M  V30 68 H -2.365469 4.584637 -1.636354 0
M  V30 69 H -0.896596 5.158636 -2.416697 0
M  V30 70 H -1.276847 5.591560 -0.669784 0
M  V30 71 H -0.752897 0.925467 1.865356 0
M  V30 72 H -0.101362 -1.574383 -0.222743 0
M  V30 73 H 1.773820 -3.114979 -0.617297 0
M  V30 74 H 4.601341 -3.374166 -0.025651 0
M  V30 75 H 6.399207 -0.668147 3.717935 0
M  V30 76 H 7.389561 1.362519 4.847725 0
M  V30 77 H 5.306476 3.862242 2.134113 0
M  V30 78 H 4.362724 1.957207 1.046030 0
M  V30 79 H 2.379764 1.029652 1.930762 0
M  V30 80 H -2.445462 1.426616 0.194357 0
M  V30 81 H -2.681443 2.679139 -1.133463 0
M  V30 82 H -4.844173 1.919401 -1.510386 0
M  V30 83 H -6.371245 1.013367 -1.406561 0
M  V30 84 H -5.574249 -0.662541 -2.603937 0
M  V30 85 H -3.946769 0.131829 -2.696255 0
M  V30 86 H -1.046302 -4.673962 -0.825997 0
M  V30 END ATOM
M  V30 BEGIN BOND
M  V30 1 1 1 2
M  V30 2 1 2 3
M  V30 3 1 3 4
M  V30 4 2 4 5
M  V30 5 1 5 6
M  V30 6 2 6 7
M  V30 7 1 7 8
M  V30 8 2 8 9
M  V30 9 1 9 10
M  V30 10 2 10 11
M  V30 11 1 11 12
M  V30 12 2 12 13
M  V30 13 1 13 14
M  V30 14 1 14 15
M  V30 15 1 15 16
M  V30 16 2 16 17
M  V30 17 1 16 18
M  V30 18 1 18 19
M  V30 19 1 19 20
M  V30 20 1 20 21
M  V30 21 1 21 22
M  V30 22 1 22 23 CFG=3
M  V30 23 1 23 24
M  V30 24 1 22 25
M  V30 25 2 25 26
M  V30 26 1 25 27
M  V30 27 1 27 28
M  V30 28 2 28 29
M  V30 29 1 29 30
M  V30 30 2 30 31
M  V30 31 1 31 32
M  V30 32 1 32 33
M  V30 33 2 33 34
M  V30 34 1 34 35
M  V30 35 2 35 36
M  V30 36 1 36 37
M  V30 37 2 37 38
M  V30 38 1 38 39
M  V30 39 1 38 40
M  V30 40 2 40 41
M  V30 41 1 34 42
M  V30 42 2 42 43
M  V30 43 1 22 44
M  V30 44 1 15 45
M  V30 45 1 45 46
M  V30 46 1 11 47
M  V30 47 1 47 48
M  V30 48 2 47 49
M  V30 49 1 7 50
M  V30 50 1 50 4
M  V30 51 1 49 8
M  V30 52 1 46 12
M  V30 53 1 44 19
M  V30 54 1 43 28
M  V30 55 1 42 31
M  V30 56 1 41 35
M  V30 57 1 1 51
M  V30 58 1 1 52
M  V30 59 1 1 53
M  V30 60 1 2 54
M  V30 61 1 2 55
M  V30 62 1 3 56
M  V30 63 1 9 57
M  V30 64 1 10 58
M  V30 65 1 13 59
M  V30 66 1 14 60
M  V30 67 1 14 61
M  V30 68 1 18 62
M  V30 69 1 18 63
M  V30 70 1 20 64
M  V30 71 1 20 65
M  V30 72 1 21 66
M  V30 73 1 21 67
M  V30 74 1 24 68
M  V30 75 1 24 69
M  V30 76 1 24 70
M  V30 77 1 27 71
M  V30 78 1 29 72
M  V30 79 1 30 73
M  V30 80 1 32 74
M  V30 81 1 36 75
M  V30 82 1 37 76
M  V30 83 1 40 77
M  V30 84 1 41 78
M  V30 85 1 43 79
M  V30 86 1 44 80
M  V30 87 1 44 81
M  V30 88 1 45 82
M  V30 89 1 45 83
M  V30 90 1 46 84
M  V30 91 1 46 85
M  V30 92 1 49 86
M  V30 END BOND
M  V30 END CTAB
M  END
>  <Dataset>  (729) 
ChEMBL_Kinases

>  <Ligand_Instance>  (729) 
nan

>  <PDB_ID>  (729) 
nan

>  <Standardized_SMILES>  (729) 
CCNc1nnc(-c2ccc(C3=CCN(C(=O)CN4CC[C@@](OC)(C(=O)Nc5ccc6[nH]nc(-c7ccc(F)cc7)c6c5)C4)CC3)c(F)c2)o1

>  <Name>  (729) 
nan

>  <Pocket>  (729) 
nan

>  <ATP_Site>  (729) 
nan

>  <Peripheral>  (729) 
nan

>  <Num_H_Atoms_ProtBoundConf>  (729) 
nan

>  <Num_Resolved_Atoms>  (729) 
nan

>  <Num_Not_Resolved_Atoms>  (729) 
nan

$$$$
CHEMBL3645236
     RDKit          3D

  0  0  0  0  0  0  0  0  0  0999 V3000
M  V30 BEGIN CTAB
M  V30 COUNTS 81 87 0 0 0
M  V30 BEGIN ATOM
M  V30 1 C -1.085489 -6.957407 2.237222 0
M  V30 2 O -0.580268 -6.699602 0.997532 0
M  V30 3 C -0.250764 -5.419183 0.685477 0 CFG=1
M  V30 4 C 0.854002 -4.800860 1.450340 0
M  V30 5 O 0.925863 -3.570656 1.074680 0
M  V30 6 N 1.820400 -5.107954 2.420254 0
M  V30 7 C 2.601797 -3.954789 2.715334 0
M  V30 8 C 3.728929 -3.829666 1.922385 0
M  V30 9 C 4.587378 -2.757037 2.091331 0
M  V30 10 C 4.271653 -1.832699 3.072035 0
M  V30 11 N 4.846003 -0.682013 3.528053 0
M  V30 12 N 4.127507 -0.165993 4.504524 0
M  V30 13 C 3.034710 -0.942132 4.755009 0
M  V30 14 C 2.041955 -0.639602 5.779244 0
M  V30 15 C 0.697360 -0.761106 5.419760 0
M  V30 16 C -0.329296 -0.499400 6.314501 0
M  V30 17 C 0.002622 -0.108313 7.594032 0
M  V30 18 F -0.956576 0.162542 8.516615 0
M  V30 19 C 1.319859 0.005657 7.929112 0
M  V30 20 C 2.343753 -0.249380 7.056656 0
M  V30 21 C 3.131659 -1.996708 3.844205 0
M  V30 22 C 2.256688 -3.053599 3.700950 0
M  V30 23 C 0.245423 -5.427607 -0.768232 0
M  V30 24 C -0.288942 -4.171067 -1.369668 0
M  V30 25 N -1.526114 -3.973050 -0.712265 0
M  V30 26 C -2.150138 -2.704727 -0.832495 0
M  V30 27 C -2.662153 -2.344128 -2.154520 0
M  V30 28 O -2.504394 -3.197471 -3.091576 0
M  V30 29 N -3.268246 -1.045377 -2.139182 0
M  V30 30 C -3.404292 -0.132669 -1.016758 0
M  V30 31 C -2.597048 1.059883 -1.383288 0
M  V30 32 C -2.480318 1.513392 -2.612468 0
M  V30 33 C -1.712694 2.666293 -3.045161 0
M  V30 34 C -1.659299 3.078289 -4.376002 0
M  V30 35 C -0.953695 4.153031 -4.855024 0
M  V30 36 C -0.227468 4.914575 -3.998158 0
M  V30 37 C 0.519916 6.053108 -4.507038 0
M  V30 38 N 1.240116 6.810684 -3.689286 0
M  V30 39 C 1.956465 7.879888 -4.087420 0
M  V30 40 C 1.942263 8.209918 -5.426612 0
M  V30 41 C 1.196555 7.429431 -6.288053 0
M  V30 42 N 0.502193 6.369798 -5.813367 0
M  V30 43 C -0.228655 4.575972 -2.679859 0
M  V30 44 C -0.952380 3.488443 -2.246886 0
M  V30 45 F -0.856756 3.277659 -0.928700 0
M  V30 46 C -3.182234 0.822782 -3.710892 0
M  V30 47 C -3.860905 -0.437818 -3.308478 0
M  V30 48 C -1.456334 -4.502386 0.601551 0
M  V30 49 H -1.269182 -8.075447 2.271371 0
M  V30 50 H -0.492126 -6.589067 3.064038 0
M  V30 51 H -2.144861 -6.548974 2.351092 0
M  V30 52 H 1.720244 -6.117613 2.670212 0
M  V30 53 H 4.003701 -4.534847 1.147836 0
M  V30 54 H 5.467469 -2.606659 1.514063 0
M  V30 55 H 5.725100 -0.301262 3.133930 0
M  V30 56 H 0.322304 -1.059772 4.442947 0
M  V30 57 H -1.370002 -0.577755 6.088612 0
M  V30 58 H 1.599190 0.315013 8.940293 0
M  V30 59 H 3.412775 -0.177429 7.260508 0
M  V30 60 H 1.377391 -3.202205 4.280280 0
M  V30 61 H 1.348095 -5.400777 -0.823053 0
M  V30 62 H -0.074095 -6.335694 -1.297434 0
M  V30 63 H 0.363478 -3.295369 -1.174339 0
M  V30 64 H -0.356608 -4.234045 -2.473614 0
M  V30 65 H -1.438680 -1.926425 -0.424176 0
M  V30 66 H -2.975318 -2.689518 -0.059231 0
M  V30 67 H -4.472332 0.116345 -0.803979 0
M  V30 68 H -2.986924 -0.549906 -0.089935 0
M  V30 69 H -2.089726 1.568857 -0.589580 0
M  V30 70 H -2.221803 2.512361 -5.130690 0
M  V30 71 H -0.972078 4.395137 -5.898471 0
M  V30 72 H 2.538100 8.481842 -3.388935 0
M  V30 73 H 2.500321 9.058183 -5.797692 0
M  V30 74 H 1.149437 7.641585 -7.341632 0
M  V30 75 H 0.360922 5.203950 -2.021102 0
M  V30 76 H -3.960579 1.497926 -4.161845 0
M  V30 77 H -2.426295 0.543367 -4.493742 0
M  V30 78 H -3.895392 -1.181499 -4.153517 0
M  V30 79 H -4.925253 -0.174979 -3.020693 0
M  V30 80 H -2.392501 -5.008771 0.913472 0
M  V30 81 H -1.284903 -3.680436 1.326762 0
M  V30 END ATOM
M  V30 BEGIN BOND
M  V30 1 1 1 2
M  V30 2 1 3 2 CFG=1
M  V30 3 1 3 4
M  V30 4 2 4 5
M  V30 5 1 4 6
M  V30 6 1 6 7
M  V30 7 2 7 8
M  V30 8 1 8 9
M  V30 9 2 9 10
M  V30 10 1 10 11
M  V30 11 1 11 12
M  V30 12 2 12 13
M  V30 13 1 13 14
M  V30 14 2 14 15
M  V30 15 1 15 16
M  V30 16 2 16 17
M  V30 17 1 17 18
M  V30 18 1 17 19
M  V30 19 2 19 20
M  V30 20 1 13 21
M  V30 21 2 21 22
M  V30 22 1 3 23
M  V30 23 1 23 24
M  V30 24 1 24 25
M  V30 25 1 25 26
M  V30 26 1 26 27
M  V30 27 2 27 28
M  V30 28 1 27 29
M  V30 29 1 29 30
M  V30 30 1 30 31
M  V30 31 2 31 32
M  V30 32 1 32 33
M  V30 33 2 33 34
M  V30 34 1 34 35
M  V30 35 2 35 36
M  V30 36 1 36 37
M  V30 37 2 37 38
M  V30 38 1 38 39
M  V30 39 2 39 40
M  V30 40 1 40 41
M  V30 41 2 41 42
M  V30 42 1 36 43
M  V30 43 2 43 44
M  V30 44 1 44 45
M  V30 45 1 32 46
M  V30 46 1 46 47
M  V30 47 1 25 48
M  V30 48 1 48 3
M  V30 49 1 22 7
M  V30 50 1 47 29
M  V30 51 1 21 10
M  V30 52 1 44 33
M  V30 53 1 20 14
M  V30 54 1 42 37
M  V30 55 1 1 49
M  V30 56 1 1 50
M  V30 57 1 1 51
M  V30 58 1 6 52
M  V30 59 1 8 53
M  V30 60 1 9 54
M  V30 61 1 11 55
M  V30 62 1 15 56
M  V30 63 1 16 57
M  V30 64 1 19 58
M  V30 65 1 20 59
M  V30 66 1 22 60
M  V30 67 1 23 61
M  V30 68 1 23 62
M  V30 69 1 24 63
M  V30 70 1 24 64
M  V30 71 1 26 65
M  V30 72 1 26 66
M  V30 73 1 30 67
M  V30 74 1 30 68
M  V30 75 1 31 69
M  V30 76 1 34 70
M  V30 77 1 35 71
M  V30 78 1 39 72
M  V30 79 1 40 73
M  V30 80 1 41 74
M  V30 81 1 43 75
M  V30 82 1 46 76
M  V30 83 1 46 77
M  V30 84 1 47 78
M  V30 85 1 47 79
M  V30 86 1 48 80
M  V30 87 1 48 81
M  V30 END BOND
M  V30 END CTAB
M  END
>  <Dataset>  (730) 
ChEMBL_Kinases

>  <Ligand_Instance>  (730) 
nan

>  <PDB_ID>  (730) 
nan

>  <Standardized_SMILES>  (730) 
CO[C@@]1(C(=O)Nc2ccc3[nH]nc(-c4ccc(F)cc4)c3c2)CCN(CC(=O)N2CC=C(c3ccc(-c4ncccn4)cc3F)CC2)C1

>  <Name>  (730) 
nan

>  <Pocket>  (730) 
nan

>  <ATP_Site>  (730) 
nan

>  <Peripheral>  (730) 
nan

>  <Num_H_Atoms_ProtBoundConf>  (730) 
nan

>  <Num_Resolved_Atoms>  (730) 
nan

>  <Num_Not_Resolved_Atoms>  (730) 
nan

$$$$
CHEMBL3645237
     RDKit          3D

  0  0  0  0  0  0  0  0  0  0999 V3000
M  V30 BEGIN CTAB
M  V30 COUNTS 82 88 0 0 0
M  V30 BEGIN ATOM
M  V30 1 C -1.662878 -6.950237 3.522380 0
M  V30 2 C -1.220105 -6.243974 2.635402 0
M  V30 3 C -0.683673 -5.402449 1.570154 0
M  V30 4 C 0.527003 -4.704355 2.057825 0
M  V30 5 O 0.766211 -5.026174 3.252927 0
M  V30 6 N 1.273584 -3.814443 1.260271 0
M  V30 7 C 2.444224 -3.097455 1.635901 0
M  V30 8 C 3.749154 -3.520755 1.507222 0
M  V30 9 C 4.807970 -2.727739 1.910160 0
M  V30 10 C 4.489648 -1.496319 2.444892 0
M  V30 11 N 5.278659 -0.509168 2.922090 0
M  V30 12 N 4.522699 0.481431 3.328960 0
M  V30 13 C 3.208968 0.230604 3.156210 0
M  V30 14 C 2.096118 1.108741 3.495927 0
M  V30 15 C 0.961634 0.669571 4.146015 0
M  V30 16 C -0.122483 1.447529 4.493794 0
M  V30 17 C -0.075900 2.787244 4.165248 0
M  V30 18 F -1.132230 3.563483 4.499383 0
M  V30 19 C 1.039731 3.281655 3.511646 0
M  V30 20 C 2.097104 2.456707 3.187580 0
M  V30 21 C 3.200799 -1.029717 2.593270 0
M  V30 22 C 2.162023 -1.839350 2.184000 0
M  V30 23 C -0.519193 -6.123121 0.278157 0
M  V30 24 C -1.236166 -5.255048 -0.744975 0
M  V30 25 N -1.343804 -3.960658 -0.096085 0
M  V30 26 C -2.282219 -3.070280 -0.717233 0
M  V30 27 C -1.838373 -2.626831 -2.062832 0
M  V30 28 O -0.739116 -3.075635 -2.471181 0
M  V30 29 N -2.649520 -1.745189 -2.803213 0
M  V30 30 C -3.923100 -1.176304 -2.405617 0
M  V30 31 C -3.836623 0.325693 -2.250310 0
M  V30 32 N -2.662877 0.853454 -2.956304 0
M  V30 33 C -1.783088 1.839610 -2.431916 0
M  V30 34 C -0.683484 2.341070 -3.076894 0
M  V30 35 C 0.125974 3.299626 -2.503804 0
M  V30 36 C -0.156161 3.785602 -1.245139 0
M  V30 37 C 0.705622 4.798034 -0.650492 0
M  V30 38 N 0.484007 5.313640 0.565937 0
M  V30 39 C 1.259994 6.247022 1.141475 0
M  V30 40 C 2.353969 6.705875 0.439574 0
M  V30 41 C 2.613870 6.197718 -0.817070 0
M  V30 42 N 1.769594 5.253411 -1.317126 0
M  V30 43 C -1.263074 3.265937 -0.622160 0
M  V30 44 N -2.053306 2.317029 -1.205028 0
M  V30 45 C -2.535023 0.230676 -4.246743 0
M  V30 46 C -2.307559 -1.268831 -4.120183 0 CFG=1
M  V30 47 C -0.867182 -1.529592 -4.483485 0
M  V30 48 C -1.754796 -4.360975 1.234101 0
M  V30 49 H -2.050472 -7.571392 4.307204 0
M  V30 50 H 0.982977 -3.620256 0.275137 0
M  V30 51 H 3.848342 -4.508483 1.071908 0
M  V30 52 H 5.807511 -3.103584 1.788101 0
M  V30 53 H 6.337595 -0.531508 2.961165 0
M  V30 54 H 0.871687 -0.377583 4.429319 0
M  V30 55 H -0.986109 1.058839 5.000945 0
M  V30 56 H 0.983243 4.331717 3.299985 0
M  V30 57 H 2.951700 2.885428 2.675152 0
M  V30 58 H 1.152661 -1.455304 2.307813 0
M  V30 59 H 0.534266 -6.321882 -0.006171 0
M  V30 60 H -1.048390 -7.097515 0.347753 0
M  V30 61 H -2.234625 -5.656191 -0.973074 0
M  V30 62 H -0.628118 -5.258298 -1.653571 0
M  V30 63 H -2.365430 -2.181866 -0.078079 0
M  V30 64 H -3.243389 -3.605372 -0.860732 0
M  V30 65 H -4.256015 -1.634052 -1.447440 0
M  V30 66 H -4.670371 -1.427388 -3.173136 0
M  V30 67 H -3.642105 0.568547 -1.180042 0
M  V30 68 H -4.720792 0.850264 -2.611346 0
M  V30 69 H -0.457366 1.964950 -4.061945 0
M  V30 70 H 0.984286 3.672789 -3.039577 0
M  V30 71 H 1.057335 6.655453 2.142780 0
M  V30 72 H 3.045939 7.469002 0.831627 0
M  V30 73 H 3.472123 6.526829 -1.421276 0
M  V30 74 H -1.503596 3.636288 0.373865 0
M  V30 75 H -3.517326 0.390526 -4.781627 0
M  V30 76 H -1.783499 0.670605 -4.909242 0
M  V30 77 H -2.949930 -1.802513 -4.854394 0
M  V30 78 H -0.634144 -0.954857 -5.407221 0
M  V30 79 H -0.730178 -2.599154 -4.759278 0
M  V30 80 H -0.163624 -1.173619 -3.703026 0
M  V30 81 H -1.592286 -3.516849 1.910460 0
M  V30 82 H -2.764906 -4.789496 1.258975 0
M  V30 END ATOM
M  V30 BEGIN BOND
M  V30 1 3 1 2
M  V30 2 1 2 3
M  V30 3 1 3 4
M  V30 4 2 4 5
M  V30 5 1 4 6
M  V30 6 1 6 7
M  V30 7 2 7 8
M  V30 8 1 8 9
M  V30 9 2 9 10
M  V30 10 1 10 11
M  V30 11 1 11 12
M  V30 12 2 12 13
M  V30 13 1 13 14
M  V30 14 2 14 15
M  V30 15 1 15 16
M  V30 16 2 16 17
M  V30 17 1 17 18
M  V30 18 1 17 19
M  V30 19 2 19 20
M  V30 20 1 13 21
M  V30 21 2 21 22
M  V30 22 1 3 23
M  V30 23 1 23 24
M  V30 24 1 24 25
M  V30 25 1 25 26
M  V30 26 1 26 27
M  V30 27 2 27 28
M  V30 28 1 27 29
M  V30 29 1 29 30
M  V30 30 1 30 31
M  V30 31 1 31 32
M  V30 32 1 32 33
M  V30 33 2 33 34
M  V30 34 1 34 35
M  V30 35 2 35 36
M  V30 36 1 36 37
M  V30 37 2 37 38
M  V30 38 1 38 39
M  V30 39 2 39 40
M  V30 40 1 40 41
M  V30 41 2 41 42
M  V30 42 1 36 43
M  V30 43 2 43 44
M  V30 44 1 32 45
M  V30 45 1 45 46
M  V30 46 1 46 47
M  V30 47 1 25 48
M  V30 48 1 48 3
M  V30 49 1 22 7
M  V30 50 1 46 29
M  V30 51 1 21 10
M  V30 52 1 44 33
M  V30 53 1 20 14
M  V30 54 1 42 37
M  V30 55 1 1 49
M  V30 56 1 6 50
M  V30 57 1 8 51
M  V30 58 1 9 52
M  V30 59 1 11 53
M  V30 60 1 15 54
M  V30 61 1 16 55
M  V30 62 1 19 56
M  V30 63 1 20 57
M  V30 64 1 22 58
M  V30 65 1 23 59
M  V30 66 1 23 60
M  V30 67 1 24 61
M  V30 68 1 24 62
M  V30 69 1 26 63
M  V30 70 1 26 64
M  V30 71 1 30 65
M  V30 72 1 30 66
M  V30 73 1 31 67
M  V30 74 1 31 68
M  V30 75 1 34 69
M  V30 76 1 35 70
M  V30 77 1 39 71
M  V30 78 1 40 72
M  V30 79 1 41 73
M  V30 80 1 43 74
M  V30 81 1 45 75
M  V30 82 1 45 76
M  V30 83 1 46 77 CFG=3
M  V30 84 1 47 78
M  V30 85 1 47 79
M  V30 86 1 47 80
M  V30 87 1 48 81
M  V30 88 1 48 82
M  V30 END BOND
M  V30 END CTAB
M  END
>  <Dataset>  (731) 
ChEMBL_Kinases

>  <Ligand_Instance>  (731) 
nan

>  <PDB_ID>  (731) 
nan

>  <Standardized_SMILES>  (731) 
C#CC1(C(=O)Nc2ccc3[nH]nc(-c4ccc(F)cc4)c3c2)CCN(CC(=O)N2CCN(c3ccc(-c4ncccn4)cn3)C[C@H]2C)C1

>  <Name>  (731) 
nan

>  <Pocket>  (731) 
nan

>  <ATP_Site>  (731) 
nan

>  <Peripheral>  (731) 
nan

>  <Num_H_Atoms_ProtBoundConf>  (731) 
nan

>  <Num_Resolved_Atoms>  (731) 
nan

>  <Num_Not_Resolved_Atoms>  (731) 
nan

$$$$
CHEMBL3647292
     RDKit          3D

  0  0  0  0  0  0  0  0  0  0999 V3000
M  V30 BEGIN CTAB
M  V30 COUNTS 65 69 0 0 0
M  V30 BEGIN ATOM
M  V30 1 C 3.589317 -0.866325 6.231383 0
M  V30 2 N 2.202597 -0.592145 6.099678 0
M  V30 3 C 1.310732 -1.460756 6.794883 0
M  V30 4 C 1.808780 0.760982 5.965450 0
M  V30 5 C 2.373875 1.445106 4.782558 0
M  V30 6 N 3.567879 2.106116 4.865704 0
M  V30 7 C 3.836487 2.626825 3.655878 0
M  V30 8 C 4.917491 3.360550 3.284095 0
M  V30 9 N 4.947248 3.768874 1.991871 0
M  V30 10 C 3.941243 3.446344 1.148338 0
M  V30 11 C 4.077142 3.915732 -0.139932 0
M  V30 12 C 3.049534 3.588909 -1.005911 0
M  V30 13 C 1.948477 2.844797 -0.637029 0
M  V30 14 C 0.927367 2.557906 -1.623303 0
M  V30 15 C 0.062755 2.314618 -2.429761 0
M  V30 16 C -1.008931 2.034878 -3.409522 0
M  V30 17 N -1.282301 0.595011 -3.459512 0
M  V30 18 C -1.695706 0.118809 -2.193511 0
M  V30 19 O -1.710094 1.084489 -1.374113 0
M  V30 20 C -2.054725 -1.243242 -1.842615 0
M  V30 21 C -2.425209 -1.412178 -0.502230 0
M  V30 22 N -2.784818 -2.612009 -0.019667 0
M  V30 23 C -2.814002 -3.716416 -0.776369 0
M  V30 24 N -2.462231 -3.571274 -2.061443 0
M  V30 25 C -2.472012 -4.723715 -2.940674 0
M  V30 26 C -3.794674 -4.888472 -3.591738 0
M  V30 27 C -4.764099 -5.665709 -2.947183 0
M  V30 28 C -6.044804 -5.922192 -3.412233 0
M  V30 29 C -6.347917 -5.336631 -4.626854 0
M  V30 30 F -7.606643 -5.575736 -5.105941 0
M  V30 31 C -5.443681 -4.555909 -5.323346 0
M  V30 32 F -5.785522 -4.000404 -6.513743 0
M  V30 33 C -4.189684 -4.345721 -4.798030 0
M  V30 34 C -2.094851 -2.396230 -2.594288 0
M  V30 35 O -1.762553 -2.232631 -3.786271 0
M  V30 36 C 1.867026 2.395698 0.687148 0
M  V30 37 C 2.867104 2.699082 1.577952 0
M  V30 38 C 2.772325 2.252188 2.873332 0
M  V30 39 N 1.850708 1.526591 3.519635 0
M  V30 40 C 0.608931 0.941000 3.079541 0
M  V30 41 H 3.701293 -1.899558 6.656846 0
M  V30 42 H 4.018041 -0.177624 6.986934 0
M  V30 43 H 4.147150 -0.879566 5.272775 0
M  V30 44 H 1.854008 -1.919444 7.645109 0
M  V30 45 H 0.868835 -2.246334 6.148483 0
M  V30 46 H 0.467190 -0.863496 7.243079 0
M  V30 47 H 0.703080 0.791180 5.890623 0
M  V30 48 H 2.064908 1.376722 6.863383 0
M  V30 49 H 5.715387 3.610973 3.970875 0
M  V30 50 H 4.930087 4.497685 -0.444219 0
M  V30 51 H 3.131426 3.944750 -2.022397 0
M  V30 52 H -0.622048 2.376920 -4.390514 0
M  V30 53 H -1.946195 2.542187 -3.150209 0
M  V30 54 H -1.215955 -0.070813 -4.248227 0
M  V30 55 H -2.450660 -0.614972 0.228904 0
M  V30 56 H -3.105810 -4.657097 -0.359374 0
M  V30 57 H -2.293670 -5.620471 -2.318964 0
M  V30 58 H -1.677528 -4.656461 -3.710887 0
M  V30 59 H -4.492838 -6.109762 -1.996868 0
M  V30 60 H -6.705489 -6.534774 -2.831262 0
M  V30 61 H -3.471058 -3.749368 -5.310837 0
M  V30 62 H 0.978522 1.833768 0.862196 0
M  V30 63 H 0.192913 0.389367 3.983689 0
M  V30 64 H 0.733599 0.104915 2.350857 0
M  V30 65 H -0.188812 1.656656 2.842571 0
M  V30 END ATOM
M  V30 BEGIN BOND
M  V30 1 1 1 2
M  V30 2 1 2 3
M  V30 3 1 2 4
M  V30 4 1 4 5
M  V30 5 2 5 6
M  V30 6 1 6 7
M  V30 7 2 7 8
M  V30 8 1 8 9
M  V30 9 2 9 10
M  V30 10 1 10 11
M  V30 11 2 11 12
M  V30 12 1 12 13
M  V30 13 1 13 14
M  V30 14 3 14 15
M  V30 15 1 15 16
M  V30 16 1 16 17
M  V30 17 1 17 18
M  V30 18 2 18 19
M  V30 19 1 18 20
M  V30 20 2 20 21
M  V30 21 1 21 22
M  V30 22 2 22 23
M  V30 23 1 23 24
M  V30 24 1 24 25
M  V30 25 1 25 26
M  V30 26 2 26 27
M  V30 27 1 27 28
M  V30 28 2 28 29
M  V30 29 1 29 30
M  V30 30 1 29 31
M  V30 31 1 31 32
M  V30 32 2 31 33
M  V30 33 1 24 34
M  V30 34 2 34 35
M  V30 35 2 13 36
M  V30 36 1 36 37
M  V30 37 2 37 38
M  V30 38 1 38 39
M  V30 39 1 39 40
M  V30 40 1 39 5
M  V30 41 1 38 7
M  V30 42 1 37 10
M  V30 43 1 34 20
M  V30 44 1 33 26
M  V30 45 1 1 41
M  V30 46 1 1 42
M  V30 47 1 1 43
M  V30 48 1 3 44
M  V30 49 1 3 45
M  V30 50 1 3 46
M  V30 51 1 4 47
M  V30 52 1 4 48
M  V30 53 1 8 49
M  V30 54 1 11 50
M  V30 55 1 12 51
M  V30 56 1 16 52
M  V30 57 1 16 53
M  V30 58 1 17 54
M  V30 59 1 21 55
M  V30 60 1 23 56
M  V30 61 1 25 57
M  V30 62 1 25 58
M  V30 63 1 27 59
M  V30 64 1 28 60
M  V30 65 1 33 61
M  V30 66 1 36 62
M  V30 67 1 40 63
M  V30 68 1 40 64
M  V30 69 1 40 65
M  V30 END BOND
M  V30 END CTAB
M  END
>  <Dataset>  (732) 
ChEMBL_Kinases

>  <Ligand_Instance>  (732) 
nan

>  <PDB_ID>  (732) 
nan

>  <Standardized_SMILES>  (732) 
CN(C)Cc1nc2cnc3ccc(C#CCNC(=O)c4cncn(Cc5ccc(F)c(F)c5)c4=O)cc3c2n1C

>  <Name>  (732) 
nan

>  <Pocket>  (732) 
nan

>  <ATP_Site>  (732) 
nan

>  <Peripheral>  (732) 
nan

>  <Num_H_Atoms_ProtBoundConf>  (732) 
nan

>  <Num_Resolved_Atoms>  (732) 
nan

>  <Num_Not_Resolved_Atoms>  (732) 
nan

$$$$
CHEMBL3645239
     RDKit          3D

  0  0  0  0  0  0  0  0  0  0999 V3000
M  V30 BEGIN CTAB
M  V30 COUNTS 83 89 0 0 0
M  V30 BEGIN ATOM
M  V30 1 C -4.977888 -1.769814 4.685577 0
M  V30 2 O -4.834305 -1.378381 3.389710 0
M  V30 3 C -3.632448 -1.698174 2.797669 0 CFG=1
M  V30 4 C -2.517181 -0.991626 3.398956 0
M  V30 5 O -1.468382 -1.484822 2.840934 0
M  V30 6 N -2.225285 0.001166 4.336680 0
M  V30 7 C -0.914279 0.431502 4.662294 0
M  V30 8 C -0.025709 -0.061227 5.607011 0
M  V30 9 C 1.211402 0.527601 5.763932 0
M  V30 10 C 1.614848 1.616468 5.000309 0
M  V30 11 N 2.764761 2.325557 5.003818 0
M  V30 12 N 2.599591 3.259496 4.067140 0
M  V30 13 C 1.391437 3.152398 3.486042 0
M  V30 14 C 0.911347 4.032869 2.430383 0
M  V30 15 C 1.163623 5.377931 2.718604 0
M  V30 16 C 0.800698 6.404423 1.867774 0
M  V30 17 C 0.166327 6.052918 0.695032 0
M  V30 18 F -0.198455 7.040461 -0.154529 0
M  V30 19 C -0.079601 4.731958 0.413305 0
M  V30 20 C 0.281525 3.710042 1.261466 0
M  V30 21 C 0.724998 2.095256 4.067676 0
M  V30 22 C -0.520870 1.526469 3.887281 0
M  V30 23 C -3.406570 -3.219600 2.857025 0
M  V30 24 C -2.993350 -3.643675 1.460629 0
M  V30 25 N -2.729522 -2.414658 0.740645 0
M  V30 26 C -2.777601 -2.528891 -0.679609 0
M  V30 27 C -1.678732 -3.353351 -1.224891 0
M  V30 28 O -0.752034 -3.945157 -0.588528 0
M  V30 29 N -1.459581 -3.635755 -2.596808 0
M  V30 30 C -0.318891 -4.474372 -2.851444 0
M  V30 31 C 0.207993 -4.457010 -4.236750 0
M  V30 32 C 0.233058 -3.115997 -4.907808 0
M  V30 33 C 1.371025 -2.271171 -4.429199 0
M  V30 34 C 2.457813 -2.016015 -5.256257 0
M  V30 35 C 3.532361 -1.238577 -4.857777 0
M  V30 36 C 3.546498 -0.686391 -3.596987 0
M  V30 37 C 4.650830 0.137954 -3.117598 0
M  V30 38 N 4.612003 0.632150 -1.870436 0
M  V30 39 C 5.571722 1.397054 -1.343913 0
M  V30 40 C 6.658304 1.694705 -2.122270 0
M  V30 41 C 6.733534 1.201942 -3.416916 0
M  V30 42 N 5.723442 0.452892 -3.834185 0
M  V30 43 C 2.480024 -0.914151 -2.733697 0
M  V30 44 C 1.445788 -1.693004 -3.188596 0
M  V30 45 C -1.106913 -2.457977 -4.716763 0
M  V30 46 C -1.992493 -3.366025 -3.907419 0
M  V30 47 C -3.716151 -1.505079 1.293168 0
M  V30 48 H -5.978698 -1.446231 5.122003 0
M  V30 49 H -4.219240 -1.459247 5.410991 0
M  V30 50 H -5.044037 -2.893314 4.789521 0
M  V30 51 H -3.102907 0.386541 4.740251 0
M  V30 52 H -0.421329 -0.899513 6.147803 0
M  V30 53 H 1.864067 0.094638 6.523039 0
M  V30 54 H 3.617129 2.198258 5.598481 0
M  V30 55 H 1.663031 5.740565 3.630434 0
M  V30 56 H 0.981792 7.447566 2.068367 0
M  V30 57 H -0.572889 4.464216 -0.498009 0
M  V30 58 H 0.127514 2.655234 1.117899 0
M  V30 59 H -1.122563 1.999385 3.121445 0
M  V30 60 H -4.368279 -3.725877 3.092112 0
M  V30 61 H -2.662918 -3.507511 3.606384 0
M  V30 62 H -3.822842 -4.168575 0.938383 0
M  V30 63 H -2.141466 -4.348321 1.461295 0
M  V30 64 H -3.758215 -2.961827 -1.023684 0
M  V30 65 H -2.748859 -1.493135 -1.085848 0
M  V30 66 H 0.507687 -4.182607 -2.173313 0
M  V30 67 H -0.535568 -5.546807 -2.565316 0
M  V30 68 H 1.213386 -4.941931 -4.219233 0
M  V30 69 H -0.414517 -5.130246 -4.896911 0
M  V30 70 H 0.368367 -3.333318 -6.005003 0
M  V30 71 H 2.486214 -2.435969 -6.262602 0
M  V30 72 H 4.392648 -1.020483 -5.473519 0
M  V30 73 H 5.484390 1.763843 -0.333615 0
M  V30 74 H 7.414168 2.313415 -1.669876 0
M  V30 75 H 7.608012 1.445603 -4.032485 0
M  V30 76 H 2.493480 -0.479444 -1.742045 0
M  V30 77 H 0.650535 -1.832568 -2.490760 0
M  V30 78 H -1.530187 -2.194738 -5.685137 0
M  V30 79 H -0.940837 -1.545818 -4.101776 0
M  V30 80 H -2.954802 -2.820934 -3.771631 0
M  V30 81 H -2.267191 -4.285888 -4.463354 0
M  V30 82 H -4.712271 -1.876466 0.978049 0
M  V30 83 H -3.605061 -0.479473 0.956379 0
M  V30 END ATOM
M  V30 BEGIN BOND
M  V30 1 1 1 2
M  V30 2 1 3 2 CFG=1
M  V30 3 1 3 4
M  V30 4 2 4 5
M  V30 5 1 4 6
M  V30 6 1 6 7
M  V30 7 2 7 8
M  V30 8 1 8 9
M  V30 9 2 9 10
M  V30 10 1 10 11
M  V30 11 1 11 12
M  V30 12 2 12 13
M  V30 13 1 13 14
M  V30 14 2 14 15
M  V30 15 1 15 16
M  V30 16 2 16 17
M  V30 17 1 17 18
M  V30 18 1 17 19
M  V30 19 2 19 20
M  V30 20 1 13 21
M  V30 21 2 21 22
M  V30 22 1 3 23
M  V30 23 1 23 24
M  V30 24 1 24 25
M  V30 25 1 25 26
M  V30 26 1 26 27
M  V30 27 2 27 28
M  V30 28 1 27 29
M  V30 29 1 29 30
M  V30 30 1 30 31
M  V30 31 1 31 32
M  V30 32 1 32 33
M  V30 33 2 33 34
M  V30 34 1 34 35
M  V30 35 2 35 36
M  V30 36 1 36 37
M  V30 37 2 37 38
M  V30 38 1 38 39
M  V30 39 2 39 40
M  V30 40 1 40 41
M  V30 41 2 41 42
M  V30 42 1 36 43
M  V30 43 2 43 44
M  V30 44 1 32 45
M  V30 45 1 45 46
M  V30 46 1 25 47
M  V30 47 1 47 3
M  V30 48 1 22 7
M  V30 49 1 46 29
M  V30 50 1 21 10
M  V30 51 1 44 33
M  V30 52 1 20 14
M  V30 53 1 42 37
M  V30 54 1 1 48
M  V30 55 1 1 49
M  V30 56 1 1 50
M  V30 57 1 6 51
M  V30 58 1 8 52
M  V30 59 1 9 53
M  V30 60 1 11 54
M  V30 61 1 15 55
M  V30 62 1 16 56
M  V30 63 1 19 57
M  V30 64 1 20 58
M  V30 65 1 22 59
M  V30 66 1 23 60
M  V30 67 1 23 61
M  V30 68 1 24 62
M  V30 69 1 24 63
M  V30 70 1 26 64
M  V30 71 1 26 65
M  V30 72 1 30 66
M  V30 73 1 30 67
M  V30 74 1 31 68
M  V30 75 1 31 69
M  V30 76 1 32 70
M  V30 77 1 34 71
M  V30 78 1 35 72
M  V30 79 1 39 73
M  V30 80 1 40 74
M  V30 81 1 41 75
M  V30 82 1 43 76
M  V30 83 1 44 77
M  V30 84 1 45 78
M  V30 85 1 45 79
M  V30 86 1 46 80
M  V30 87 1 46 81
M  V30 88 1 47 82
M  V30 89 1 47 83
M  V30 END BOND
M  V30 END CTAB
M  END
>  <Dataset>  (733) 
ChEMBL_Kinases

>  <Ligand_Instance>  (733) 
nan

>  <PDB_ID>  (733) 
nan

>  <Standardized_SMILES>  (733) 
CO[C@@]1(C(=O)Nc2ccc3[nH]nc(-c4ccc(F)cc4)c3c2)CCN(CC(=O)N2CCC(c3ccc(-c4ncccn4)cc3)CC2)C1

>  <Name>  (733) 
nan

>  <Pocket>  (733) 
nan

>  <ATP_Site>  (733) 
nan

>  <Peripheral>  (733) 
nan

>  <Num_H_Atoms_ProtBoundConf>  (733) 
nan

>  <Num_Resolved_Atoms>  (733) 
nan

>  <Num_Not_Resolved_Atoms>  (733) 
nan

$$$$
CHEMBL3645240
     RDKit          3D

  0  0  0  0  0  0  0  0  0  0999 V3000
M  V30 BEGIN CTAB
M  V30 COUNTS 89 96 0 0 0
M  V30 BEGIN ATOM
M  V30 1 C 2.687906 -6.065353 -0.444616 0
M  V30 2 O 3.247092 -5.046642 -1.165385 0
M  V30 3 C 2.395501 -4.159968 -1.758579 0 CFG=1
M  V30 4 C 3.248830 -3.142446 -2.473549 0
M  V30 5 O 4.472578 -2.967731 -2.603146 0
M  V30 6 N 2.361555 -2.228775 -3.104186 0
M  V30 7 C 2.499851 -1.066237 -3.910088 0
M  V30 8 C 2.593208 -1.032949 -5.288989 0
M  V30 9 C 2.721890 0.158354 -5.975334 0
M  V30 10 C 2.759884 1.365873 -5.271212 0
M  V30 11 N 2.871393 2.674512 -5.630366 0
M  V30 12 N 2.851029 3.427633 -4.553937 0
M  V30 13 C 2.727538 2.690863 -3.426639 0
M  V30 14 C 2.660703 3.144216 -2.031788 0
M  V30 15 C 3.431379 2.494775 -1.091027 0
M  V30 16 C 3.411762 2.868111 0.253088 0
M  V30 17 N 2.609978 3.896053 0.624289 0
M  V30 18 C 1.842834 4.547086 -0.294232 0
M  V30 19 C 0.969023 5.669121 0.151764 0
M  V30 20 C -0.276215 5.983350 -0.568960 0
M  V30 21 C 0.900659 6.923463 -0.695038 0
M  V30 22 C 1.857494 4.186117 -1.614185 0
M  V30 23 C 2.673034 1.405694 -3.912511 0
M  V30 24 C 2.545411 0.182490 -3.278213 0
M  V30 25 C 1.492607 -4.873498 -2.706955 0
M  V30 26 C 0.109779 -4.854125 -2.093757 0
M  V30 27 N 0.154110 -3.967032 -0.978992 0
M  V30 28 C -0.805492 -2.912406 -0.970742 0
M  V30 29 C -2.190219 -3.381296 -0.779475 0
M  V30 30 O -2.256458 -4.626302 -0.660869 0
M  V30 31 N -3.249364 -2.440264 -0.749283 0
M  V30 32 C -3.286260 -1.002494 -0.878550 0
M  V30 33 C -4.193617 -0.294197 0.040945 0
M  V30 34 C -4.800542 -1.083468 1.147419 0
M  V30 35 C -4.065665 -0.881554 2.423441 0
M  V30 36 C -2.760301 -1.305501 2.544801 0
M  V30 37 C -2.086820 -1.105932 3.748692 0
M  V30 38 C -2.662935 -0.497974 4.842906 0
M  V30 39 C -1.861300 -0.343037 6.047756 0
M  V30 40 N -0.572390 -0.787719 6.104509 0
M  V30 41 C 0.152659 -0.634876 7.229244 0
M  V30 42 C -0.371500 -0.023799 8.373719 0
M  V30 43 C -1.676657 0.409511 8.270847 0
M  V30 44 N -2.400436 0.256333 7.145637 0
M  V30 45 C -3.979768 -0.067285 4.728395 0
M  V30 46 C -4.626629 -0.276871 3.523806 0
M  V30 47 C -4.912097 -2.553114 0.891800 0
M  V30 48 C -4.624830 -2.921645 -0.546990 0
M  V30 49 C 1.472369 -3.457760 -0.803861 0
M  V30 50 H 2.020196 -6.740838 -1.013739 0
M  V30 51 H 2.238174 -5.752938 0.527164 0
M  V30 52 H 3.543075 -6.731512 -0.135530 0
M  V30 53 H 1.302287 -2.189407 -3.129699 0
M  V30 54 H 2.559422 -1.990208 -5.795258 0
M  V30 55 H 2.794182 0.171345 -7.057359 0
M  V30 56 H 2.958399 3.000957 -6.620206 0
M  V30 57 H 4.095233 1.675324 -1.287229 0
M  V30 58 H 3.997172 2.390072 1.031399 0
M  V30 59 H 0.964775 5.913169 1.246816 0
M  V30 60 H -0.514293 5.318641 -1.424006 0
M  V30 61 H -1.138432 6.373628 -0.022356 0
M  V30 62 H 0.845680 7.921416 -0.213488 0
M  V30 63 H 1.360086 6.938303 -1.685452 0
M  V30 64 H 1.271258 4.673556 -2.354945 0
M  V30 65 H 2.471835 0.181733 -2.198684 0
M  V30 66 H 1.793161 -5.928337 -2.857320 0
M  V30 67 H 1.506604 -4.416903 -3.718093 0
M  V30 68 H -0.646380 -4.534773 -2.869550 0
M  V30 69 H -0.211504 -5.861858 -1.759074 0
M  V30 70 H -0.781715 -2.330137 -1.913410 0
M  V30 71 H -0.540464 -2.204382 -0.162956 0
M  V30 72 H -3.521405 -0.801443 -1.960659 0
M  V30 73 H -2.220313 -0.660924 -0.777514 0
M  V30 74 H -4.994903 0.201137 -0.579592 0
M  V30 75 H -3.657104 0.563164 0.501528 0
M  V30 76 H -5.828273 -0.688805 1.312918 0
M  V30 77 H -2.214668 -1.788835 1.761789 0
M  V30 78 H -1.047256 -1.450141 3.829567 0
M  V30 79 H 1.169886 -0.997794 7.244326 0
M  V30 80 H 0.202956 0.102911 9.280997 0
M  V30 81 H -2.184394 0.890859 9.081416 0
M  V30 82 H -4.433492 0.407223 5.578452 0
M  V30 83 H -5.662913 0.079087 3.481754 0
M  V30 84 H -4.185636 -3.111881 1.518417 0
M  V30 85 H -5.916631 -2.953614 1.146569 0
M  V30 86 H -5.335255 -2.478520 -1.263410 0
M  V30 87 H -4.638691 -4.029284 -0.614438 0
M  V30 88 H 1.547364 -2.366893 -0.987139 0
M  V30 89 H 1.750000 -3.603764 0.256929 0
M  V30 END ATOM
M  V30 BEGIN BOND
M  V30 1 1 1 2
M  V30 2 1 3 2 CFG=1
M  V30 3 1 3 4
M  V30 4 2 4 5
M  V30 5 1 4 6
M  V30 6 1 6 7
M  V30 7 2 7 8
M  V30 8 1 8 9
M  V30 9 2 9 10
M  V30 10 1 10 11
M  V30 11 1 11 12
M  V30 12 2 12 13
M  V30 13 1 13 14
M  V30 14 2 14 15
M  V30 15 1 15 16
M  V30 16 2 16 17
M  V30 17 1 17 18
M  V30 18 1 18 19
M  V30 19 1 19 20
M  V30 20 1 20 21
M  V30 21 2 18 22
M  V30 22 1 13 23
M  V30 23 2 23 24
M  V30 24 1 3 25
M  V30 25 1 25 26
M  V30 26 1 26 27
M  V30 27 1 27 28
M  V30 28 1 28 29
M  V30 29 2 29 30
M  V30 30 1 29 31
M  V30 31 1 31 32
M  V30 32 1 32 33
M  V30 33 1 33 34
M  V30 34 1 34 35
M  V30 35 2 35 36
M  V30 36 1 36 37
M  V30 37 2 37 38
M  V30 38 1 38 39
M  V30 39 2 39 40
M  V30 40 1 40 41
M  V30 41 2 41 42
M  V30 42 1 42 43
M  V30 43 2 43 44
M  V30 44 1 38 45
M  V30 45 2 45 46
M  V30 46 1 34 47
M  V30 47 1 47 48
M  V30 48 1 27 49
M  V30 49 1 49 3
M  V30 50 1 24 7
M  V30 51 1 48 31
M  V30 52 1 23 10
M  V30 53 1 46 35
M  V30 54 1 22 14
M  V30 55 1 44 39
M  V30 56 1 21 19
M  V30 57 1 1 50
M  V30 58 1 1 51
M  V30 59 1 1 52
M  V30 60 1 6 53
M  V30 61 1 8 54
M  V30 62 1 9 55
M  V30 63 1 11 56
M  V30 64 1 15 57
M  V30 65 1 16 58
M  V30 66 1 19 59
M  V30 67 1 20 60
M  V30 68 1 20 61
M  V30 69 1 21 62
M  V30 70 1 21 63
M  V30 71 1 22 64
M  V30 72 1 24 65
M  V30 73 1 25 66
M  V30 74 1 25 67
M  V30 75 1 26 68
M  V30 76 1 26 69
M  V30 77 1 28 70
M  V30 78 1 28 71
M  V30 79 1 32 72
M  V30 80 1 32 73
M  V30 81 1 33 74
M  V30 82 1 33 75
M  V30 83 1 34 76
M  V30 84 1 36 77
M  V30 85 1 37 78
M  V30 86 1 41 79
M  V30 87 1 42 80
M  V30 88 1 43 81
M  V30 89 1 45 82
M  V30 90 1 46 83
M  V30 91 1 47 84
M  V30 92 1 47 85
M  V30 93 1 48 86
M  V30 94 1 48 87
M  V30 95 1 49 88
M  V30 96 1 49 89
M  V30 END BOND
M  V30 END CTAB
M  END
>  <Dataset>  (734) 
ChEMBL_Kinases

>  <Ligand_Instance>  (734) 
nan

>  <PDB_ID>  (734) 
nan

>  <Standardized_SMILES>  (734) 
CO[C@@]1(C(=O)Nc2ccc3[nH]nc(-c4ccnc(C5CC5)c4)c3c2)CCN(CC(=O)N2CCC(c3ccc(-c4ncccn4)cc3)CC2)C1

>  <Name>  (734) 
nan

>  <Pocket>  (734) 
nan

>  <ATP_Site>  (734) 
nan

>  <Peripheral>  (734) 
nan

>  <Num_H_Atoms_ProtBoundConf>  (734) 
nan

>  <Num_Resolved_Atoms>  (734) 
nan

>  <Num_Not_Resolved_Atoms>  (734) 
nan

$$$$
CHEMBL364539
     RDKit          3D

  0  0  0  0  0  0  0  0  0  0999 V3000
M  V30 BEGIN CTAB
M  V30 COUNTS 50 54 0 0 0
M  V30 BEGIN ATOM
M  V30 1 C 2.196083 -2.260118 6.688172 0
M  V30 2 C 1.883080 -1.966120 5.262476 0
M  V30 3 C 2.430533 -0.838086 4.651332 0
M  V30 4 C 2.152285 -0.542336 3.318980 0
M  V30 5 C 1.312256 -1.441616 2.684356 0
M  V30 6 C 0.824793 -1.468453 1.380298 0
M  V30 7 C 1.128208 -0.482644 0.352866 0
M  V30 8 C 2.450614 -0.310818 -0.039065 0
M  V30 9 C 2.845826 0.591034 -0.999651 0
M  V30 10 N 1.898111 1.356279 -1.599602 0
M  V30 11 C 0.598862 1.198900 -1.225732 0
M  V30 12 N -0.539174 1.892128 -1.723028 0
M  V30 13 C -0.942035 3.099729 -1.087760 0
M  V30 14 C -0.206054 3.560400 -0.015579 0
M  V30 15 C -0.590664 4.732143 0.607707 0
M  V30 16 C -1.704452 5.376356 0.109292 0
M  V30 17 C -2.427168 4.901897 -0.962130 0
M  V30 18 C -2.051919 3.744806 -1.582002 0
M  V30 19 N 0.246410 0.308530 -0.283801 0
M  V30 20 C 0.008775 -2.590577 1.234348 0
M  V30 21 C -0.718625 -3.027522 0.046845 0
M  V30 22 C -1.731422 -2.225676 -0.449805 0
M  V30 23 C -2.481372 -2.529076 -1.556419 0
M  V30 24 C -2.229594 -3.715340 -2.245601 0
M  V30 25 C -1.215289 -4.514202 -1.744600 0
M  V30 26 C -0.911050 -5.795268 -2.451860 0
M  V30 27 F -1.509404 -5.859171 -3.684400 0
M  V30 28 F 0.472803 -5.843565 -2.542316 0
M  V30 29 F -1.288432 -6.820223 -1.608076 0
M  V30 30 C -0.472403 -4.203622 -0.640197 0
M  V30 31 N 0.024865 -3.201727 2.434340 0
M  V30 32 N 0.778805 -2.542646 3.283330 0
M  V30 33 N 1.076470 -2.777933 4.555474 0
M  V30 34 H 2.379972 -3.346807 6.812823 0
M  V30 35 H 3.138336 -1.757175 6.929845 0
M  V30 36 H 1.355720 -1.965920 7.368111 0
M  V30 37 H 3.093932 -0.151702 5.198054 0
M  V30 38 H 2.555653 0.313309 2.821239 0
M  V30 39 H 3.252508 -0.909165 0.420516 0
M  V30 40 H 3.873521 0.727398 -1.307939 0
M  V30 41 H -1.032507 1.490709 -2.530100 0
M  V30 42 H 0.674110 3.053182 0.379990 0
M  V30 43 H -0.022221 5.117634 1.460934 0
M  V30 44 H -2.011304 6.298678 0.596391 0
M  V30 45 H -3.306455 5.424477 -1.344259 0
M  V30 46 H -2.583933 3.313161 -2.439612 0
M  V30 47 H -2.034321 -1.280947 -0.016300 0
M  V30 48 H -3.270885 -1.929996 -1.965757 0
M  V30 49 H -2.795936 -3.998351 -3.125657 0
M  V30 50 H 0.325612 -4.845385 -0.257210 0
M  V30 END ATOM
M  V30 BEGIN BOND
M  V30 1 1 1 2
M  V30 2 1 2 3
M  V30 3 2 3 4
M  V30 4 1 4 5
M  V30 5 2 5 6
M  V30 6 1 6 7
M  V30 7 2 7 8
M  V30 8 1 8 9
M  V30 9 2 9 10
M  V30 10 1 10 11
M  V30 11 1 11 12
M  V30 12 1 12 13
M  V30 13 2 13 14
M  V30 14 1 14 15
M  V30 15 2 15 16
M  V30 16 1 16 17
M  V30 17 2 17 18
M  V30 18 2 11 19
M  V30 19 1 6 20
M  V30 20 1 20 21
M  V30 21 2 21 22
M  V30 22 1 22 23
M  V30 23 2 23 24
M  V30 24 1 24 25
M  V30 25 1 25 26
M  V30 26 1 26 27
M  V30 27 1 26 28
M  V30 28 1 26 29
M  V30 29 2 25 30
M  V30 30 2 20 31
M  V30 31 1 31 32
M  V30 32 1 32 33
M  V30 33 2 33 2
M  V30 34 1 32 5
M  V30 35 1 19 7
M  V30 36 1 30 21
M  V30 37 1 18 13
M  V30 38 1 1 34
M  V30 39 1 1 35
M  V30 40 1 1 36
M  V30 41 1 3 37
M  V30 42 1 4 38
M  V30 43 1 8 39
M  V30 44 1 9 40
M  V30 45 1 12 41
M  V30 46 1 14 42
M  V30 47 1 15 43
M  V30 48 1 16 44
M  V30 49 1 17 45
M  V30 50 1 18 46
M  V30 51 1 22 47
M  V30 52 1 23 48
M  V30 53 1 24 49
M  V30 54 1 30 50
M  V30 END BOND
M  V30 END CTAB
M  END
>  <Dataset>  (735) 
ChEMBL_Kinases

>  <Ligand_Instance>  (735) 
nan

>  <PDB_ID>  (735) 
nan

>  <Standardized_SMILES>  (735) 
Cc1ccc2c(-c3ccnc(Nc4ccccc4)n3)c(-c3cccc(C(F)(F)F)c3)nn2n1

>  <Name>  (735) 
nan

>  <Pocket>  (735) 
nan

>  <ATP_Site>  (735) 
nan

>  <Peripheral>  (735) 
nan

>  <Num_H_Atoms_ProtBoundConf>  (735) 
nan

>  <Num_Resolved_Atoms>  (735) 
nan

>  <Num_Not_Resolved_Atoms>  (735) 
nan

$$$$
CHEMBL364576
     RDKit          3D

  0  0  0  0  0  0  0  0  0  0999 V3000
M  V30 BEGIN CTAB
M  V30 COUNTS 61 64 0 0 0
M  V30 BEGIN ATOM
M  V30 1 C 1.865725 -3.163453 5.588415 0
M  V30 2 O 1.748537 -3.320903 4.175671 0
M  V30 3 C 2.251190 -2.304632 3.340652 0
M  V30 4 C 2.845110 -1.178883 3.826419 0
M  V30 5 C 3.322807 -0.206095 2.970023 0
M  V30 6 N 3.899752 0.895061 3.484325 0
M  V30 7 C 4.357201 1.836637 2.652606 0
M  V30 8 N 4.255370 1.711591 1.306806 0
M  V30 9 C 3.688172 0.632320 0.733693 0
M  V30 10 N 3.488045 0.330188 -0.635194 0
M  V30 11 C 2.430557 0.468522 -1.535468 0
M  V30 12 C 1.237996 0.997887 -1.158086 0
M  V30 13 C 0.260672 1.070903 -2.149486 0
M  V30 14 N -0.991518 1.635663 -1.696833 0
M  V30 15 C -1.729991 0.518732 -1.208463 0
M  V30 16 O -1.080493 -0.574800 -1.319746 0
M  V30 17 C -3.092937 0.595811 -0.634223 0
M  V30 18 C -3.842828 1.771568 -0.543154 0
M  V30 19 C -5.097519 1.694153 0.019339 0
M  V30 20 C -5.572451 0.466449 0.472369 0
M  V30 21 C -4.848822 -0.700935 0.390957 0
M  V30 22 N -5.342701 -1.948280 0.854781 0
M  V30 23 C -6.655784 -2.116092 1.454679 0
M  V30 24 C -4.515363 -3.130006 0.736259 0
M  V30 25 C -3.611307 -0.604088 -0.167847 0
M  V30 26 C 0.437771 0.645101 -3.458559 0
M  V30 27 C 1.691320 0.113506 -3.766472 0
M  V30 28 C 2.681764 0.024868 -2.812707 0
M  V30 29 C 4.010032 -0.558543 -3.205502 0
M  V30 30 C 3.210871 -0.350150 1.599933 0
M  V30 31 C 2.603386 -1.505291 1.152889 0
M  V30 32 C 2.111901 -2.501903 1.967733 0
M  V30 33 O 1.503596 -3.656514 1.501039 0
M  V30 34 C 1.364123 -3.851601 0.111311 0
M  V30 35 H 2.920609 -3.355704 5.862464 0
M  V30 36 H 1.210349 -3.848268 6.132613 0
M  V30 37 H 1.550343 -2.135115 5.904497 0
M  V30 38 H 2.948402 -1.038504 4.906093 0
M  V30 39 H 4.834885 2.751090 3.019039 0
M  V30 40 H 4.435436 -0.064316 -0.820834 0
M  V30 41 H 1.066696 1.337593 -0.155637 0
M  V30 42 H -1.460485 2.578913 -1.639411 0
M  V30 43 H -3.371515 2.670145 -0.928798 0
M  V30 44 H -5.661835 2.616687 0.080197 0
M  V30 45 H -6.556948 0.483001 0.895942 0
M  V30 46 H -6.684342 -3.011357 2.114411 0
M  V30 47 H -6.945731 -1.186149 1.979542 0
M  V30 48 H -7.407129 -2.318771 0.651392 0
M  V30 49 H -4.940124 -3.976790 1.298657 0
M  V30 50 H -4.367772 -3.415894 -0.322846 0
M  V30 51 H -3.492052 -2.953398 1.149899 0
M  V30 52 H -3.034054 -1.518397 -0.236451 0
M  V30 53 H -0.371968 0.736013 -4.168939 0
M  V30 54 H 1.873511 -0.233291 -4.784906 0
M  V30 55 H 4.030531 -1.592215 -2.821545 0
M  V30 56 H 4.091224 -0.562369 -4.291010 0
M  V30 57 H 4.829436 0.085733 -2.817753 0
M  V30 58 H 2.490649 -1.665702 0.098378 0
M  V30 59 H 2.400714 -4.042116 -0.279809 0
M  V30 60 H 0.960728 -2.973104 -0.392954 0
M  V30 61 H 0.738447 -4.765122 -0.044961 0
M  V30 END ATOM
M  V30 BEGIN BOND
M  V30 1 1 1 2
M  V30 2 1 2 3
M  V30 3 2 3 4
M  V30 4 1 4 5
M  V30 5 2 5 6
M  V30 6 1 6 7
M  V30 7 2 7 8
M  V30 8 1 8 9
M  V30 9 1 9 10
M  V30 10 1 10 11
M  V30 11 2 11 12
M  V30 12 1 12 13
M  V30 13 1 13 14
M  V30 14 1 14 15
M  V30 15 2 15 16
M  V30 16 1 15 17
M  V30 17 2 17 18
M  V30 18 1 18 19
M  V30 19 2 19 20
M  V30 20 1 20 21
M  V30 21 1 21 22
M  V30 22 1 22 23
M  V30 23 1 22 24
M  V30 24 2 21 25
M  V30 25 2 13 26
M  V30 26 1 26 27
M  V30 27 2 27 28
M  V30 28 1 28 29
M  V30 29 2 9 30
M  V30 30 1 30 31
M  V30 31 2 31 32
M  V30 32 1 32 33
M  V30 33 1 33 34
M  V30 34 1 32 3
M  V30 35 1 30 5
M  V30 36 1 28 11
M  V30 37 1 25 17
M  V30 38 1 1 35
M  V30 39 1 1 36
M  V30 40 1 1 37
M  V30 41 1 4 38
M  V30 42 1 7 39
M  V30 43 1 10 40
M  V30 44 1 12 41
M  V30 45 1 14 42
M  V30 46 1 18 43
M  V30 47 1 19 44
M  V30 48 1 20 45
M  V30 49 1 23 46
M  V30 50 1 23 47
M  V30 51 1 23 48
M  V30 52 1 24 49
M  V30 53 1 24 50
M  V30 54 1 24 51
M  V30 55 1 25 52
M  V30 56 1 26 53
M  V30 57 1 27 54
M  V30 58 1 29 55
M  V30 59 1 29 56
M  V30 60 1 29 57
M  V30 61 1 31 58
M  V30 62 1 34 59
M  V30 63 1 34 60
M  V30 64 1 34 61
M  V30 END BOND
M  V30 END CTAB
M  END
>  <Dataset>  (736) 
ChEMBL_Kinases

>  <Ligand_Instance>  (736) 
nan

>  <PDB_ID>  (736) 
nan

>  <Standardized_SMILES>  (736) 
COc1cc2ncnc(Nc3cc(NC(=O)c4cccc(N(C)C)c4)ccc3C)c2cc1OC

>  <Name>  (736) 
nan

>  <Pocket>  (736) 
nan

>  <ATP_Site>  (736) 
nan

>  <Peripheral>  (736) 
nan

>  <Num_H_Atoms_ProtBoundConf>  (736) 
nan

>  <Num_Resolved_Atoms>  (736) 
nan

>  <Num_Not_Resolved_Atoms>  (736) 
nan

$$$$
CHEMBL364637
     RDKit          3D

  0  0  0  0  0  0  0  0  0  0999 V3000
M  V30 BEGIN CTAB
M  V30 COUNTS 43 46 0 0 0
M  V30 BEGIN ATOM
M  V30 1 N 3.299886 1.691901 4.834713 0
M  V30 2 C 2.673969 1.517818 3.859471 0
M  V30 3 C 1.899482 1.326587 2.668576 0
M  V30 4 C 2.403463 0.776722 1.591389 0
M  V30 5 N 1.837211 0.489099 0.316756 0
M  V30 6 C 2.715906 -0.091635 -0.600883 0
M  V30 7 C 2.388510 -0.445554 -1.894789 0
M  V30 8 C 3.325823 -1.003870 -2.724155 0
M  V30 9 C 4.642632 -1.249821 -2.337050 0
M  V30 10 C 4.938831 -0.887308 -1.043234 0
M  V30 11 C 3.998186 -0.326577 -0.209119 0
M  V30 12 S 4.125263 0.222774 1.514254 0
M  V30 13 C 0.507494 1.758911 2.648267 0
M  V30 14 C 0.268665 2.958792 3.324753 0
M  V30 15 C -0.971523 3.525571 3.415196 0
M  V30 16 N -1.963188 2.859352 2.810850 0
M  V30 17 C -1.797437 1.702603 2.145364 0
M  V30 18 N -2.859028 1.014158 1.498277 0
M  V30 19 C -2.627198 -0.271744 0.832569 0
M  V30 20 C -2.197707 -1.320023 1.837366 0
M  V30 21 C -1.956387 -2.616774 1.164595 0
M  V30 22 C -0.651761 -2.819507 0.713121 0
M  V30 23 C -0.304044 -4.002666 0.065618 0
M  V30 24 C -1.265534 -4.987463 -0.131223 0
M  V30 25 C -2.546399 -4.741190 0.334117 0
M  V30 26 N -2.845125 -3.603484 0.946997 0
M  V30 27 N -0.560222 1.174881 2.078175 0
M  V30 28 H 0.831835 0.741392 0.204437 0
M  V30 29 H 1.403086 -0.321863 -2.357648 0
M  V30 30 H 3.092032 -1.293096 -3.753393 0
M  V30 31 H 5.344935 -1.691282 -3.026435 0
M  V30 32 H 5.938073 -1.043792 -0.661232 0
M  V30 33 H 1.084348 3.509469 3.821782 0
M  V30 34 H -1.107259 4.460747 3.951562 0
M  V30 35 H -3.792409 1.477426 1.529037 0
M  V30 36 H -3.555147 -0.585722 0.327739 0
M  V30 37 H -1.804822 -0.158611 0.085921 0
M  V30 38 H -3.111149 -1.484218 2.485548 0
M  V30 39 H -1.418385 -0.998005 2.521986 0
M  V30 40 H 0.150090 -2.082685 0.837414 0
M  V30 41 H 0.720083 -4.152019 -0.283969 0
M  V30 42 H -0.964827 -5.901137 -0.639967 0
M  V30 43 H -3.315283 -5.507541 0.186036 0
M  V30 END ATOM
M  V30 BEGIN BOND
M  V30 1 3 1 2
M  V30 2 1 2 3
M  V30 3 2 3 4
M  V30 4 1 4 5
M  V30 5 1 5 6
M  V30 6 2 6 7
M  V30 7 1 7 8
M  V30 8 2 8 9
M  V30 9 1 9 10
M  V30 10 2 10 11
M  V30 11 1 11 12
M  V30 12 1 3 13
M  V30 13 2 13 14
M  V30 14 1 14 15
M  V30 15 2 15 16
M  V30 16 1 16 17
M  V30 17 1 17 18
M  V30 18 1 18 19
M  V30 19 1 19 20
M  V30 20 1 20 21
M  V30 21 2 21 22
M  V30 22 1 22 23
M  V30 23 2 23 24
M  V30 24 1 24 25
M  V30 25 2 25 26
M  V30 26 2 17 27
M  V30 27 1 12 4
M  V30 28 1 27 13
M  V30 29 1 11 6
M  V30 30 1 26 21
M  V30 31 1 5 28
M  V30 32 1 7 29
M  V30 33 1 8 30
M  V30 34 1 9 31
M  V30 35 1 10 32
M  V30 36 1 14 33
M  V30 37 1 15 34
M  V30 38 1 18 35
M  V30 39 1 19 36
M  V30 40 1 19 37
M  V30 41 1 20 38
M  V30 42 1 20 39
M  V30 43 1 22 40
M  V30 44 1 23 41
M  V30 45 1 24 42
M  V30 46 1 25 43
M  V30 END BOND
M  V30 END CTAB
M  END
>  <Dataset>  (737) 
ChEMBL_Kinases

>  <Ligand_Instance>  (737) 
nan

>  <PDB_ID>  (737) 
nan

>  <Standardized_SMILES>  (737) 
N#C/C(=C1/Nc2ccccc2S1)c1ccnc(NCCc2ccccn2)n1

>  <Name>  (737) 
nan

>  <Pocket>  (737) 
nan

>  <ATP_Site>  (737) 
nan

>  <Peripheral>  (737) 
nan

>  <Num_H_Atoms_ProtBoundConf>  (737) 
nan

>  <Num_Resolved_Atoms>  (737) 
nan

>  <Num_Not_Resolved_Atoms>  (737) 
nan

$$$$
CHEMBL364646
     RDKit          3D

  0  0  0  0  0  0  0  0  0  0999 V3000
M  V30 BEGIN CTAB
M  V30 COUNTS 44 48 0 0 0
M  V30 BEGIN ATOM
M  V30 1 F -1.864246 -4.563604 5.563220 0
M  V30 2 C -0.988707 -3.653061 5.076917 0
M  V30 3 C -0.055102 -3.092223 5.910756 0
M  V30 4 C 0.833856 -2.171585 5.429762 0
M  V30 5 C 0.866348 -1.742061 4.106669 0
M  V30 6 N 1.805100 -0.795476 3.682770 0
M  V30 7 C 1.985602 -0.241466 2.387921 0
M  V30 8 N 2.948133 0.662818 2.166614 0
M  V30 9 C 3.185730 1.233881 0.978714 0
M  V30 10 C 2.404807 0.886618 -0.100757 0
M  V30 11 C 1.404650 -0.039277 0.084314 0
M  V30 12 C 0.566001 -0.420550 -1.046912 0
M  V30 13 C -0.247227 0.497027 -1.693802 0
M  V30 14 C -0.414496 1.914877 -1.396583 0
M  V30 15 C -0.946759 2.100680 -0.117955 0
M  V30 16 C -1.189999 3.370924 0.375513 0
M  V30 17 C -0.893769 4.457972 -0.427288 0
M  V30 18 Cl -1.189023 6.080082 0.165278 0
M  V30 19 C -0.366954 4.279790 -1.693252 0
M  V30 20 C -0.125385 3.013195 -2.182986 0
M  V30 21 N -0.866879 -0.197899 -2.674162 0
M  V30 22 N -0.506992 -1.453431 -2.684960 0
M  V30 23 N -0.830493 -2.495306 -3.434262 0
M  V30 24 C -0.289640 -3.707029 -3.214321 0
M  V30 25 C 0.638425 -3.956100 -2.197052 0
M  V30 26 C 0.994605 -2.868635 -1.392954 0
M  V30 27 C 0.392015 -1.653756 -1.685208 0
M  V30 28 N 1.250875 -0.549885 1.312603 0
M  V30 29 C -0.096611 -2.344744 3.326498 0
M  V30 30 C -1.013330 -3.273120 3.753343 0
M  V30 31 F -1.935074 -3.827245 2.931319 0
M  V30 32 H -0.023768 -3.381944 6.956423 0
M  V30 33 H 1.548761 -1.763065 6.137882 0
M  V30 34 H 2.468048 -0.446425 4.425086 0
M  V30 35 H 3.978503 1.962373 0.849958 0
M  V30 36 H 2.599734 1.348926 -1.054723 0
M  V30 37 H -1.211503 1.324197 0.584503 0
M  V30 38 H -1.596200 3.567702 1.347057 0
M  V30 39 H -0.120369 5.084552 -2.353982 0
M  V30 40 H 0.281805 2.739287 -3.150933 0
M  V30 41 H -0.570955 -4.541586 -3.840810 0
M  V30 42 H 1.064310 -4.940771 -2.034646 0
M  V30 43 H 1.697242 -2.976259 -0.594455 0
M  V30 44 H -0.173187 -2.099216 2.296469 0
M  V30 END ATOM
M  V30 BEGIN BOND
M  V30 1 1 1 2
M  V30 2 2 2 3
M  V30 3 1 3 4
M  V30 4 2 4 5
M  V30 5 1 5 6
M  V30 6 1 6 7
M  V30 7 2 7 8
M  V30 8 1 8 9
M  V30 9 2 9 10
M  V30 10 1 10 11
M  V30 11 1 11 12
M  V30 12 1 12 13
M  V30 13 1 13 14
M  V30 14 2 14 15
M  V30 15 1 15 16
M  V30 16 2 16 17
M  V30 17 1 17 18
M  V30 18 1 17 19
M  V30 19 2 19 20
M  V30 20 2 13 21
M  V30 21 1 21 22
M  V30 22 1 22 23
M  V30 23 2 23 24
M  V30 24 1 24 25
M  V30 25 2 25 26
M  V30 26 1 26 27
M  V30 27 2 11 28
M  V30 28 1 5 29
M  V30 29 2 29 30
M  V30 30 1 30 31
M  V30 31 1 30 2
M  V30 32 1 28 7
M  V30 33 2 27 12
M  V30 34 1 20 14
M  V30 35 1 27 22
M  V30 36 1 3 32
M  V30 37 1 4 33
M  V30 38 1 6 34
M  V30 39 1 9 35
M  V30 40 1 10 36
M  V30 41 1 15 37
M  V30 42 1 16 38
M  V30 43 1 19 39
M  V30 44 1 20 40
M  V30 45 1 24 41
M  V30 46 1 25 42
M  V30 47 1 26 43
M  V30 48 1 29 44
M  V30 END BOND
M  V30 END CTAB
M  END
>  <Dataset>  (738) 
ChEMBL_Kinases

>  <Ligand_Instance>  (738) 
nan

>  <PDB_ID>  (738) 
nan

>  <Standardized_SMILES>  (738) 
Fc1ccc(Nc2nccc(-c3c(-c4ccc(Cl)cc4)nn4ncccc34)n2)cc1F

>  <Name>  (738) 
nan

>  <Pocket>  (738) 
nan

>  <ATP_Site>  (738) 
nan

>  <Peripheral>  (738) 
nan

>  <Num_H_Atoms_ProtBoundConf>  (738) 
nan

>  <Num_Resolved_Atoms>  (738) 
nan

>  <Num_Not_Resolved_Atoms>  (738) 
nan

$$$$
CHEMBL3647290
     RDKit          3D

  0  0  0  0  0  0  0  0  0  0999 V3000
M  V30 BEGIN CTAB
M  V30 COUNTS 64 68 0 0 0
M  V30 BEGIN ATOM
M  V30 1 C 4.564859 -1.827909 5.652831 0
M  V30 2 O 5.216166 -2.327610 4.551924 0
M  V30 3 C 4.349369 -3.149637 3.814564 0
M  V30 4 C 3.170110 -2.350366 3.371747 0
M  V30 5 C 3.580872 -1.211309 2.514156 0
M  V30 6 N 4.824817 -0.875790 2.131932 0
M  V30 7 C 4.756896 0.236542 1.336710 0
M  V30 8 C 5.673091 1.019444 0.665057 0
M  V30 9 N 5.339979 2.101781 -0.082761 0
M  V30 10 C 4.017732 2.455664 -0.191198 0
M  V30 11 C 3.644281 3.548478 -0.946570 0
M  V30 12 C 2.311594 3.909557 -1.063368 0
M  V30 13 C 1.344025 3.179471 -0.425519 0
M  V30 14 C -0.094747 3.437013 -0.417916 0
M  V30 15 C -1.275197 3.627135 -0.408025 0
M  V30 16 C -2.703354 3.838253 -0.376577 0
M  V30 17 N -3.429252 3.086808 -1.424767 0
M  V30 18 C -3.096393 1.760194 -1.345509 0
M  V30 19 O -2.262653 1.231737 -0.521655 0
M  V30 20 C -3.135971 0.397293 -1.691448 0
M  V30 21 C -4.295054 0.690323 -2.607257 0
M  V30 22 N -5.033700 -0.146610 -3.422501 0
M  V30 23 C -4.769831 -1.464719 -3.500967 0
M  V30 24 N -3.709373 -1.837567 -2.690662 0
M  V30 25 C -3.096552 -3.115402 -2.441058 0
M  V30 26 C -3.760447 -3.889957 -1.376325 0
M  V30 27 C -4.269844 -5.157897 -1.639801 0
M  V30 28 C -4.918039 -5.975743 -0.718319 0
M  V30 29 C -5.082092 -5.502824 0.589110 0
M  V30 30 F -5.711246 -6.314476 1.479442 0
M  V30 31 C -4.595531 -4.286026 0.850538 0
M  V30 32 F -4.754219 -3.819762 2.119193 0
M  V30 33 C -3.937151 -3.453051 -0.081679 0
M  V30 34 C -3.179025 -0.864861 -2.018691 0
M  V30 35 O -2.136829 -1.013032 -1.196363 0
M  V30 36 C 1.810867 2.077049 0.324971 0
M  V30 37 C 3.113815 1.668095 0.481766 0
M  V30 38 C 3.386542 0.558517 1.256296 0
M  V30 39 N 2.683500 -0.327021 1.976630 0
M  V30 40 C 1.268537 -0.355328 2.177870 0
M  V30 41 H 4.217566 -2.716503 6.232511 0
M  V30 42 H 5.310822 -1.255589 6.278112 0
M  V30 43 H 3.760070 -1.175233 5.358911 0
M  V30 44 H 4.033598 -4.030376 4.424267 0
M  V30 45 H 4.911715 -3.471261 2.913732 0
M  V30 46 H 2.482712 -2.050362 4.173510 0
M  V30 47 H 2.528199 -3.063461 2.740337 0
M  V30 48 H 6.734213 0.725296 0.768874 0
M  V30 49 H 4.382182 4.155060 -1.469192 0
M  V30 50 H 1.942026 4.764640 -1.642977 0
M  V30 51 H -3.151548 3.544646 0.599394 0
M  V30 52 H -2.915365 4.903544 -0.596960 0
M  V30 53 H -4.078908 3.092308 -2.215621 0
M  V30 54 H -4.973998 1.550960 -2.986968 0
M  V30 55 H -5.068578 -2.376383 -3.962949 0
M  V30 56 H -3.223564 -3.739998 -3.388648 0
M  V30 57 H -1.979273 -3.053079 -2.323634 0
M  V30 58 H -4.207096 -5.642858 -2.605774 0
M  V30 59 H -5.303186 -6.976832 -0.927922 0
M  V30 60 H -3.621195 -2.517743 0.286946 0
M  V30 61 H 1.012057 1.536732 0.788572 0
M  V30 62 H 1.054873 -1.214822 2.900387 0
M  V30 63 H 0.655832 -0.640341 1.307858 0
M  V30 64 H 0.896759 0.509820 2.775149 0
M  V30 END ATOM
M  V30 BEGIN BOND
M  V30 1 1 1 2
M  V30 2 1 2 3
M  V30 3 1 3 4
M  V30 4 1 4 5
M  V30 5 2 5 6
M  V30 6 1 6 7
M  V30 7 2 7 8
M  V30 8 1 8 9
M  V30 9 2 9 10
M  V30 10 1 10 11
M  V30 11 2 11 12
M  V30 12 1 12 13
M  V30 13 1 13 14
M  V30 14 3 14 15
M  V30 15 1 15 16
M  V30 16 1 16 17
M  V30 17 1 17 18
M  V30 18 2 18 19
M  V30 19 1 18 20
M  V30 20 2 20 21
M  V30 21 1 21 22
M  V30 22 2 22 23
M  V30 23 1 23 24
M  V30 24 1 24 25
M  V30 25 1 25 26
M  V30 26 2 26 27
M  V30 27 1 27 28
M  V30 28 2 28 29
M  V30 29 1 29 30
M  V30 30 1 29 31
M  V30 31 1 31 32
M  V30 32 2 31 33
M  V30 33 1 24 34
M  V30 34 2 34 35
M  V30 35 2 13 36
M  V30 36 1 36 37
M  V30 37 2 37 38
M  V30 38 1 38 39
M  V30 39 1 39 40
M  V30 40 1 39 5
M  V30 41 1 38 7
M  V30 42 1 37 10
M  V30 43 1 34 20
M  V30 44 1 33 26
M  V30 45 1 1 41
M  V30 46 1 1 42
M  V30 47 1 1 43
M  V30 48 1 3 44
M  V30 49 1 3 45
M  V30 50 1 4 46
M  V30 51 1 4 47
M  V30 52 1 8 48
M  V30 53 1 11 49
M  V30 54 1 12 50
M  V30 55 1 16 51
M  V30 56 1 16 52
M  V30 57 1 17 53
M  V30 58 1 21 54
M  V30 59 1 23 55
M  V30 60 1 25 56
M  V30 61 1 25 57
M  V30 62 1 27 58
M  V30 63 1 28 59
M  V30 64 1 33 60
M  V30 65 1 36 61
M  V30 66 1 40 62
M  V30 67 1 40 63
M  V30 68 1 40 64
M  V30 END BOND
M  V30 END CTAB
M  END
>  <Dataset>  (739) 
ChEMBL_Kinases

>  <Ligand_Instance>  (739) 
nan

>  <PDB_ID>  (739) 
nan

>  <Standardized_SMILES>  (739) 
COCCc1nc2cnc3ccc(C#CCNC(=O)c4cncn(Cc5ccc(F)c(F)c5)c4=O)cc3c2n1C

>  <Name>  (739) 
nan

>  <Pocket>  (739) 
nan

>  <ATP_Site>  (739) 
nan

>  <Peripheral>  (739) 
nan

>  <Num_H_Atoms_ProtBoundConf>  (739) 
nan

>  <Num_Resolved_Atoms>  (739) 
nan

>  <Num_Not_Resolved_Atoms>  (739) 
nan

$$$$
CHEMBL3647291
     RDKit          3D

  0  0  0  0  0  0  0  0  0  0999 V3000
M  V30 BEGIN CTAB
M  V30 COUNTS 57 61 0 0 0
M  V30 BEGIN ATOM
M  V30 1 C 2.714275 -0.265351 2.646296 0
M  V30 2 N 3.897595 0.393247 2.143666 0
M  V30 3 C 5.151748 -0.037895 2.394275 0
M  V30 4 C 5.601512 -1.211178 3.189094 0
M  V30 5 F 5.688513 -2.271523 2.321586 0
M  V30 6 N 6.071758 0.777874 1.792848 0
M  V30 7 C 5.395990 1.725852 1.161607 0
M  V30 8 C 5.904201 2.766128 0.421812 0
M  V30 9 N 4.997500 3.611611 -0.127918 0
M  V30 10 C 3.664381 3.407694 0.065359 0
M  V30 11 C 2.846330 4.332970 -0.545280 0
M  V30 12 C 1.486775 4.116171 -0.344309 0
M  V30 13 C 0.966990 3.075422 0.395914 0
M  V30 14 C -0.476759 2.940678 0.529725 0
M  V30 15 C -1.689070 2.812913 0.626488 0
M  V30 16 C -3.135993 2.644534 0.722045 0
M  V30 17 N -3.489538 1.365946 1.348675 0
M  V30 18 C -3.000282 0.266717 0.705379 0
M  V30 19 O -2.273111 0.305270 -0.357342 0
M  V30 20 C -2.758309 -1.079247 0.438682 0
M  V30 21 C -3.696333 -1.386376 1.567090 0
M  V30 22 N -4.127685 -2.604760 2.102436 0
M  V30 23 C -3.658904 -3.769815 1.559378 0
M  V30 24 N -2.810173 -3.584463 0.541634 0
M  V30 25 C -2.119188 -4.572126 -0.259792 0
M  V30 26 C -2.851966 -4.981624 -1.472191 0
M  V30 27 C -2.589233 -4.448185 -2.707620 0
M  V30 28 C -3.210108 -4.750295 -3.895817 0
M  V30 29 C -4.228117 -5.707792 -3.865780 0
M  V30 30 F -4.844373 -6.010428 -5.033980 0
M  V30 31 C -4.523830 -6.270715 -2.636698 0
M  V30 32 F -5.524655 -7.205317 -2.637936 0
M  V30 33 C -3.875324 -5.937236 -1.471949 0
M  V30 34 C -2.531530 -2.346969 0.189056 0
M  V30 35 O -1.731525 -1.961363 -0.769593 0
M  V30 36 C 1.845590 2.172823 0.988869 0
M  V30 37 C 3.192958 2.354511 0.812908 0
M  V30 38 C 4.060602 1.473077 1.388576 0
M  V30 39 H 2.160089 0.358537 3.380563 0
M  V30 40 H 3.013039 -1.190937 3.238758 0
M  V30 41 H 2.082705 -0.707241 1.844392 0
M  V30 42 H 6.600262 -1.013274 3.606935 0
M  V30 43 H 4.861288 -1.487644 3.970527 0
M  V30 44 H 6.976213 2.906435 0.280698 0
M  V30 45 H 3.240260 5.149078 -1.126564 0
M  V30 46 H 0.811032 4.824428 -0.809592 0
M  V30 47 H -3.607304 3.469823 1.299914 0
M  V30 48 H -3.557395 2.616726 -0.302318 0
M  V30 49 H -3.992653 0.959866 2.134610 0
M  V30 50 H -4.366512 -0.910880 2.359618 0
M  V30 51 H -3.744982 -4.831198 1.677073 0
M  V30 52 H -1.064541 -4.317745 -0.478964 0
M  V30 53 H -2.108919 -5.498139 0.398112 0
M  V30 54 H -1.803774 -3.688596 -2.852917 0
M  V30 55 H -2.968613 -4.303315 -4.850568 0
M  V30 56 H -4.146756 -6.405306 -0.541461 0
M  V30 57 H 1.337864 1.414852 1.535079 0
M  V30 END ATOM
M  V30 BEGIN BOND
M  V30 1 1 1 2
M  V30 2 1 2 3
M  V30 3 1 3 4
M  V30 4 1 4 5
M  V30 5 2 3 6
M  V30 6 1 6 7
M  V30 7 2 7 8
M  V30 8 1 8 9
M  V30 9 2 9 10
M  V30 10 1 10 11
M  V30 11 2 11 12
M  V30 12 1 12 13
M  V30 13 1 13 14
M  V30 14 3 14 15
M  V30 15 1 15 16
M  V30 16 1 16 17
M  V30 17 1 17 18
M  V30 18 2 18 19
M  V30 19 1 18 20
M  V30 20 2 20 21
M  V30 21 1 21 22
M  V30 22 2 22 23
M  V30 23 1 23 24
M  V30 24 1 24 25
M  V30 25 1 25 26
M  V30 26 2 26 27
M  V30 27 1 27 28
M  V30 28 2 28 29
M  V30 29 1 29 30
M  V30 30 1 29 31
M  V30 31 1 31 32
M  V30 32 2 31 33
M  V30 33 1 24 34
M  V30 34 2 34 35
M  V30 35 2 13 36
M  V30 36 1 36 37
M  V30 37 2 37 38
M  V30 38 1 38 2
M  V30 39 1 38 7
M  V30 40 1 37 10
M  V30 41 1 34 20
M  V30 42 1 33 26
M  V30 43 1 1 39
M  V30 44 1 1 40
M  V30 45 1 1 41
M  V30 46 1 4 42
M  V30 47 1 4 43
M  V30 48 1 8 44
M  V30 49 1 11 45
M  V30 50 1 12 46
M  V30 51 1 16 47
M  V30 52 1 16 48
M  V30 53 1 17 49
M  V30 54 1 21 50
M  V30 55 1 23 51
M  V30 56 1 25 52
M  V30 57 1 25 53
M  V30 58 1 27 54
M  V30 59 1 28 55
M  V30 60 1 33 56
M  V30 61 1 36 57
M  V30 END BOND
M  V30 END CTAB
M  END
>  <Dataset>  (740) 
ChEMBL_Kinases

>  <Ligand_Instance>  (740) 
nan

>  <PDB_ID>  (740) 
nan

>  <Standardized_SMILES>  (740) 
Cn1c(CF)nc2cnc3ccc(C#CCNC(=O)c4cncn(Cc5ccc(F)c(F)c5)c4=O)cc3c21

>  <Name>  (740) 
nan

>  <Pocket>  (740) 
nan

>  <ATP_Site>  (740) 
nan

>  <Peripheral>  (740) 
nan

>  <Num_H_Atoms_ProtBoundConf>  (740) 
nan

>  <Num_Resolved_Atoms>  (740) 
nan

>  <Num_Not_Resolved_Atoms>  (740) 
nan

$$$$
CHEMBL3645238
     RDKit          3D

  0  0  0  0  0  0  0  0  0  0999 V3000
M  V30 BEGIN CTAB
M  V30 COUNTS 77 83 0 0 0
M  V30 BEGIN ATOM
M  V30 1 O -2.388440 0.048938 0.555225 0
M  V30 2 C -3.318450 -0.707771 0.104608 0
M  V30 3 N -4.535990 -0.882454 0.797203 0
M  V30 4 C -4.444111 -0.084468 1.980139 0
M  V30 5 C -3.942844 -0.623936 3.128887 0
M  V30 6 C -3.836365 0.112609 4.278803 0
M  V30 7 C -4.271671 1.421857 4.175958 0
M  V30 8 N -4.309892 2.421553 5.101244 0
M  V30 9 N -4.807710 3.547294 4.583789 0
M  V30 10 C -5.111097 3.304174 3.286546 0
M  V30 11 C -5.678381 4.316700 2.407449 0
M  V30 12 C -5.289867 4.596262 1.099061 0
M  V30 13 C -5.940464 5.602777 0.399813 0
M  V30 14 N -6.930613 6.312950 0.945983 0
M  V30 15 C -7.327077 6.063016 2.211675 0
M  V30 16 C -6.708238 5.071490 2.943970 0
M  V30 17 C -4.781614 1.991549 3.029538 0
M  V30 18 C -4.879645 1.232126 1.884862 0
M  V30 19 C -2.697850 -1.187457 -1.143000 0 CFG=1
M  V30 20 C -1.314092 -0.547880 -1.225819 0
M  V30 21 C -0.674796 -1.447699 -2.254272 0
M  V30 22 N -1.265643 -2.761179 -2.096596 0
M  V30 23 C -0.291512 -3.729365 -1.626360 0
M  V30 24 C 0.130238 -3.474391 -0.246299 0
M  V30 25 O 0.201727 -2.929687 0.874916 0
M  V30 26 N 1.091266 -4.368099 0.292229 0
M  V30 27 C 1.685218 -4.393757 1.603135 0
M  V30 28 C 3.200009 -4.273207 1.538783 0
M  V30 29 N 3.658876 -4.171278 0.181724 0
M  V30 30 C 4.386711 -3.118192 -0.430005 0
M  V30 31 C 4.874204 -3.174397 -1.713318 0
M  V30 32 C 5.572438 -2.134079 -2.287469 0
M  V30 33 C 5.816732 -0.973566 -1.589945 0
M  V30 34 C 6.551304 0.144403 -2.166647 0
M  V30 35 N 6.752519 1.254016 -1.426944 0
M  V30 36 C 7.417887 2.331320 -1.872108 0
M  V30 37 C 7.918771 2.288336 -3.159072 0
M  V30 38 C 7.728942 1.165967 -3.941133 0
M  V30 39 N 7.049461 0.135118 -3.409925 0
M  V30 40 C 5.334076 -0.901368 -0.301105 0
M  V30 41 C 4.627243 -1.966866 0.266168 0
M  V30 42 C 3.198151 -5.388164 -0.427605 0
M  V30 43 C 1.680336 -5.473533 -0.440906 0
M  V30 44 C -2.384242 -2.639741 -1.187000 0
M  V30 45 H -5.113187 -1.541666 0.218149 0
M  V30 46 H -3.600045 -1.663708 3.199634 0
M  V30 47 H -3.460358 -0.196601 5.243805 0
M  V30 48 H -4.015952 2.416988 6.105135 0
M  V30 49 H -4.485365 3.974183 0.742862 0
M  V30 50 H -5.505802 5.679810 -0.602213 0
M  V30 51 H -8.147729 6.678014 2.613134 0
M  V30 52 H -7.058724 4.897560 3.970595 0
M  V30 53 H -5.278390 1.667242 0.980225 0
M  V30 54 H -3.239445 -0.872433 -2.053560 0
M  V30 55 H -0.790449 -0.630179 -0.244667 0
M  V30 56 H -1.376925 0.505181 -1.551023 0
M  V30 57 H -1.032791 -1.080402 -3.249375 0
M  V30 58 H 0.408282 -1.414580 -2.116726 0
M  V30 59 H -0.766900 -4.724790 -1.753647 0
M  V30 60 H 0.547258 -3.680737 -2.349106 0
M  V30 61 H 1.315765 -3.595755 2.274710 0
M  V30 62 H 1.427292 -5.348722 2.149724 0
M  V30 63 H 3.525119 -3.374651 2.090479 0
M  V30 64 H 3.663945 -5.178348 2.029367 0
M  V30 65 H 4.736157 -4.027711 -2.329443 0
M  V30 66 H 5.946845 -2.198104 -3.295773 0
M  V30 67 H 7.487974 3.136688 -1.146368 0
M  V30 68 H 8.447892 3.175599 -3.477180 0
M  V30 69 H 8.138074 1.160179 -4.958823 0
M  V30 70 H 5.538191 0.022216 0.227239 0
M  V30 71 H 4.325471 -1.748942 1.262719 0
M  V30 72 H 3.603181 -5.440494 -1.454647 0
M  V30 73 H 3.611264 -6.309662 0.079084 0
M  V30 74 H 1.364217 -6.407629 0.065951 0
M  V30 75 H 1.353578 -5.520002 -1.492791 0
M  V30 76 H -3.253377 -3.203070 -1.611689 0
M  V30 77 H -2.198827 -3.078383 -0.186287 0
M  V30 END ATOM
M  V30 BEGIN BOND
M  V30 1 2 1 2
M  V30 2 1 2 3
M  V30 3 1 3 4
M  V30 4 2 4 5
M  V30 5 1 5 6
M  V30 6 2 6 7
M  V30 7 1 7 8
M  V30 8 1 8 9
M  V30 9 2 9 10
M  V30 10 1 10 11
M  V30 11 2 11 12
M  V30 12 1 12 13
M  V30 13 2 13 14
M  V30 14 1 14 15
M  V30 15 2 15 16
M  V30 16 1 10 17
M  V30 17 2 17 18
M  V30 18 1 2 19
M  V30 19 1 19 20
M  V30 20 1 20 21
M  V30 21 1 21 22
M  V30 22 1 22 23
M  V30 23 1 23 24
M  V30 24 2 24 25
M  V30 25 1 24 26
M  V30 26 1 26 27
M  V30 27 1 27 28
M  V30 28 1 28 29
M  V30 29 1 29 30
M  V30 30 2 30 31
M  V30 31 1 31 32
M  V30 32 2 32 33
M  V30 33 1 33 34
M  V30 34 2 34 35
M  V30 35 1 35 36
M  V30 36 2 36 37
M  V30 37 1 37 38
M  V30 38 2 38 39
M  V30 39 1 33 40
M  V30 40 2 40 41
M  V30 41 1 29 42
M  V30 42 1 42 43
M  V30 43 1 22 44
M  V30 44 1 18 4
M  V30 45 1 44 19
M  V30 46 1 17 7
M  V30 47 1 43 26
M  V30 48 1 16 11
M  V30 49 1 41 30
M  V30 50 1 39 34
M  V30 51 1 3 45
M  V30 52 1 5 46
M  V30 53 1 6 47
M  V30 54 1 8 48
M  V30 55 1 12 49
M  V30 56 1 13 50
M  V30 57 1 15 51
M  V30 58 1 16 52
M  V30 59 1 18 53
M  V30 60 1 19 54 CFG=3
M  V30 61 1 20 55
M  V30 62 1 20 56
M  V30 63 1 21 57
M  V30 64 1 21 58
M  V30 65 1 23 59
M  V30 66 1 23 60
M  V30 67 1 27 61
M  V30 68 1 27 62
M  V30 69 1 28 63
M  V30 70 1 28 64
M  V30 71 1 31 65
M  V30 72 1 32 66
M  V30 73 1 36 67
M  V30 74 1 37 68
M  V30 75 1 38 69
M  V30 76 1 40 70
M  V30 77 1 41 71
M  V30 78 1 42 72
M  V30 79 1 42 73
M  V30 80 1 43 74
M  V30 81 1 43 75
M  V30 82 1 44 76
M  V30 83 1 44 77
M  V30 END BOND
M  V30 END CTAB
M  END
>  <Dataset>  (741) 
ChEMBL_Kinases

>  <Ligand_Instance>  (741) 
nan

>  <PDB_ID>  (741) 
nan

>  <Standardized_SMILES>  (741) 
O=C(Nc1ccc2[nH]nc(-c3ccncc3)c2c1)[C@H]1CCN(CC(=O)N2CCN(c3ccc(-c4ncccn4)cc3)CC2)C1

>  <Name>  (741) 
nan

>  <Pocket>  (741) 
nan

>  <ATP_Site>  (741) 
nan

>  <Peripheral>  (741) 
nan

>  <Num_H_Atoms_ProtBoundConf>  (741) 
nan

>  <Num_Resolved_Atoms>  (741) 
nan

>  <Num_Not_Resolved_Atoms>  (741) 
nan

$$$$
CHEMBL3649498
     RDKit          3D

  0  0  0  0  0  0  0  0  0  0999 V3000
M  V30 BEGIN CTAB
M  V30 COUNTS 33 36 0 0 0
M  V30 BEGIN ATOM
M  V30 1 F -3.003016 -6.749852 1.228303 0
M  V30 2 C -2.154018 -5.719766 1.457220 0
M  V30 3 C -0.788024 -5.956426 1.401011 0
M  V30 4 C 0.112111 -4.925567 1.629983 0
M  V30 5 C -0.354209 -3.656275 1.915563 0
M  V30 6 O 0.439224 -2.547139 2.162334 0
M  V30 7 C 0.388074 -1.392400 1.379186 0
M  V30 8 C 1.247386 -0.364550 1.754923 0
M  V30 9 C 1.176788 0.764102 0.965189 0
M  V30 10 C 0.297245 0.789905 -0.093153 0
M  V30 11 C 0.312074 1.963024 -0.816480 0
M  V30 12 C 1.112140 3.163168 -0.620883 0
M  V30 13 C 1.781601 3.764696 -1.664649 0
M  V30 14 N 2.428821 4.863560 -1.194136 0
M  V30 15 N 2.199763 4.986107 0.101234 0
M  V30 16 C 1.404042 3.964578 0.463845 0
M  V30 17 N -0.537495 2.028676 -1.874127 0
M  V30 18 N -1.323496 1.019421 -2.175529 0
M  V30 19 C -1.386939 -0.141563 -1.516719 0
M  V30 20 C -0.539232 -0.251604 -0.433837 0
M  V30 21 N -0.468667 -1.352795 0.338609 0
M  V30 22 C -1.723274 -3.430266 1.969391 0
M  V30 23 F -2.239900 -2.202163 2.245840 0
M  V30 24 C -2.634332 -4.452790 1.742313 0
M  V30 25 H -0.409244 -6.946551 1.178208 0
M  V30 26 H 1.196792 -5.061629 1.596985 0
M  V30 27 H 1.905504 -0.477100 2.605514 0
M  V30 28 H 1.829291 1.582895 1.215471 0
M  V30 29 H 1.820115 3.452755 -2.715847 0
M  V30 30 H 2.568251 5.736580 0.726387 0
M  V30 31 H 1.028072 3.778233 1.448136 0
M  V30 32 H -2.039393 -0.964177 -1.776058 0
M  V30 33 H -3.705073 -4.247160 1.790879 0
M  V30 END ATOM
M  V30 BEGIN BOND
M  V30 1 1 1 2
M  V30 2 2 2 3
M  V30 3 1 3 4
M  V30 4 2 4 5
M  V30 5 1 5 6
M  V30 6 1 6 7
M  V30 7 2 7 8
M  V30 8 1 8 9
M  V30 9 2 9 10
M  V30 10 1 10 11
M  V30 11 1 11 12
M  V30 12 1 12 13
M  V30 13 2 13 14
M  V30 14 1 14 15
M  V30 15 1 15 16
M  V30 16 2 11 17
M  V30 17 1 17 18
M  V30 18 2 18 19
M  V30 19 1 19 20
M  V30 20 2 20 21
M  V30 21 1 5 22
M  V30 22 1 22 23
M  V30 23 2 22 24
M  V30 24 1 24 2
M  V30 25 1 21 7
M  V30 26 1 20 10
M  V30 27 2 16 12
M  V30 28 1 3 25
M  V30 29 1 4 26
M  V30 30 1 8 27
M  V30 31 1 9 28
M  V30 32 1 13 29
M  V30 33 1 15 30
M  V30 34 1 16 31
M  V30 35 1 19 32
M  V30 36 1 24 33
M  V30 END BOND
M  V30 END CTAB
M  END
>  <Dataset>  (742) 
ChEMBL_Kinases

>  <Ligand_Instance>  (742) 
nan

>  <PDB_ID>  (742) 
nan

>  <Standardized_SMILES>  (742) 
Fc1ccc(Oc2ccc3c(-c4cn[nH]c4)nncc3n2)c(F)c1

>  <Name>  (742) 
nan

>  <Pocket>  (742) 
nan

>  <ATP_Site>  (742) 
nan

>  <Peripheral>  (742) 
nan

>  <Num_H_Atoms_ProtBoundConf>  (742) 
nan

>  <Num_Resolved_Atoms>  (742) 
nan

>  <Num_Not_Resolved_Atoms>  (742) 
nan

$$$$
CHEMBL3649497
     RDKit          3D

  0  0  0  0  0  0  0  0  0  0999 V3000
M  V30 BEGIN CTAB
M  V30 COUNTS 45 48 0 0 0
M  V30 BEGIN ATOM
M  V30 1 C -0.318737 1.686389 -2.761989 0
M  V30 2 C 0.857841 1.208031 -2.036611 0
M  V30 3 C 1.841538 0.504573 -2.681823 0
M  V30 4 C 2.952019 0.045030 -2.011391 0
M  V30 5 S 4.266885 -0.901119 -2.727030 0
M  V30 6 C 3.951036 -2.634567 -2.474672 0
M  V30 7 O 5.576159 -0.560118 -2.049820 0
M  V30 8 O 4.407039 -0.572824 -4.182357 0
M  V30 9 C 3.120063 0.279520 -0.642053 0
M  V30 10 C 2.111225 0.986507 -0.038431 0
M  V30 11 C 0.968864 1.464545 -0.704193 0
M  V30 12 C 0.001166 2.204890 0.093645 0
M  V30 13 N -0.413140 3.480732 -0.048737 0
M  V30 14 N -1.317338 4.034055 0.733971 0
M  V30 15 C -1.917241 3.394009 1.745168 0
M  V30 16 C -1.568214 2.068950 1.985652 0
M  V30 17 N -2.178937 1.416836 2.988384 0
M  V30 18 C -1.873848 0.116138 3.237744 0
M  V30 19 O -2.419956 -0.705044 4.234570 0
M  V30 20 C -1.956102 -2.005913 4.399417 0
M  V30 21 C -3.067693 -2.798740 4.060558 0
M  V30 22 C -2.977370 -4.198554 4.106326 0
M  V30 23 C -1.748065 -4.772629 4.500619 0
M  V30 24 F -1.559587 -6.114719 4.577123 0
M  V30 25 C -0.671798 -3.966407 4.828129 0
M  V30 26 C -0.800443 -2.600403 4.770228 0
M  V30 27 F 0.138272 -1.654328 5.075427 0
M  V30 28 C -0.910519 -0.459400 2.396808 0
M  V30 29 C -0.294687 0.218463 1.375848 0
M  V30 30 C -0.620047 1.546013 1.137124 0
M  V30 31 H -0.861044 0.777089 -3.156446 0
M  V30 32 H -0.081211 2.353442 -3.628794 0
M  V30 33 H -1.049759 2.172076 -2.105239 0
M  V30 34 H 1.819429 0.266992 -3.734793 0
M  V30 35 H 4.931740 -3.130428 -2.258447 0
M  V30 36 H 3.403504 -3.108170 -3.298598 0
M  V30 37 H 3.343758 -2.688949 -1.524391 0
M  V30 38 H 3.963534 -0.046882 -0.031865 0
M  V30 39 H 2.206184 1.186726 1.039049 0
M  V30 40 H -2.663395 3.856944 2.386010 0
M  V30 41 H -4.092683 -2.575124 3.736187 0
M  V30 42 H -3.725265 -4.939598 3.880763 0
M  V30 43 H 0.304099 -4.325044 5.136601 0
M  V30 44 H -0.649804 -1.510385 2.562911 0
M  V30 45 H 0.401364 -0.371611 0.829564 0
M  V30 END ATOM
M  V30 BEGIN BOND
M  V30 1 1 1 2
M  V30 2 2 2 3
M  V30 3 1 3 4
M  V30 4 1 4 5
M  V30 5 1 5 6
M  V30 6 2 5 7
M  V30 7 2 5 8
M  V30 8 2 4 9
M  V30 9 1 9 10
M  V30 10 2 10 11
M  V30 11 1 11 12
M  V30 12 2 12 13
M  V30 13 1 13 14
M  V30 14 2 14 15
M  V30 15 1 15 16
M  V30 16 2 16 17
M  V30 17 1 17 18
M  V30 18 1 18 19
M  V30 19 1 19 20
M  V30 20 2 20 21
M  V30 21 1 21 22
M  V30 22 2 22 23
M  V30 23 1 23 24
M  V30 24 1 23 25
M  V30 25 2 25 26
M  V30 26 1 26 27
M  V30 27 2 18 28
M  V30 28 1 28 29
M  V30 29 2 29 30
M  V30 30 1 11 2
M  V30 31 1 30 12
M  V30 32 1 30 16
M  V30 33 1 26 20
M  V30 34 1 1 31
M  V30 35 1 1 32
M  V30 36 1 1 33
M  V30 37 1 3 34
M  V30 38 1 6 35
M  V30 39 1 6 36
M  V30 40 1 6 37
M  V30 41 1 9 38
M  V30 42 1 10 39
M  V30 43 1 15 40
M  V30 44 1 21 41
M  V30 45 1 22 42
M  V30 46 1 25 43
M  V30 47 1 28 44
M  V30 48 1 29 45
M  V30 END BOND
M  V30 END CTAB
M  END
>  <Dataset>  (743) 
ChEMBL_Kinases

>  <Ligand_Instance>  (743) 
nan

>  <PDB_ID>  (743) 
nan

>  <Standardized_SMILES>  (743) 
Cc1cc(S(C)(=O)=O)ccc1-c1nncc2nc(Oc3ccc(F)cc3F)ccc12

>  <Name>  (743) 
nan

>  <Pocket>  (743) 
nan

>  <ATP_Site>  (743) 
nan

>  <Peripheral>  (743) 
nan

>  <Num_H_Atoms_ProtBoundConf>  (743) 
nan

>  <Num_Resolved_Atoms>  (743) 
nan

>  <Num_Not_Resolved_Atoms>  (743) 
nan

$$$$
CHEMBL3649496
     RDKit          3D

  0  0  0  0  0  0  0  0  0  0999 V3000
M  V30 BEGIN CTAB
M  V30 COUNTS 43 46 0 0 0
M  V30 BEGIN ATOM
M  V30 1 C 1.380272 3.952248 -0.070665 0
M  V30 2 C 2.366154 2.833226 -0.003445 0
M  V30 3 C 3.495815 2.891393 -0.825665 0
M  V30 4 C 4.403887 1.883218 -0.777610 0
M  V30 5 C 4.277181 0.794740 0.041790 0
M  V30 6 C 5.155158 -0.358386 0.206158 0
M  V30 7 N 6.372206 -0.563028 -0.491873 0
M  V30 8 O 4.974837 -1.342390 0.983579 0
M  V30 9 C 3.149184 0.730844 0.867321 0
M  V30 10 C 2.196254 1.755651 0.839035 0
M  V30 11 C 1.030222 1.693681 1.710607 0
M  V30 12 N 0.848465 2.715465 2.563900 0
M  V30 13 N -0.208906 2.706279 3.392293 0
M  V30 14 C -1.093902 1.686234 3.381895 0
M  V30 15 C -0.987844 0.577172 2.527210 0
M  V30 16 N -1.870901 -0.436839 2.510995 0
M  V30 17 C -1.681227 -1.472415 1.629825 0
M  V30 18 O -2.703960 -2.324214 1.838944 0
M  V30 19 C -3.053294 -3.503222 1.299282 0
M  V30 20 C -2.609193 -4.393935 0.350830 0
M  V30 21 C -3.250364 -5.568635 0.038110 0
M  V30 22 C -4.410578 -5.914271 0.689211 0
M  V30 23 F -4.937822 -7.091668 0.287423 0
M  V30 24 C -4.921431 -5.068473 1.658046 0
M  V30 25 C -4.241385 -3.878447 1.951335 0
M  V30 26 F -4.948385 -3.239751 2.926739 0
M  V30 27 C -0.575320 -1.372052 0.824963 0
M  V30 28 C 0.343692 -0.352497 0.817376 0
M  V30 29 C 0.117949 0.661111 1.712109 0
M  V30 30 H 1.576594 4.655483 0.778589 0
M  V30 31 H 1.361221 4.440314 -1.049170 0
M  V30 32 H 0.342673 3.558283 0.086056 0
M  V30 33 H 3.705069 3.703101 -1.516097 0
M  V30 34 H 5.307825 1.852176 -1.383191 0
M  V30 35 H 7.346273 -0.483527 -0.826638 0
M  V30 36 H 6.320858 -1.351300 -1.204378 0
M  V30 37 H 3.001859 -0.110450 1.544206 0
M  V30 38 H -1.950921 1.701096 4.071262 0
M  V30 39 H -1.704814 -4.076035 -0.123282 0
M  V30 40 H -2.794728 -6.172815 -0.720836 0
M  V30 41 H -5.825667 -5.465791 2.078810 0
M  V30 42 H -0.474008 -2.191260 0.162341 0
M  V30 43 H 1.145970 -0.439695 0.111400 0
M  V30 END ATOM
M  V30 BEGIN BOND
M  V30 1 1 1 2
M  V30 2 2 2 3
M  V30 3 1 3 4
M  V30 4 2 4 5
M  V30 5 1 5 6
M  V30 6 1 6 7
M  V30 7 2 6 8
M  V30 8 1 5 9
M  V30 9 2 9 10
M  V30 10 1 10 11
M  V30 11 2 11 12
M  V30 12 1 12 13
M  V30 13 2 13 14
M  V30 14 1 14 15
M  V30 15 2 15 16
M  V30 16 1 16 17
M  V30 17 1 17 18
M  V30 18 1 18 19
M  V30 19 2 19 20
M  V30 20 1 20 21
M  V30 21 2 21 22
M  V30 22 1 22 23
M  V30 23 1 22 24
M  V30 24 2 24 25
M  V30 25 1 25 26
M  V30 26 2 17 27
M  V30 27 1 27 28
M  V30 28 2 28 29
M  V30 29 1 10 2
M  V30 30 1 29 11
M  V30 31 1 29 15
M  V30 32 1 25 19
M  V30 33 1 1 30
M  V30 34 1 1 31
M  V30 35 1 1 32
M  V30 36 1 3 33
M  V30 37 1 4 34
M  V30 38 1 7 35
M  V30 39 1 7 36
M  V30 40 1 9 37
M  V30 41 1 14 38
M  V30 42 1 20 39
M  V30 43 1 21 40
M  V30 44 1 24 41
M  V30 45 1 27 42
M  V30 46 1 28 43
M  V30 END BOND
M  V30 END CTAB
M  END
>  <Dataset>  (744) 
ChEMBL_Kinases

>  <Ligand_Instance>  (744) 
nan

>  <PDB_ID>  (744) 
nan

>  <Standardized_SMILES>  (744) 
Cc1ccc(C(N)=O)cc1-c1nncc2nc(Oc3ccc(F)cc3F)ccc12

>  <Name>  (744) 
nan

>  <Pocket>  (744) 
nan

>  <ATP_Site>  (744) 
nan

>  <Peripheral>  (744) 
nan

>  <Num_H_Atoms_ProtBoundConf>  (744) 
nan

>  <Num_Resolved_Atoms>  (744) 
nan

>  <Num_Not_Resolved_Atoms>  (744) 
nan

$$$$
CHEMBL3649495
     RDKit          3D

  0  0  0  0  0  0  0  0  0  0999 V3000
M  V30 BEGIN CTAB
M  V30 COUNTS 39 42 0 0 0
M  V30 BEGIN ATOM
M  V30 1 C 4.541877 -1.730352 2.113991 0
M  V30 2 C 3.872506 -2.471297 1.043053 0
M  V30 3 C 4.034538 -3.826146 0.805709 0
M  V30 4 C 3.388895 -4.519801 -0.204001 0
M  V30 5 C 2.536896 -3.787572 -1.007822 0
M  V30 6 C 2.358575 -2.418348 -0.785755 0
M  V30 7 C 3.032610 -1.755830 0.247897 0
M  V30 8 C 2.722546 -0.333344 0.271177 0
M  V30 9 N 3.766616 0.533311 0.107777 0
M  V30 10 N 3.609060 1.844571 0.112623 0
M  V30 11 C 2.412552 2.434677 0.278412 0
M  V30 12 C 1.309933 1.625133 0.450458 0
M  V30 13 N 0.049277 2.109921 0.636034 0
M  V30 14 C -1.004146 1.274423 0.811021 0
M  V30 15 O -2.151285 2.046033 0.974692 0
M  V30 16 C -3.414865 1.523805 1.196517 0
M  V30 17 C -4.374838 1.823917 0.247978 0
M  V30 18 C -5.674879 1.372739 0.340933 0
M  V30 19 C -5.974044 0.588212 1.455788 0
M  V30 20 F -7.200815 0.076918 1.685671 0
M  V30 21 C -5.027075 0.272899 2.422206 0
M  V30 22 C -3.739676 0.746415 2.287143 0
M  V30 23 F -2.758378 0.478324 3.198667 0
M  V30 24 C -0.810202 -0.087989 0.802525 0
M  V30 25 C 0.438513 -0.604992 0.618129 0
M  V30 26 C 1.487886 0.258032 0.443453 0
M  V30 27 H 5.474890 -2.293107 2.393065 0
M  V30 28 H 4.787762 -0.710076 1.817071 0
M  V30 29 H 3.922784 -1.751277 3.045170 0
M  V30 30 H 4.718123 -4.383105 1.460578 0
M  V30 31 H 3.534519 -5.584241 -0.368117 0
M  V30 32 H 2.020412 -4.307211 -1.806851 0
M  V30 33 H 1.665343 -1.955654 -1.481980 0
M  V30 34 H 2.212138 3.497036 0.291554 0
M  V30 35 H -4.242611 2.431496 -0.661102 0
M  V30 36 H -6.472811 1.569746 -0.362978 0
M  V30 37 H -5.254005 -0.334633 3.289414 0
M  V30 38 H -1.737850 -0.612908 0.953410 0
M  V30 39 H 0.526193 -1.680529 0.622602 0
M  V30 END ATOM
M  V30 BEGIN BOND
M  V30 1 1 1 2
M  V30 2 2 2 3
M  V30 3 1 3 4
M  V30 4 2 4 5
M  V30 5 1 5 6
M  V30 6 2 6 7
M  V30 7 1 7 8
M  V30 8 2 8 9
M  V30 9 1 9 10
M  V30 10 2 10 11
M  V30 11 1 11 12
M  V30 12 2 12 13
M  V30 13 1 13 14
M  V30 14 1 14 15
M  V30 15 1 15 16
M  V30 16 2 16 17
M  V30 17 1 17 18
M  V30 18 2 18 19
M  V30 19 1 19 20
M  V30 20 1 19 21
M  V30 21 2 21 22
M  V30 22 1 22 23
M  V30 23 2 14 24
M  V30 24 1 24 25
M  V30 25 2 25 26
M  V30 26 1 7 2
M  V30 27 1 26 8
M  V30 28 1 26 12
M  V30 29 1 22 16
M  V30 30 1 1 27
M  V30 31 1 1 28
M  V30 32 1 1 29
M  V30 33 1 3 30
M  V30 34 1 4 31
M  V30 35 1 5 32
M  V30 36 1 6 33
M  V30 37 1 11 34
M  V30 38 1 17 35
M  V30 39 1 18 36
M  V30 40 1 21 37
M  V30 41 1 24 38
M  V30 42 1 25 39
M  V30 END BOND
M  V30 END CTAB
M  END
>  <Dataset>  (745) 
ChEMBL_Kinases

>  <Ligand_Instance>  (745) 
nan

>  <PDB_ID>  (745) 
nan

>  <Standardized_SMILES>  (745) 
Cc1ccccc1-c1nncc2nc(Oc3ccc(F)cc3F)ccc12

>  <Name>  (745) 
nan

>  <Pocket>  (745) 
nan

>  <ATP_Site>  (745) 
nan

>  <Peripheral>  (745) 
nan

>  <Num_H_Atoms_ProtBoundConf>  (745) 
nan

>  <Num_Resolved_Atoms>  (745) 
nan

>  <Num_Not_Resolved_Atoms>  (745) 
nan

$$$$
CHEMBL3649494
     RDKit          3D

  0  0  0  0  0  0  0  0  0  0999 V3000
M  V30 BEGIN CTAB
M  V30 COUNTS 40 43 0 0 0
M  V30 BEGIN ATOM
M  V30 1 F -1.362400 -6.756566 3.063786 0
M  V30 2 C -0.427290 -5.926535 2.492890 0
M  V30 3 C 0.644096 -5.371400 3.172291 0
M  V30 4 C 1.518599 -4.544658 2.471144 0
M  V30 5 C 1.379455 -4.244159 1.133056 0
M  V30 6 N 2.290359 -3.401793 0.424786 0
M  V30 7 C 1.467988 -2.311068 0.037457 0
M  V30 8 C 1.668658 -1.194804 0.865611 0
M  V30 9 C 0.983929 -0.020582 0.705756 0
M  V30 10 C 0.048647 0.143473 -0.281977 0
M  V30 11 C -0.621312 1.327302 -0.440643 0
M  V30 12 N -0.504495 2.494946 0.388791 0
M  V30 13 C -0.830565 3.727465 -0.369937 0
M  V30 14 C -0.104959 4.861402 0.303034 0
M  V30 15 O 1.144168 4.535437 0.774696 0
M  V30 16 C 1.084073 3.607601 1.831105 0
M  V30 17 C -0.204139 2.850157 1.747672 0
M  V30 18 N -1.479830 1.330368 -1.451940 0
M  V30 19 N -1.678557 0.297156 -2.235845 0
M  V30 20 C -1.038455 -0.868421 -2.098292 0
M  V30 21 C -0.133714 -0.956528 -1.080552 0
M  V30 22 N 0.545134 -2.095389 -0.908513 0
M  V30 23 C 0.274597 -4.844489 0.522033 0
M  V30 24 F 0.043114 -4.622035 -0.811758 0
M  V30 25 C -0.633718 -5.672458 1.145155 0
M  V30 26 H 0.749248 -5.609688 4.219405 0
M  V30 27 H 2.362018 -4.107150 2.987609 0
M  V30 28 H 3.328333 -3.540314 0.229117 0
M  V30 29 H 2.379747 -1.186633 1.691251 0
M  V30 30 H 1.171053 0.807814 1.354525 0
M  V30 31 H -1.924962 3.868070 -0.262906 0
M  V30 32 H -0.522712 3.625951 -1.430307 0
M  V30 33 H 0.068934 5.651037 -0.481323 0
M  V30 34 H -0.698392 5.364288 1.097272 0
M  V30 35 H 1.240633 4.119871 2.803323 0
M  V30 36 H 1.975291 2.968191 1.683048 0
M  V30 37 H -0.323829 2.037917 2.490897 0
M  V30 38 H -0.999403 3.621334 2.064928 0
M  V30 39 H -1.209349 -1.716401 -2.745213 0
M  V30 40 H -1.466511 -6.097151 0.604398 0
M  V30 END ATOM
M  V30 BEGIN BOND
M  V30 1 1 1 2
M  V30 2 2 2 3
M  V30 3 1 3 4
M  V30 4 2 4 5
M  V30 5 1 5 6
M  V30 6 1 6 7
M  V30 7 2 7 8
M  V30 8 1 8 9
M  V30 9 2 9 10
M  V30 10 1 10 11
M  V30 11 1 11 12
M  V30 12 1 12 13
M  V30 13 1 13 14
M  V30 14 1 14 15
M  V30 15 1 15 16
M  V30 16 1 16 17
M  V30 17 2 11 18
M  V30 18 1 18 19
M  V30 19 2 19 20
M  V30 20 1 20 21
M  V30 21 2 21 22
M  V30 22 1 5 23
M  V30 23 1 23 24
M  V30 24 2 23 25
M  V30 25 1 25 2
M  V30 26 1 22 7
M  V30 27 1 21 10
M  V30 28 1 17 12
M  V30 29 1 3 26
M  V30 30 1 4 27
M  V30 31 1 6 28
M  V30 32 1 8 29
M  V30 33 1 9 30
M  V30 34 1 13 31
M  V30 35 1 13 32
M  V30 36 1 14 33
M  V30 37 1 14 34
M  V30 38 1 16 35
M  V30 39 1 16 36
M  V30 40 1 17 37
M  V30 41 1 17 38
M  V30 42 1 20 39
M  V30 43 1 25 40
M  V30 END BOND
M  V30 END CTAB
M  END
>  <Dataset>  (746) 
ChEMBL_Kinases

>  <Ligand_Instance>  (746) 
nan

>  <PDB_ID>  (746) 
nan

>  <Standardized_SMILES>  (746) 
Fc1ccc(Nc2ccc3c(N4CCOCC4)nncc3n2)c(F)c1

>  <Name>  (746) 
nan

>  <Pocket>  (746) 
nan

>  <ATP_Site>  (746) 
nan

>  <Peripheral>  (746) 
nan

>  <Num_H_Atoms_ProtBoundConf>  (746) 
nan

>  <Num_Resolved_Atoms>  (746) 
nan

>  <Num_Not_Resolved_Atoms>  (746) 
nan

$$$$
CHEMBL3649493
     RDKit          3D

  0  0  0  0  0  0  0  0  0  0999 V3000
M  V30 BEGIN CTAB
M  V30 COUNTS 39 42 0 0 0
M  V30 BEGIN ATOM
M  V30 1 C 5.071276 -1.548757 1.113236 0
M  V30 2 C 4.055325 -2.466523 0.591665 0
M  V30 3 N 3.947161 -3.789802 0.775462 0
M  V30 4 O 2.896451 -4.196245 0.133335 0
M  V30 5 C 2.292402 -3.204363 -0.473373 0
M  V30 6 C 1.045852 -3.357697 -1.296850 0
M  V30 7 C 3.028441 -2.045069 -0.195066 0
M  V30 8 C 2.559331 -0.786708 -0.752704 0
M  V30 9 N 3.011197 -0.284877 -1.917053 0
M  V30 10 N 2.531998 0.863699 -2.402542 0
M  V30 11 C 1.569726 1.543076 -1.712393 0
M  V30 12 C 1.092127 1.045721 -0.514445 0
M  V30 13 N 0.144366 1.775263 0.101013 0
M  V30 14 C -0.354423 1.325748 1.279576 0
M  V30 15 N -1.370867 1.888810 2.121579 0
M  V30 16 C -2.658115 1.264746 2.220459 0
M  V30 17 C -2.960572 0.106198 1.543606 0
M  V30 18 C -4.159317 -0.571300 1.574946 0
M  V30 19 C -5.124358 0.023624 2.390244 0
M  V30 20 F -6.328313 -0.601034 2.463293 0
M  V30 21 C -4.878322 1.181385 3.089536 0
M  V30 22 C -3.641396 1.814138 3.011596 0
M  V30 23 F -3.375584 2.960348 3.691281 0
M  V30 24 C 0.106655 0.131779 1.840699 0
M  V30 25 C 1.082123 -0.616068 1.202125 0
M  V30 26 C 1.579244 -0.148427 0.005984 0
M  V30 27 H 6.090140 -2.000363 1.163118 0
M  V30 28 H 5.092437 -0.577919 0.598935 0
M  V30 29 H 4.839937 -1.318862 2.197691 0
M  V30 30 H 1.286713 -3.445712 -2.384883 0
M  V30 31 H 0.528602 -4.281665 -0.975774 0
M  V30 32 H 0.406680 -2.438425 -1.177824 0
M  V30 33 H 1.244629 2.462583 -2.186683 0
M  V30 34 H -1.179699 2.751441 2.660093 0
M  V30 35 H -2.184118 -0.344361 0.904788 0
M  V30 36 H -4.331188 -1.483243 1.018735 0
M  V30 37 H -5.650905 1.603661 3.707632 0
M  V30 38 H -0.210989 -0.325271 2.762775 0
M  V30 39 H 1.492321 -1.550330 1.572305 0
M  V30 END ATOM
M  V30 BEGIN BOND
M  V30 1 1 1 2
M  V30 2 2 2 3
M  V30 3 1 3 4
M  V30 4 1 4 5
M  V30 5 1 5 6
M  V30 6 2 5 7
M  V30 7 1 7 8
M  V30 8 2 8 9
M  V30 9 1 9 10
M  V30 10 2 10 11
M  V30 11 1 11 12
M  V30 12 2 12 13
M  V30 13 1 13 14
M  V30 14 1 14 15
M  V30 15 1 15 16
M  V30 16 2 16 17
M  V30 17 1 17 18
M  V30 18 2 18 19
M  V30 19 1 19 20
M  V30 20 1 19 21
M  V30 21 2 21 22
M  V30 22 1 22 23
M  V30 23 2 14 24
M  V30 24 1 24 25
M  V30 25 2 25 26
M  V30 26 1 7 2
M  V30 27 1 26 8
M  V30 28 1 26 12
M  V30 29 1 22 16
M  V30 30 1 1 27
M  V30 31 1 1 28
M  V30 32 1 1 29
M  V30 33 1 6 30
M  V30 34 1 6 31
M  V30 35 1 6 32
M  V30 36 1 11 33
M  V30 37 1 15 34
M  V30 38 1 17 35
M  V30 39 1 18 36
M  V30 40 1 21 37
M  V30 41 1 24 38
M  V30 42 1 25 39
M  V30 END BOND
M  V30 END CTAB
M  END
>  <Dataset>  (747) 
ChEMBL_Kinases

>  <Ligand_Instance>  (747) 
nan

>  <PDB_ID>  (747) 
nan

>  <Standardized_SMILES>  (747) 
Cc1noc(C)c1-c1nncc2nc(Nc3ccc(F)cc3F)ccc12

>  <Name>  (747) 
nan

>  <Pocket>  (747) 
nan

>  <ATP_Site>  (747) 
nan

>  <Peripheral>  (747) 
nan

>  <Num_H_Atoms_ProtBoundConf>  (747) 
nan

>  <Num_Resolved_Atoms>  (747) 
nan

>  <Num_Not_Resolved_Atoms>  (747) 
nan

$$$$
CHEMBL3649492
     RDKit          3D

  0  0  0  0  0  0  0  0  0  0999 V3000
M  V30 BEGIN CTAB
M  V30 COUNTS 37 40 0 0 0
M  V30 BEGIN ATOM
M  V30 1 C 1.149417 -6.106691 0.886542 0
M  V30 2 C 1.595676 -5.086320 1.900065 0
M  V30 3 N 2.173745 -5.494630 3.070803 0
M  V30 4 N 2.483792 -4.454122 3.784325 0
M  V30 5 C 2.098153 -3.431196 3.053887 0
M  V30 6 C 1.525803 -3.703429 1.848956 0
M  V30 7 C 0.920956 -3.075066 0.715781 0
M  V30 8 N 0.326619 -3.849958 -0.193141 0
M  V30 9 N -0.261582 -3.403016 -1.277201 0
M  V30 10 C -0.339236 -2.111738 -1.608962 0
M  V30 11 C 0.242571 -1.219719 -0.743058 0
M  V30 12 N 0.238827 0.103631 -0.981300 0
M  V30 13 C 0.821156 1.012522 -0.149571 0
M  V30 14 N 0.692317 2.354199 -0.610489 0
M  V30 15 C -0.471924 3.089806 -0.246355 0
M  V30 16 C -1.215345 3.519946 -1.347057 0
M  V30 17 C -2.381371 4.246314 -1.251330 0
M  V30 18 C -2.865771 4.582895 0.016150 0
M  V30 19 F -4.001270 5.293121 0.213837 0
M  V30 20 C -2.130307 4.157356 1.100284 0
M  V30 21 C -0.968589 3.433959 1.009690 0
M  V30 22 F -0.188034 2.978272 2.017157 0
M  V30 23 C 1.435848 0.516067 0.982679 0
M  V30 24 C 1.425331 -0.837015 1.202603 0
M  V30 25 C 0.840861 -1.756832 0.372220 0
M  V30 26 H 0.040628 -6.056888 0.764974 0
M  V30 27 H 1.686710 -5.917476 -0.084588 0
M  V30 28 H 1.421759 -7.102174 1.214818 0
M  V30 29 H 2.933504 -4.554770 4.708866 0
M  V30 30 H 2.259454 -2.477005 3.492678 0
M  V30 31 H -0.833526 -1.793226 -2.509880 0
M  V30 32 H 1.428849 2.817706 -1.210833 0
M  V30 33 H -0.924153 3.309383 -2.388928 0
M  V30 34 H -2.945366 4.571358 -2.114313 0
M  V30 35 H -2.413111 4.362668 2.146246 0
M  V30 36 H 1.875448 1.292170 1.591158 0
M  V30 37 H 1.919807 -1.166526 2.066258 0
M  V30 END ATOM
M  V30 BEGIN BOND
M  V30 1 1 1 2
M  V30 2 2 2 3
M  V30 3 1 3 4
M  V30 4 1 4 5
M  V30 5 2 5 6
M  V30 6 1 6 7
M  V30 7 2 7 8
M  V30 8 1 8 9
M  V30 9 2 9 10
M  V30 10 1 10 11
M  V30 11 2 11 12
M  V30 12 1 12 13
M  V30 13 1 13 14
M  V30 14 1 14 15
M  V30 15 2 15 16
M  V30 16 1 16 17
M  V30 17 2 17 18
M  V30 18 1 18 19
M  V30 19 1 18 20
M  V30 20 2 20 21
M  V30 21 1 21 22
M  V30 22 2 13 23
M  V30 23 1 23 24
M  V30 24 2 24 25
M  V30 25 1 6 2
M  V30 26 1 25 7
M  V30 27 1 25 11
M  V30 28 1 21 15
M  V30 29 1 1 26
M  V30 30 1 1 27
M  V30 31 1 1 28
M  V30 32 1 4 29
M  V30 33 1 5 30
M  V30 34 1 10 31
M  V30 35 1 14 32
M  V30 36 1 16 33
M  V30 37 1 17 34
M  V30 38 1 20 35
M  V30 39 1 23 36
M  V30 40 1 24 37
M  V30 END BOND
M  V30 END CTAB
M  END
>  <Dataset>  (748) 
ChEMBL_Kinases

>  <Ligand_Instance>  (748) 
nan

>  <PDB_ID>  (748) 
nan

>  <Standardized_SMILES>  (748) 
Cc1n[nH]cc1-c1nncc2nc(Nc3ccc(F)cc3F)ccc12

>  <Name>  (748) 
nan

>  <Pocket>  (748) 
nan

>  <ATP_Site>  (748) 
nan

>  <Peripheral>  (748) 
nan

>  <Num_H_Atoms_ProtBoundConf>  (748) 
nan

>  <Num_Resolved_Atoms>  (748) 
nan

>  <Num_Not_Resolved_Atoms>  (748) 
nan

$$$$
CHEMBL3649491
     RDKit          3D

  0  0  0  0  0  0  0  0  0  0999 V3000
M  V30 BEGIN CTAB
M  V30 COUNTS 40 43 0 0 0
M  V30 BEGIN ATOM
M  V30 1 C 4.154131 -3.059227 0.036184 0
M  V30 2 C 2.806011 -3.386875 -0.484058 0
M  V30 3 N 2.133717 -4.545325 -0.570741 0
M  V30 4 N 0.933883 -4.334625 -1.124786 0
M  V30 5 C 0.801249 -3.018122 -1.412870 0
M  V30 6 C -0.441842 -2.453383 -2.053929 0
M  V30 7 C 1.989878 -2.410107 -1.006898 0
M  V30 8 C 2.049254 -0.966839 -1.233042 0
M  V30 9 N 2.486280 -0.268426 -2.288799 0
M  V30 10 N 2.444593 1.035967 -2.328902 0
M  V30 11 C 1.966479 1.821899 -1.332859 0
M  V30 12 C 1.503539 1.157170 -0.221119 0
M  V30 13 N 1.023562 1.931391 0.789644 0
M  V30 14 C 0.550290 1.374056 1.924101 0
M  V30 15 N 0.008125 2.096197 3.040144 0
M  V30 16 C -1.413131 1.855164 2.954663 0
M  V30 17 C -1.847922 1.231729 4.131326 0
M  V30 18 C -3.182138 0.888812 4.271107 0
M  V30 19 C -4.073561 1.171321 3.233174 0
M  V30 20 F -5.408691 0.863507 3.291858 0
M  V30 21 C -3.615074 1.785953 2.087064 0
M  V30 22 C -2.271127 2.142939 1.921137 0
M  V30 23 F -1.699803 2.744158 0.860532 0
M  V30 24 C 0.562168 -0.015130 2.040091 0
M  V30 25 C 1.050734 -0.819002 1.011484 0
M  V30 26 C 1.539815 -0.238335 -0.159364 0
M  V30 27 H 4.848451 -3.929341 -0.052455 0
M  V30 28 H 4.563462 -2.163694 -0.455661 0
M  V30 29 H 4.045779 -2.836264 1.130100 0
M  V30 30 H 0.204795 -5.071051 -1.306866 0
M  V30 31 H -0.898442 -3.245616 -2.688061 0
M  V30 32 H -0.102699 -1.634631 -2.732759 0
M  V30 33 H -1.153510 -2.113353 -1.298308 0
M  V30 34 H 1.953363 2.891193 -1.412263 0
M  V30 35 H 0.533237 2.654902 3.731564 0
M  V30 36 H -1.245436 0.965425 4.995397 0
M  V30 37 H -3.590366 0.399722 5.158920 0
M  V30 38 H -4.256484 2.041623 1.224710 0
M  V30 39 H 0.181722 -0.482433 2.955052 0
M  V30 40 H 1.069187 -1.909797 1.081315 0
M  V30 END ATOM
M  V30 BEGIN BOND
M  V30 1 1 1 2
M  V30 2 2 2 3
M  V30 3 1 3 4
M  V30 4 1 4 5
M  V30 5 1 5 6
M  V30 6 2 5 7
M  V30 7 1 7 8
M  V30 8 2 8 9
M  V30 9 1 9 10
M  V30 10 2 10 11
M  V30 11 1 11 12
M  V30 12 2 12 13
M  V30 13 1 13 14
M  V30 14 1 14 15
M  V30 15 1 15 16
M  V30 16 2 16 17
M  V30 17 1 17 18
M  V30 18 2 18 19
M  V30 19 1 19 20
M  V30 20 1 19 21
M  V30 21 2 21 22
M  V30 22 1 22 23
M  V30 23 2 14 24
M  V30 24 1 24 25
M  V30 25 2 25 26
M  V30 26 1 7 2
M  V30 27 1 26 8
M  V30 28 1 26 12
M  V30 29 1 22 16
M  V30 30 1 1 27
M  V30 31 1 1 28
M  V30 32 1 1 29
M  V30 33 1 4 30
M  V30 34 1 6 31
M  V30 35 1 6 32
M  V30 36 1 6 33
M  V30 37 1 11 34
M  V30 38 1 15 35
M  V30 39 1 17 36
M  V30 40 1 18 37
M  V30 41 1 21 38
M  V30 42 1 24 39
M  V30 43 1 25 40
M  V30 END BOND
M  V30 END CTAB
M  END
>  <Dataset>  (749) 
ChEMBL_Kinases

>  <Ligand_Instance>  (749) 
nan

>  <PDB_ID>  (749) 
nan

>  <Standardized_SMILES>  (749) 
Cc1n[nH]c(C)c1-c1nncc2nc(Nc3ccc(F)cc3F)ccc12

>  <Name>  (749) 
nan

>  <Pocket>  (749) 
nan

>  <ATP_Site>  (749) 
nan

>  <Peripheral>  (749) 
nan

>  <Num_H_Atoms_ProtBoundConf>  (749) 
nan

>  <Num_Resolved_Atoms>  (749) 
nan

>  <Num_Not_Resolved_Atoms>  (749) 
nan

$$$$
CHEMBL3649490
     RDKit          3D

  0  0  0  0  0  0  0  0  0  0999 V3000
M  V30 BEGIN CTAB
M  V30 COUNTS 34 37 0 0 0
M  V30 BEGIN ATOM
M  V30 1 F -0.816060 -6.050118 4.839327 0
M  V30 2 C -0.278362 -5.190161 3.917246 0
M  V30 3 C -0.029882 -5.600259 2.628103 0
M  V30 4 C 0.511402 -4.682643 1.755403 0
M  V30 5 C 0.822383 -3.363662 2.100265 0
M  V30 6 N 1.373623 -2.589952 1.039699 0
M  V30 7 C 0.873352 -1.391385 0.455504 0
M  V30 8 C 1.168518 -0.100927 0.865208 0
M  V30 9 C 0.590597 0.930755 0.179027 0
M  V30 10 C -0.245675 0.695299 -0.869817 0
M  V30 11 C -0.763412 1.803105 -1.484883 0
M  V30 12 C -0.547498 3.208729 -1.171446 0
M  V30 13 C -0.237838 4.137259 -2.169660 0
M  V30 14 N -0.104556 5.361412 -1.592280 0
M  V30 15 N -0.309263 5.264506 -0.302152 0
M  V30 16 C -0.576891 3.974605 -0.036291 0
M  V30 17 N -1.592762 1.591474 -2.533511 0
M  V30 18 N -1.863923 0.363871 -2.912286 0
M  V30 19 C -1.376901 -0.747958 -2.334846 0
M  V30 20 C -0.527038 -0.574376 -1.262187 0
M  V30 21 N 0.043952 -1.604574 -0.584640 0
M  V30 22 C 0.560927 -2.985045 3.400189 0
M  V30 23 F 0.880755 -1.700017 3.678454 0
M  V30 24 C 0.020434 -3.896435 4.276839 0
M  V30 25 H -0.259406 -6.609039 2.335848 0
M  V30 26 H 0.683572 -5.068879 0.753040 0
M  V30 27 H 2.277515 -2.863113 0.555268 0
M  V30 28 H 1.849035 -0.032226 1.715046 0
M  V30 29 H 0.835818 1.916957 0.506782 0
M  V30 30 H -0.119859 3.937934 -3.225510 0
M  V30 31 H -0.268622 6.049009 0.376486 0
M  V30 32 H -0.799029 3.553706 0.933345 0
M  V30 33 H -1.613426 -1.744176 -2.662539 0
M  V30 34 H -0.163085 -3.537159 5.289211 0
M  V30 END ATOM
M  V30 BEGIN BOND
M  V30 1 1 1 2
M  V30 2 2 2 3
M  V30 3 1 3 4
M  V30 4 2 4 5
M  V30 5 1 5 6
M  V30 6 1 6 7
M  V30 7 2 7 8
M  V30 8 1 8 9
M  V30 9 2 9 10
M  V30 10 1 10 11
M  V30 11 1 11 12
M  V30 12 1 12 13
M  V30 13 2 13 14
M  V30 14 1 14 15
M  V30 15 1 15 16
M  V30 16 2 11 17
M  V30 17 1 17 18
M  V30 18 2 18 19
M  V30 19 1 19 20
M  V30 20 2 20 21
M  V30 21 1 5 22
M  V30 22 1 22 23
M  V30 23 2 22 24
M  V30 24 1 24 2
M  V30 25 1 21 7
M  V30 26 1 20 10
M  V30 27 2 16 12
M  V30 28 1 3 25
M  V30 29 1 4 26
M  V30 30 1 6 27
M  V30 31 1 8 28
M  V30 32 1 9 29
M  V30 33 1 13 30
M  V30 34 1 15 31
M  V30 35 1 16 32
M  V30 36 1 19 33
M  V30 37 1 24 34
M  V30 END BOND
M  V30 END CTAB
M  END
>  <Dataset>  (750) 
ChEMBL_Kinases

>  <Ligand_Instance>  (750) 
nan

>  <PDB_ID>  (750) 
nan

>  <Standardized_SMILES>  (750) 
Fc1ccc(Nc2ccc3c(-c4cn[nH]c4)nncc3n2)c(F)c1

>  <Name>  (750) 
nan

>  <Pocket>  (750) 
nan

>  <ATP_Site>  (750) 
nan

>  <Peripheral>  (750) 
nan

>  <Num_H_Atoms_ProtBoundConf>  (750) 
nan

>  <Num_Resolved_Atoms>  (750) 
nan

>  <Num_Not_Resolved_Atoms>  (750) 
nan

$$$$
CHEMBL3649489
     RDKit          3D

  0  0  0  0  0  0  0  0  0  0999 V3000
M  V30 BEGIN CTAB
M  V30 COUNTS 37 40 0 0 0
M  V30 BEGIN ATOM
M  V30 1 C 0.285142 -5.819292 3.283741 0
M  V30 2 N 1.280964 -4.886738 2.789349 0
M  V30 3 C 1.125616 -4.077648 1.726748 0
M  V30 4 C 2.254715 -3.313478 1.516777 0
M  V30 5 C 2.677546 -2.288176 0.574097 0
M  V30 6 N 3.914522 -2.463988 0.022164 0
M  V30 7 N 4.425421 -1.610653 -0.847196 0
M  V30 8 C 3.806496 -0.498289 -1.280485 0
M  V30 9 C 2.553114 -0.279819 -0.748523 0
M  V30 10 N 1.840898 0.804983 -1.105131 0
M  V30 11 C 0.625608 0.979469 -0.556501 0
M  V30 12 N -0.076960 2.143832 -0.972149 0
M  V30 13 C -1.362175 2.629956 -0.607823 0
M  V30 14 C -1.580633 3.852609 -0.007330 0
M  V30 15 C -2.871223 4.233181 0.306398 0
M  V30 16 C -3.950064 3.399129 0.024115 0
M  V30 17 F -5.239146 3.764619 0.330573 0
M  V30 18 C -3.733293 2.158546 -0.584691 0
M  V30 19 C -2.421055 1.790327 -0.894838 0
M  V30 20 F -2.373224 0.568537 -1.478312 0
M  V30 21 C 0.035995 0.128790 0.355407 0
M  V30 22 C 0.766513 -0.983484 0.720663 0
M  V30 23 C 2.009601 -1.162815 0.159333 0
M  V30 24 C 3.117951 -3.722833 2.541684 0
M  V30 25 N 2.493529 -4.663375 3.276323 0
M  V30 26 H -0.698946 -5.308969 3.242172 0
M  V30 27 H 0.234924 -6.699763 2.619906 0
M  V30 28 H 0.528814 -6.054738 4.336029 0
M  V30 29 H 0.271632 -3.982848 1.071666 0
M  V30 30 H 4.266546 0.172982 -1.996389 0
M  V30 31 H 0.267028 2.841021 -1.635626 0
M  V30 32 H -0.732579 4.484939 0.203563 0
M  V30 33 H -3.070813 5.179131 0.774167 0
M  V30 34 H -4.614653 1.557087 -0.777577 0
M  V30 35 H -0.937297 0.282571 0.786014 0
M  V30 36 H 0.345054 -1.661671 1.429060 0
M  V30 37 H 4.132078 -3.449559 2.845591 0
M  V30 END ATOM
M  V30 BEGIN BOND
M  V30 1 1 1 2
M  V30 2 1 2 3
M  V30 3 2 3 4
M  V30 4 1 4 5
M  V30 5 2 5 6
M  V30 6 1 6 7
M  V30 7 2 7 8
M  V30 8 1 8 9
M  V30 9 2 9 10
M  V30 10 1 10 11
M  V30 11 1 11 12
M  V30 12 1 12 13
M  V30 13 2 13 14
M  V30 14 1 14 15
M  V30 15 2 15 16
M  V30 16 1 16 17
M  V30 17 1 16 18
M  V30 18 2 18 19
M  V30 19 1 19 20
M  V30 20 2 11 21
M  V30 21 1 21 22
M  V30 22 2 22 23
M  V30 23 1 4 24
M  V30 24 2 24 25
M  V30 25 1 25 2
M  V30 26 1 23 5
M  V30 27 1 23 9
M  V30 28 1 19 13
M  V30 29 1 1 26
M  V30 30 1 1 27
M  V30 31 1 1 28
M  V30 32 1 3 29
M  V30 33 1 8 30
M  V30 34 1 12 31
M  V30 35 1 14 32
M  V30 36 1 15 33
M  V30 37 1 18 34
M  V30 38 1 21 35
M  V30 39 1 22 36
M  V30 40 1 24 37
M  V30 END BOND
M  V30 END CTAB
M  END
>  <Dataset>  (751) 
ChEMBL_Kinases

>  <Ligand_Instance>  (751) 
nan

>  <PDB_ID>  (751) 
nan

>  <Standardized_SMILES>  (751) 
Cn1cc(-c2nncc3nc(Nc4ccc(F)cc4F)ccc23)cn1

>  <Name>  (751) 
nan

>  <Pocket>  (751) 
nan

>  <ATP_Site>  (751) 
nan

>  <Peripheral>  (751) 
nan

>  <Num_H_Atoms_ProtBoundConf>  (751) 
nan

>  <Num_Resolved_Atoms>  (751) 
nan

>  <Num_Not_Resolved_Atoms>  (751) 
nan

$$$$
CHEMBL3649488
     RDKit          3D

  0  0  0  0  0  0  0  0  0  0999 V3000
M  V30 BEGIN CTAB
M  V30 COUNTS 52 56 0 0 0
M  V30 BEGIN ATOM
M  V30 1 O 0.330602 -4.370144 2.588069 0
M  V30 2 C 0.676018 -4.031008 1.404694 0
M  V30 3 C 2.008661 -3.442085 1.158503 0
M  V30 4 C 3.233303 -3.979900 1.480269 0
M  V30 5 C 4.373771 -3.252862 1.165669 0
M  V30 6 C 4.327248 -2.021336 0.547404 0
M  V30 7 C 3.133366 -1.436760 0.203448 0
M  V30 8 C 2.910054 -0.173749 -0.487015 0
M  V30 9 N 3.541794 0.009493 -1.646484 0
M  V30 10 N 3.356586 1.132951 -2.328785 0
M  V30 11 C 2.523236 2.106255 -1.855915 0
M  V30 12 C 1.827928 1.981683 -0.644591 0
M  V30 13 N 1.035768 2.986725 -0.231610 0
M  V30 14 C 0.381229 2.857507 0.964273 0
M  V30 15 N -0.505453 3.799328 1.547627 0
M  V30 16 C -1.874993 3.418123 1.678679 0
M  V30 17 C -2.339476 2.180389 1.271371 0
M  V30 18 C -3.635319 1.753974 1.380723 0
M  V30 19 C -4.575436 2.602144 1.935529 0
M  V30 20 F -5.880666 2.268247 2.085796 0
M  V30 21 C -4.170986 3.855528 2.361604 0
M  V30 22 C -2.843990 4.245311 2.230669 0
M  V30 23 F -2.504230 5.472167 2.659418 0
M  V30 24 C 0.608337 1.664847 1.654922 0
M  V30 25 C 1.429001 0.639307 1.211665 0
M  V30 26 C 2.070199 0.794081 0.007230 0
M  V30 27 C 2.003954 -2.205786 0.538708 0
M  V30 28 N -0.276015 -4.256244 0.411827 0
M  V30 29 C -1.546509 -4.822108 0.758971 0
M  V30 30 C -2.688972 -4.328843 -0.057553 0
M  V30 31 O -2.437978 -3.670542 -1.215064 0
M  V30 32 C -1.245899 -3.005204 -1.314456 0
M  V30 33 C -0.134263 -3.979661 -1.005412 0
M  V30 34 H 3.207185 -4.932594 1.956752 0
M  V30 35 H 5.331518 -3.684520 1.421412 0
M  V30 36 H 5.208673 -1.441970 0.294764 0
M  V30 37 H 2.445390 2.977575 -2.491699 0
M  V30 38 H -0.266236 4.758246 1.896388 0
M  V30 39 H -1.682824 1.465024 0.830866 0
M  V30 40 H -3.961810 0.766563 1.048897 0
M  V30 41 H -4.924830 4.518918 2.801089 0
M  V30 42 H 0.107307 1.531725 2.603617 0
M  V30 43 H 1.542847 -0.214938 1.831362 0
M  V30 44 H 1.035160 -1.789074 0.261483 0
M  V30 45 H -1.741994 -4.648674 1.859918 0
M  V30 46 H -1.446331 -5.924590 0.668226 0
M  V30 47 H -3.282966 -3.616212 0.583236 0
M  V30 48 H -3.395804 -5.162652 -0.282301 0
M  V30 49 H -1.173756 -2.602858 -2.350277 0
M  V30 50 H -1.209047 -2.156455 -0.598475 0
M  V30 51 H -0.400982 -4.918413 -1.540500 0
M  V30 52 H 0.861969 -3.613472 -1.271253 0
M  V30 END ATOM
M  V30 BEGIN BOND
M  V30 1 2 1 2
M  V30 2 1 2 3
M  V30 3 2 3 4
M  V30 4 1 4 5
M  V30 5 2 5 6
M  V30 6 1 6 7
M  V30 7 1 7 8
M  V30 8 2 8 9
M  V30 9 1 9 10
M  V30 10 2 10 11
M  V30 11 1 11 12
M  V30 12 2 12 13
M  V30 13 1 13 14
M  V30 14 1 14 15
M  V30 15 1 15 16
M  V30 16 2 16 17
M  V30 17 1 17 18
M  V30 18 2 18 19
M  V30 19 1 19 20
M  V30 20 1 19 21
M  V30 21 2 21 22
M  V30 22 1 22 23
M  V30 23 2 14 24
M  V30 24 1 24 25
M  V30 25 2 25 26
M  V30 26 2 7 27
M  V30 27 1 2 28
M  V30 28 1 28 29
M  V30 29 1 29 30
M  V30 30 1 30 31
M  V30 31 1 31 32
M  V30 32 1 32 33
M  V30 33 1 27 3
M  V30 34 1 33 28
M  V30 35 1 26 8
M  V30 36 1 26 12
M  V30 37 1 22 16
M  V30 38 1 4 34
M  V30 39 1 5 35
M  V30 40 1 6 36
M  V30 41 1 11 37
M  V30 42 1 15 38
M  V30 43 1 17 39
M  V30 44 1 18 40
M  V30 45 1 21 41
M  V30 46 1 24 42
M  V30 47 1 25 43
M  V30 48 1 27 44
M  V30 49 1 29 45
M  V30 50 1 29 46
M  V30 51 1 30 47
M  V30 52 1 30 48
M  V30 53 1 32 49
M  V30 54 1 32 50
M  V30 55 1 33 51
M  V30 56 1 33 52
M  V30 END BOND
M  V30 END CTAB
M  END
>  <Dataset>  (752) 
ChEMBL_Kinases

>  <Ligand_Instance>  (752) 
nan

>  <PDB_ID>  (752) 
nan

>  <Standardized_SMILES>  (752) 
O=C(c1cccc(-c2nncc3nc(Nc4ccc(F)cc4F)ccc23)c1)N1CCOCC1

>  <Name>  (752) 
nan

>  <Pocket>  (752) 
nan

>  <ATP_Site>  (752) 
nan

>  <Peripheral>  (752) 
nan

>  <Num_H_Atoms_ProtBoundConf>  (752) 
nan

>  <Num_Resolved_Atoms>  (752) 
nan

>  <Num_Not_Resolved_Atoms>  (752) 
nan

$$$$
CHEMBL3649487
     RDKit          3D

  0  0  0  0  0  0  0  0  0  0999 V3000
M  V30 BEGIN CTAB
M  V30 COUNTS 37 40 0 0 0
M  V30 BEGIN ATOM
M  V30 1 F 0.547859 -4.673170 5.369085 0
M  V30 2 C 1.093640 -4.263701 4.187620 0
M  V30 3 C 2.265560 -3.519867 4.065898 0
M  V30 4 C 2.710899 -3.173195 2.807627 0
M  V30 5 C 2.016489 -3.547307 1.667934 0
M  V30 6 N 2.679378 -3.064305 0.489835 0
M  V30 7 C 1.660689 -2.239833 -0.061021 0
M  V30 8 C 1.702715 -0.933241 0.446815 0
M  V30 9 C 0.810686 0.067273 0.066316 0
M  V30 10 C -0.163329 -0.235870 -0.853663 0
M  V30 11 C -1.068764 0.720844 -1.255331 0
M  V30 12 C -1.056911 2.089547 -0.750508 0
M  V30 13 C 0.033522 2.955523 -0.849851 0
M  V30 14 C -0.126060 4.233704 -0.330486 0
M  V30 15 C -1.292199 4.687959 0.272552 0
M  V30 16 F -1.307881 5.974389 0.740499 0
M  V30 17 C -2.372051 3.820260 0.367639 0
M  V30 18 C -2.203885 2.558154 -0.149858 0
M  V30 19 F -3.283849 1.739926 -0.034987 0
M  V30 20 N -1.980585 0.311106 -2.154281 0
M  V30 21 N -2.012437 -0.932151 -2.629533 0
M  V30 22 C -1.136245 -1.883399 -2.251425 0
M  V30 23 C -0.171556 -1.530576 -1.327856 0
M  V30 24 N 0.690495 -2.492155 -0.958891 0
M  V30 25 C 0.870888 -4.274341 1.795679 0
M  V30 26 F 0.286623 -4.577550 0.612338 0
M  V30 27 C 0.397640 -4.639050 3.040243 0
M  V30 28 H 2.735639 -3.276723 5.008228 0
M  V30 29 H 3.622180 -2.602581 2.853002 0
M  V30 30 H 3.657130 -3.293206 0.172251 0
M  V30 31 H 2.428805 -0.601002 1.173236 0
M  V30 32 H 0.865022 1.061944 0.478657 0
M  V30 33 H 0.925171 2.605474 -1.316906 0
M  V30 34 H 0.761266 4.844250 -0.447036 0
M  V30 35 H -3.252341 4.222857 0.844862 0
M  V30 36 H -1.215459 -2.881681 -2.676485 0
M  V30 37 H -0.521098 -5.214729 3.030770 0
M  V30 END ATOM
M  V30 BEGIN BOND
M  V30 1 1 1 2
M  V30 2 2 2 3
M  V30 3 1 3 4
M  V30 4 2 4 5
M  V30 5 1 5 6
M  V30 6 1 6 7
M  V30 7 2 7 8
M  V30 8 1 8 9
M  V30 9 2 9 10
M  V30 10 1 10 11
M  V30 11 1 11 12
M  V30 12 2 12 13
M  V30 13 1 13 14
M  V30 14 2 14 15
M  V30 15 1 15 16
M  V30 16 1 15 17
M  V30 17 2 17 18
M  V30 18 1 18 19
M  V30 19 2 11 20
M  V30 20 1 20 21
M  V30 21 2 21 22
M  V30 22 1 22 23
M  V30 23 2 23 24
M  V30 24 1 5 25
M  V30 25 1 25 26
M  V30 26 2 25 27
M  V30 27 1 27 2
M  V30 28 1 24 7
M  V30 29 1 23 10
M  V30 30 1 18 12
M  V30 31 1 3 28
M  V30 32 1 4 29
M  V30 33 1 6 30
M  V30 34 1 8 31
M  V30 35 1 9 32
M  V30 36 1 13 33
M  V30 37 1 14 34
M  V30 38 1 17 35
M  V30 39 1 22 36
M  V30 40 1 27 37
M  V30 END BOND
M  V30 END CTAB
M  END
>  <Dataset>  (753) 
ChEMBL_Kinases

>  <Ligand_Instance>  (753) 
nan

>  <PDB_ID>  (753) 
nan

>  <Standardized_SMILES>  (753) 
Fc1ccc(Nc2ccc3c(-c4ccc(F)cc4F)nncc3n2)c(F)c1

>  <Name>  (753) 
nan

>  <Pocket>  (753) 
nan

>  <ATP_Site>  (753) 
nan

>  <Peripheral>  (753) 
nan

>  <Num_H_Atoms_ProtBoundConf>  (753) 
nan

>  <Num_Resolved_Atoms>  (753) 
nan

>  <Num_Not_Resolved_Atoms>  (753) 
nan

$$$$
CHEMBL3649486
     RDKit          3D

  0  0  0  0  0  0  0  0  0  0999 V3000
M  V30 BEGIN CTAB
M  V30 COUNTS 46 49 0 0 0
M  V30 BEGIN ATOM
M  V30 1 C -0.918734 3.540669 -0.090688 0
M  V30 2 C 0.411383 2.869466 -0.210492 0
M  V30 3 C 1.084455 3.151669 -1.379436 0
M  V30 4 C 2.326506 2.607123 -1.620025 0
M  V30 5 S 3.295782 2.839626 -3.081240 0
M  V30 6 C 3.073683 1.440163 -4.173336 0
M  V30 7 O 4.731414 3.045598 -2.795168 0
M  V30 8 O 2.766017 4.044297 -3.850038 0
M  V30 9 C 2.862848 1.780976 -0.657230 0
M  V30 10 C 2.186840 1.499944 0.511203 0
M  V30 11 C 0.942433 2.032276 0.771657 0
M  V30 12 C 0.068855 1.863031 1.912709 0
M  V30 13 N -0.398132 2.855317 2.721961 0
M  V30 14 N -1.220355 2.555198 3.729615 0
M  V30 15 C -1.642795 1.334345 4.030611 0
M  V30 16 C -1.196192 0.275861 3.234666 0
M  V30 17 N -1.642763 -0.948766 3.552783 0
M  V30 18 C -1.268900 -2.038790 2.827850 0
M  V30 19 N -1.769934 -3.317232 3.171317 0
M  V30 20 C -1.506072 -4.617393 2.734529 0
M  V30 21 C -2.471848 -5.608175 2.632301 0
M  V30 22 C -2.155556 -6.891762 2.210736 0
M  V30 23 C -0.848962 -7.203519 1.880712 0
M  V30 24 F -0.573778 -8.480375 1.467169 0
M  V30 25 C 0.121531 -6.232611 1.976780 0
M  V30 26 C -0.194925 -4.960917 2.395902 0
M  V30 27 C -0.423755 -1.775392 1.779295 0
M  V30 28 C 0.050679 -0.533471 1.429894 0
M  V30 29 C -0.337324 0.560886 2.175707 0
M  V30 30 H -1.565862 3.023847 0.658470 0
M  V30 31 H -0.808076 4.623929 0.085399 0
M  V30 32 H -1.431983 3.420476 -1.066192 0
M  V30 33 H 0.696641 3.796358 -2.153464 0
M  V30 34 H 2.828585 1.757225 -5.187006 0
M  V30 35 H 3.995012 0.797220 -4.167380 0
M  V30 36 H 2.240010 0.791931 -3.806925 0
M  V30 37 H 3.834514 1.311574 -0.765481 0
M  V30 38 H 2.556521 0.863747 1.307699 0
M  V30 39 H -2.319543 1.146229 4.871892 0
M  V30 40 H -2.514563 -3.345515 3.929134 0
M  V30 41 H -3.498525 -5.363051 2.891865 0
M  V30 42 H -2.886676 -7.665408 2.126122 0
M  V30 43 H 1.126012 -6.575025 1.692698 0
M  V30 44 H 0.681878 -4.335856 2.425966 0
M  V30 45 H -0.094177 -2.570736 1.154754 0
M  V30 46 H 0.696125 -0.411455 0.600604 0
M  V30 END ATOM
M  V30 BEGIN BOND
M  V30 1 1 1 2
M  V30 2 2 2 3
M  V30 3 1 3 4
M  V30 4 1 4 5
M  V30 5 1 5 6
M  V30 6 2 5 7
M  V30 7 2 5 8
M  V30 8 2 4 9
M  V30 9 1 9 10
M  V30 10 2 10 11
M  V30 11 1 11 12
M  V30 12 2 12 13
M  V30 13 1 13 14
M  V30 14 2 14 15
M  V30 15 1 15 16
M  V30 16 2 16 17
M  V30 17 1 17 18
M  V30 18 1 18 19
M  V30 19 1 19 20
M  V30 20 2 20 21
M  V30 21 1 21 22
M  V30 22 2 22 23
M  V30 23 1 23 24
M  V30 24 1 23 25
M  V30 25 2 25 26
M  V30 26 2 18 27
M  V30 27 1 27 28
M  V30 28 2 28 29
M  V30 29 1 11 2
M  V30 30 1 29 12
M  V30 31 1 29 16
M  V30 32 1 26 20
M  V30 33 1 1 30
M  V30 34 1 1 31
M  V30 35 1 1 32
M  V30 36 1 3 33
M  V30 37 1 6 34
M  V30 38 1 6 35
M  V30 39 1 6 36
M  V30 40 1 9 37
M  V30 41 1 10 38
M  V30 42 1 15 39
M  V30 43 1 19 40
M  V30 44 1 21 41
M  V30 45 1 22 42
M  V30 46 1 25 43
M  V30 47 1 26 44
M  V30 48 1 27 45
M  V30 49 1 28 46
M  V30 END BOND
M  V30 END CTAB
M  END
>  <Dataset>  (754) 
ChEMBL_Kinases

>  <Ligand_Instance>  (754) 
nan

>  <PDB_ID>  (754) 
nan

>  <Standardized_SMILES>  (754) 
Cc1cc(S(C)(=O)=O)ccc1-c1nncc2nc(Nc3ccc(F)cc3)ccc12

>  <Name>  (754) 
nan

>  <Pocket>  (754) 
nan

>  <ATP_Site>  (754) 
nan

>  <Peripheral>  (754) 
nan

>  <Num_H_Atoms_ProtBoundConf>  (754) 
nan

>  <Num_Resolved_Atoms>  (754) 
nan

>  <Num_Not_Resolved_Atoms>  (754) 
nan

$$$$
CHEMBL3649485
     RDKit          3D

  0  0  0  0  0  0  0  0  0  0999 V3000
M  V30 BEGIN CTAB
M  V30 COUNTS 39 42 0 0 0
M  V30 BEGIN ATOM
M  V30 1 C 2.375588 -3.261175 -1.496260 0
M  V30 2 C 3.317301 -2.969819 -0.369753 0
M  V30 3 N 4.185028 -3.771285 0.270026 0
M  V30 4 C 4.931661 -3.328243 1.267760 0
M  V30 5 C 4.891140 -2.028281 1.734551 0
M  V30 6 C 4.003536 -1.183886 1.088682 0
M  V30 7 C 3.205209 -1.635292 0.032091 0
M  V30 8 C 2.310703 -0.632748 -0.586169 0
M  V30 9 N 2.433589 -0.350012 -1.898988 0
M  V30 10 N 1.659560 0.519346 -2.513557 0
M  V30 11 C 0.673756 1.204056 -1.877490 0
M  V30 12 C 0.602509 0.872288 -0.551486 0
M  V30 13 N -0.378669 1.517221 0.159199 0
M  V30 14 C -0.570085 1.280142 1.472255 0
M  V30 15 N -1.650033 2.008896 2.089254 0
M  V30 16 C -2.899057 1.286266 2.014508 0
M  V30 17 C -2.931575 0.025524 1.396913 0
M  V30 18 C -4.133973 -0.692730 1.302069 0
M  V30 19 C -5.311679 -0.190561 1.807193 0
M  V30 20 F -6.455256 -0.874288 1.714966 0
M  V30 21 C -5.264308 1.059999 2.417168 0
M  V30 22 C -4.094045 1.791451 2.525563 0
M  V30 23 F -4.063816 3.000029 3.119742 0
M  V30 24 C 0.175397 0.394419 2.221770 0
M  V30 25 C 1.170732 -0.271371 1.543535 0
M  V30 26 C 1.334575 -0.004919 0.208012 0
M  V30 27 H 2.240893 -4.369041 -1.590760 0
M  V30 28 H 1.369205 -2.861258 -1.224610 0
M  V30 29 H 2.764067 -2.897586 -2.448248 0
M  V30 30 H 5.609144 -3.986015 1.757474 0
M  V30 31 H 5.476773 -1.596464 2.553613 0
M  V30 32 H 3.930523 -0.144490 1.411841 0
M  V30 33 H 0.002746 1.927947 -2.317673 0
M  V30 34 H -1.716046 2.945204 2.576791 0
M  V30 35 H -2.061315 -0.449167 0.973978 0
M  V30 36 H -4.157876 -1.672796 0.820835 0
M  V30 37 H -6.184642 1.458495 2.816829 0
M  V30 38 H -0.003152 0.224672 3.286701 0
M  V30 39 H 1.798854 -0.985334 2.037788 0
M  V30 END ATOM
M  V30 BEGIN BOND
M  V30 1 1 1 2
M  V30 2 2 2 3
M  V30 3 1 3 4
M  V30 4 2 4 5
M  V30 5 1 5 6
M  V30 6 2 6 7
M  V30 7 1 7 8
M  V30 8 2 8 9
M  V30 9 1 9 10
M  V30 10 2 10 11
M  V30 11 1 11 12
M  V30 12 2 12 13
M  V30 13 1 13 14
M  V30 14 1 14 15
M  V30 15 1 15 16
M  V30 16 2 16 17
M  V30 17 1 17 18
M  V30 18 2 18 19
M  V30 19 1 19 20
M  V30 20 1 19 21
M  V30 21 2 21 22
M  V30 22 1 22 23
M  V30 23 2 14 24
M  V30 24 1 24 25
M  V30 25 2 25 26
M  V30 26 1 7 2
M  V30 27 1 26 8
M  V30 28 1 26 12
M  V30 29 1 22 16
M  V30 30 1 1 27
M  V30 31 1 1 28
M  V30 32 1 1 29
M  V30 33 1 4 30
M  V30 34 1 5 31
M  V30 35 1 6 32
M  V30 36 1 11 33
M  V30 37 1 15 34
M  V30 38 1 17 35
M  V30 39 1 18 36
M  V30 40 1 21 37
M  V30 41 1 24 38
M  V30 42 1 25 39
M  V30 END BOND
M  V30 END CTAB
M  END
>  <Dataset>  (755) 
ChEMBL_Kinases

>  <Ligand_Instance>  (755) 
nan

>  <PDB_ID>  (755) 
nan

>  <Standardized_SMILES>  (755) 
Cc1ncccc1-c1nncc2nc(Nc3ccc(F)cc3F)ccc12

>  <Name>  (755) 
nan

>  <Pocket>  (755) 
nan

>  <ATP_Site>  (755) 
nan

>  <Peripheral>  (755) 
nan

>  <Num_H_Atoms_ProtBoundConf>  (755) 
nan

>  <Num_Resolved_Atoms>  (755) 
nan

>  <Num_Not_Resolved_Atoms>  (755) 
nan

$$$$
CHEMBL3649484
     RDKit          3D

  0  0  0  0  0  0  0  0  0  0999 V3000
M  V30 BEGIN CTAB
M  V30 COUNTS 46 49 0 0 0
M  V30 BEGIN ATOM
M  V30 1 C 3.414264 -1.426904 1.440106 0
M  V30 2 C 2.990089 -0.164011 0.763250 0
M  V30 3 C 3.754135 0.161600 -0.370932 0
M  V30 4 C 3.582866 1.300223 -1.172849 0
M  V30 5 S 4.625691 1.500665 -2.557861 0
M  V30 6 C 6.336888 1.207987 -2.083458 0
M  V30 7 O 4.236679 0.664634 -3.727955 0
M  V30 8 O 4.604544 2.958008 -3.017358 0
M  V30 9 C 2.565638 2.138188 -0.771956 0
M  V30 10 C 1.789839 1.861683 0.329622 0
M  V30 11 C 1.988942 0.728454 1.095083 0
M  V30 12 C 1.222836 0.363256 2.275225 0
M  V30 13 N 1.706582 0.174983 3.510932 0
M  V30 14 N 1.018082 -0.156384 4.568699 0
M  V30 15 C -0.303532 -0.333324 4.438858 0
M  V30 16 C -0.882819 -0.161549 3.204963 0
M  V30 17 N -2.207566 -0.360474 3.114887 0
M  V30 18 C -2.895873 -0.237397 1.968392 0
M  V30 19 N -4.279246 -0.411357 1.688522 0
M  V30 20 C -4.460450 -1.791339 1.335595 0
M  V30 21 C -4.951646 -2.101870 0.077202 0
M  V30 22 C -5.097707 -3.439270 -0.185214 0
M  V30 23 C -4.790518 -4.466554 0.712707 0
M  V30 24 F -4.949502 -5.778833 0.399469 0
M  V30 25 C -4.300834 -4.141126 1.967632 0
M  V30 26 C -4.150204 -2.774178 2.236815 0
M  V30 27 F -3.669546 -2.518235 3.484094 0
M  V30 28 C -2.189838 0.114779 0.822992 0
M  V30 29 C -0.813603 0.324084 0.907265 0
M  V30 30 C -0.133247 0.191499 2.090573 0
M  V30 31 H 3.102979 -2.338715 0.912304 0
M  V30 32 H 4.552903 -1.444199 1.461182 0
M  V30 33 H 3.145978 -1.405637 2.518405 0
M  V30 34 H 4.564060 -0.514086 -0.682480 0
M  V30 35 H 6.299548 0.633059 -1.122381 0
M  V30 36 H 6.807379 0.516471 -2.824594 0
M  V30 37 H 6.891098 2.126036 -1.891559 0
M  V30 38 H 2.425175 3.009899 -1.374450 0
M  V30 39 H 1.003101 2.519370 0.632490 0
M  V30 40 H -0.912412 -0.612348 5.298004 0
M  V30 41 H -5.130811 0.230289 1.691758 0
M  V30 42 H -5.202295 -1.333391 -0.634499 0
M  V30 43 H -5.472096 -3.773897 -1.134990 0
M  V30 44 H -4.068016 -4.935345 2.653270 0
M  V30 45 H -2.615850 0.249979 -0.167773 0
M  V30 46 H -0.263390 0.598808 0.007913 0
M  V30 END ATOM
M  V30 BEGIN BOND
M  V30 1 1 1 2
M  V30 2 2 2 3
M  V30 3 1 3 4
M  V30 4 1 4 5
M  V30 5 1 5 6
M  V30 6 2 5 7
M  V30 7 2 5 8
M  V30 8 2 4 9
M  V30 9 1 9 10
M  V30 10 2 10 11
M  V30 11 1 11 12
M  V30 12 2 12 13
M  V30 13 1 13 14
M  V30 14 2 14 15
M  V30 15 1 15 16
M  V30 16 2 16 17
M  V30 17 1 17 18
M  V30 18 1 18 19
M  V30 19 1 19 20
M  V30 20 2 20 21
M  V30 21 1 21 22
M  V30 22 2 22 23
M  V30 23 1 23 24
M  V30 24 1 23 25
M  V30 25 2 25 26
M  V30 26 1 26 27
M  V30 27 2 18 28
M  V30 28 1 28 29
M  V30 29 2 29 30
M  V30 30 1 11 2
M  V30 31 1 30 12
M  V30 32 1 30 16
M  V30 33 1 26 20
M  V30 34 1 1 31
M  V30 35 1 1 32
M  V30 36 1 1 33
M  V30 37 1 3 34
M  V30 38 1 6 35
M  V30 39 1 6 36
M  V30 40 1 6 37
M  V30 41 1 9 38
M  V30 42 1 10 39
M  V30 43 1 15 40
M  V30 44 1 19 41
M  V30 45 1 21 42
M  V30 46 1 22 43
M  V30 47 1 25 44
M  V30 48 1 28 45
M  V30 49 1 29 46
M  V30 END BOND
M  V30 END CTAB
M  END
>  <Dataset>  (756) 
ChEMBL_Kinases

>  <Ligand_Instance>  (756) 
nan

>  <PDB_ID>  (756) 
nan

>  <Standardized_SMILES>  (756) 
Cc1cc(S(C)(=O)=O)ccc1-c1nncc2nc(Nc3ccc(F)cc3F)ccc12

>  <Name>  (756) 
nan

>  <Pocket>  (756) 
nan

>  <ATP_Site>  (756) 
nan

>  <Peripheral>  (756) 
nan

>  <Num_H_Atoms_ProtBoundConf>  (756) 
nan

>  <Num_Resolved_Atoms>  (756) 
nan

>  <Num_Not_Resolved_Atoms>  (756) 
nan

$$$$
CHEMBL3647957
     RDKit          3D

  0  0  0  0  0  0  0  0  0  0999 V3000
M  V30 BEGIN CTAB
M  V30 COUNTS 56 60 0 0 0
M  V30 BEGIN ATOM
M  V30 1 N 4.718199 -3.664710 6.550619 0
M  V30 2 C 4.406459 -3.065279 5.609864 0
M  V30 3 C 4.033417 -2.306831 4.453366 0
M  V30 4 C 3.615588 -0.992139 4.492260 0
M  V30 5 C 3.284916 -0.383420 3.284671 0
M  V30 6 C 3.352098 -1.013558 2.077329 0
M  V30 7 N 3.011368 -0.370597 0.877892 0
M  V30 8 C 2.568702 1.017998 0.905583 0
M  V30 9 C 2.260460 1.494749 -0.480753 0
M  V30 10 N 1.215194 0.711466 -1.102480 0
M  V30 11 C -0.103330 0.618959 -0.598304 0
M  V30 12 N -0.433564 1.288189 0.514247 0
M  V30 13 C -1.654958 1.263080 1.062419 0
M  V30 14 C -1.837270 2.047660 2.260674 0
M  V30 15 C -0.776172 2.780001 2.725011 0
M  V30 16 C -0.812717 3.565793 3.852389 0
M  V30 17 C -1.959689 3.661679 4.601685 0
M  V30 18 Cl -1.994323 4.662581 6.031134 0
M  V30 19 C -3.053842 2.946241 4.179023 0
M  V30 20 C -2.950977 2.181348 3.045707 0
M  V30 21 Cl -4.413311 1.328564 2.636624 0
M  V30 22 C -2.534657 0.485891 0.374220 0
M  V30 23 N -2.265739 -0.203714 -0.738016 0
M  V30 24 N -2.978402 -0.993746 -1.524252 0
M  V30 25 C -2.214008 -1.446565 -2.535626 0
M  V30 26 C -2.698019 -2.370288 -3.621948 0
M  V30 27 N -2.474674 -3.728016 -3.176020 0
M  V30 28 C -2.880566 -4.739436 -4.095141 0
M  V30 29 C -2.708280 -6.201931 -3.764246 0
M  V30 30 C -1.761181 -5.508822 -4.718109 0
M  V30 31 C -0.942458 -0.926364 -2.401482 0
M  V30 32 C -1.029701 -0.155768 -1.260548 0
M  V30 33 N 3.761093 -2.289303 2.071269 0
M  V30 34 C 4.087673 -2.911077 3.204824 0
M  V30 35 H 3.563055 -0.493556 5.453120 0
M  V30 36 H 2.965117 0.646150 3.381331 0
M  V30 37 H 3.068133 -0.867366 -0.039279 0
M  V30 38 H 1.685825 1.045438 1.544925 0
M  V30 39 H 3.373041 1.589789 1.383027 0
M  V30 40 H 3.168467 1.547998 -1.106410 0
M  V30 41 H 1.919566 2.564855 -0.390504 0
M  V30 42 H 1.484143 0.188937 -1.983999 0
M  V30 43 H 0.205929 2.801397 2.228219 0
M  V30 44 H 0.039466 4.129779 4.191021 0
M  V30 45 H -3.947182 3.030197 4.775709 0
M  V30 46 H -3.520099 0.403104 0.722768 0
M  V30 47 H -3.780293 -2.168783 -3.756527 0
M  V30 48 H -2.143339 -2.154739 -4.537738 0
M  V30 49 H -1.566209 -3.871472 -2.729892 0
M  V30 50 H -3.747089 -4.488378 -4.735945 0
M  V30 51 H -3.423219 -6.924696 -4.203422 0
M  V30 52 H -2.300383 -6.487673 -2.776682 0
M  V30 53 H -0.721708 -5.340411 -4.352478 0
M  V30 54 H -1.852979 -5.710968 -5.784906 0
M  V30 55 H -0.088879 -1.088537 -3.040892 0
M  V30 56 H 4.404813 -3.939564 3.087518 0
M  V30 END ATOM
M  V30 BEGIN BOND
M  V30 1 3 1 2
M  V30 2 1 2 3
M  V30 3 2 3 4
M  V30 4 1 4 5
M  V30 5 2 5 6
M  V30 6 1 6 7
M  V30 7 1 7 8
M  V30 8 1 8 9
M  V30 9 1 9 10
M  V30 10 1 10 11
M  V30 11 2 11 12
M  V30 12 1 12 13
M  V30 13 1 13 14
M  V30 14 2 14 15
M  V30 15 1 15 16
M  V30 16 2 16 17
M  V30 17 1 17 18
M  V30 18 1 17 19
M  V30 19 2 19 20
M  V30 20 1 20 21
M  V30 21 2 13 22
M  V30 22 1 22 23
M  V30 23 1 23 24
M  V30 24 2 24 25
M  V30 25 1 25 26
M  V30 26 1 26 27
M  V30 27 1 27 28
M  V30 28 1 28 29
M  V30 29 1 29 30
M  V30 30 1 25 31
M  V30 31 2 31 32
M  V30 32 1 6 33
M  V30 33 2 33 34
M  V30 34 1 34 3
M  V30 35 1 32 11
M  V30 36 1 20 14
M  V30 37 1 32 23
M  V30 38 1 30 28
M  V30 39 1 4 35
M  V30 40 1 5 36
M  V30 41 1 7 37
M  V30 42 1 8 38
M  V30 43 1 8 39
M  V30 44 1 9 40
M  V30 45 1 9 41
M  V30 46 1 10 42
M  V30 47 1 15 43
M  V30 48 1 16 44
M  V30 49 1 19 45
M  V30 50 1 22 46
M  V30 51 1 26 47
M  V30 52 1 26 48
M  V30 53 1 27 49
M  V30 54 1 28 50
M  V30 55 1 29 51
M  V30 56 1 29 52
M  V30 57 1 30 53
M  V30 58 1 30 54
M  V30 59 1 31 55
M  V30 60 1 34 56
M  V30 END BOND
M  V30 END CTAB
M  END
>  <Dataset>  (757) 
ChEMBL_Kinases

>  <Ligand_Instance>  (757) 
nan

>  <PDB_ID>  (757) 
nan

>  <Standardized_SMILES>  (757) 
N#Cc1ccc(NCCNc2nc(-c3ccc(Cl)cc3Cl)cn3nc(CNC4CC4)cc23)nc1

>  <Name>  (757) 
nan

>  <Pocket>  (757) 
nan

>  <ATP_Site>  (757) 
nan

>  <Peripheral>  (757) 
nan

>  <Num_H_Atoms_ProtBoundConf>  (757) 
nan

>  <Num_Resolved_Atoms>  (757) 
nan

>  <Num_Not_Resolved_Atoms>  (757) 
nan

$$$$
CHEMBL3647974
     RDKit          3D

  0  0  0  0  0  0  0  0  0  0999 V3000
M  V30 BEGIN CTAB
M  V30 COUNTS 49 53 0 0 0
M  V30 BEGIN ATOM
M  V30 1 C 0.446726 -5.090372 1.342553 0
M  V30 2 C 1.258803 -4.241859 2.081839 0
M  V30 3 C 1.994794 -3.238044 1.491562 0
M  V30 4 C 1.934365 -3.052889 0.103806 0
M  V30 5 C 2.685856 -2.007855 -0.606360 0
M  V30 6 N 2.070661 -0.802872 -0.761629 0
M  V30 7 C 0.868110 -0.590804 -1.432407 0
M  V30 8 C 1.434256 0.111179 -2.680422 0
M  V30 9 C 2.409433 1.075936 -1.986440 0
M  V30 10 C 2.684123 0.436834 -0.614343 0
M  V30 11 C 1.992671 1.224823 0.499294 0
M  V30 12 C 0.629035 0.568808 0.730881 0
M  V30 13 N -0.227714 1.303924 1.588648 0
M  V30 14 C -1.509851 0.932437 2.077368 0
M  V30 15 C -2.110972 -0.272370 1.781579 0
M  V30 16 C -3.361432 -0.649453 2.242098 0
M  V30 17 C -4.015811 0.276338 3.050934 0
M  V30 18 N -5.212452 0.225408 3.648414 0
M  V30 19 N -5.425400 1.341735 4.323757 0
M  V30 20 C -4.365144 2.181796 4.196306 0
M  V30 21 C -3.470831 1.497957 3.384768 0
M  V30 22 C -2.221920 1.793336 2.883585 0
M  V30 23 C 0.050541 0.448426 -0.693363 0
M  V30 24 C 1.113894 -3.915042 -0.617011 0
M  V30 25 C 0.369747 -4.928544 -0.027874 0
M  V30 26 H -0.126490 -5.876746 1.826831 0
M  V30 27 H 1.323407 -4.363886 3.158027 0
M  V30 28 H 2.638117 -2.558591 2.038247 0
M  V30 29 H 3.682002 -1.855080 -0.137928 0
M  V30 30 H 2.939866 -2.443393 -1.618899 0
M  V30 31 H 0.237918 -1.435513 -1.687984 0
M  V30 32 H 1.964672 -0.650758 -3.273452 0
M  V30 33 H 0.654723 0.645091 -3.234307 0
M  V30 34 H 2.007144 2.082196 -1.880732 0
M  V30 35 H 3.373039 1.077142 -2.543201 0
M  V30 36 H 3.759378 0.338513 -0.414935 0
M  V30 37 H 2.586610 1.052674 1.416002 0
M  V30 38 H 1.886534 2.286166 0.234551 0
M  V30 39 H 0.819083 -0.432283 1.128632 0
M  V30 40 H 0.158326 2.233211 1.882931 0
M  V30 41 H -1.627171 -0.999231 1.169475 0
M  V30 42 H -3.817627 -1.601351 1.998403 0
M  V30 43 H -5.903929 -0.578486 3.602089 0
M  V30 44 H -4.183729 3.161145 4.597002 0
M  V30 45 H -1.806992 2.755630 3.154044 0
M  V30 46 H -1.020217 0.290537 -0.715565 0
M  V30 47 H 0.214567 1.478459 -1.113039 0
M  V30 48 H 1.060094 -3.780454 -1.690137 0
M  V30 49 H -0.247915 -5.561277 -0.658000 0
M  V30 END ATOM
M  V30 BEGIN BOND
M  V30 1 2 1 2
M  V30 2 1 2 3
M  V30 3 2 3 4
M  V30 4 1 4 5
M  V30 5 1 5 6
M  V30 6 1 6 7
M  V30 7 1 7 8
M  V30 8 1 8 9
M  V30 9 1 9 10
M  V30 10 1 10 11
M  V30 11 1 11 12
M  V30 12 1 12 13
M  V30 13 1 13 14
M  V30 14 2 14 15
M  V30 15 1 15 16
M  V30 16 2 16 17
M  V30 17 1 17 18
M  V30 18 1 18 19
M  V30 19 2 19 20
M  V30 20 1 20 21
M  V30 21 2 21 22
M  V30 22 1 12 23
M  V30 23 1 4 24
M  V30 24 2 24 25
M  V30 25 1 25 1
M  V30 26 1 10 6
M  V30 27 1 22 14
M  V30 28 1 23 7
M  V30 29 1 21 17
M  V30 30 1 1 26
M  V30 31 1 2 27
M  V30 32 1 3 28
M  V30 33 1 5 29
M  V30 34 1 5 30
M  V30 35 1 7 31
M  V30 36 1 8 32
M  V30 37 1 8 33
M  V30 38 1 9 34
M  V30 39 1 9 35
M  V30 40 1 10 36
M  V30 41 1 11 37
M  V30 42 1 11 38
M  V30 43 1 12 39
M  V30 44 1 13 40
M  V30 45 1 15 41
M  V30 46 1 16 42
M  V30 47 1 18 43
M  V30 48 1 20 44
M  V30 49 1 22 45
M  V30 50 1 23 46
M  V30 51 1 23 47
M  V30 52 1 24 48
M  V30 53 1 25 49
M  V30 END BOND
M  V30 END CTAB
M  END
>  <Dataset>  (758) 
ChEMBL_Kinases

>  <Ligand_Instance>  (758) 
nan

>  <PDB_ID>  (758) 
nan

>  <Standardized_SMILES>  (758) 
c1ccc(CN2C3CCC2CC(Nc2ccc4[nH]ncc4c2)C3)cc1

>  <Name>  (758) 
nan

>  <Pocket>  (758) 
nan

>  <ATP_Site>  (758) 
nan

>  <Peripheral>  (758) 
nan

>  <Num_H_Atoms_ProtBoundConf>  (758) 
nan

>  <Num_Resolved_Atoms>  (758) 
nan

>  <Num_Not_Resolved_Atoms>  (758) 
nan

$$$$
CHEMBL3647975
     RDKit          3D

  0  0  0  0  0  0  0  0  0  0999 V3000
M  V30 BEGIN CTAB
M  V30 COUNTS 52 56 0 0 0
M  V30 BEGIN ATOM
M  V30 1 C 3.390482 -6.954122 1.854343 0
M  V30 2 C 2.414792 -5.873129 1.544392 0
M  V30 3 C 2.351920 -5.487190 0.213111 0
M  V30 4 C 1.453795 -4.475059 -0.143983 0
M  V30 5 C 0.618353 -3.832451 0.763013 0
M  V30 6 C -0.297114 -2.781852 0.318161 0
M  V30 7 N 0.163029 -1.455931 0.321498 0
M  V30 8 C 1.298818 -1.141949 -0.482393 0
M  V30 9 C 2.471781 -1.167594 0.508244 0
M  V30 10 C 1.866008 -0.928671 1.857258 0
M  V30 11 C 0.394939 -0.807624 1.556530 0
M  V30 12 C 0.122932 0.685333 1.336122 0
M  V30 13 C 0.283405 1.134100 -0.067930 0
M  V30 14 N -1.006058 1.451634 -0.700395 0
M  V30 15 C -1.864828 2.468613 -0.265487 0
M  V30 16 C -1.619980 3.313494 0.794013 0
M  V30 17 C -2.476968 4.312181 1.218492 0
M  V30 18 C -3.673741 4.504695 0.555076 0
M  V30 19 N -4.739299 5.313374 0.630432 0
M  V30 20 N -5.631343 5.024937 -0.315377 0
M  V30 21 C -5.163015 3.990111 -1.058471 0
M  V30 22 C -3.941153 3.671005 -0.509326 0
M  V30 23 C -3.063281 2.682425 -0.908039 0
M  V30 24 C 1.135196 0.285240 -0.948828 0
M  V30 25 C 0.723557 -4.256899 2.073090 0
M  V30 26 C 1.598951 -5.255053 2.469434 0
M  V30 27 H 4.426677 -6.577309 1.656031 0
M  V30 28 H 3.172393 -7.881556 1.286353 0
M  V30 29 H 3.361072 -7.209533 2.927536 0
M  V30 30 H 2.978971 -5.952856 -0.537236 0
M  V30 31 H 1.458836 -4.222517 -1.212271 0
M  V30 32 H -1.270112 -2.816109 0.859998 0
M  V30 33 H -0.574350 -3.036918 -0.743421 0
M  V30 34 H 1.472525 -1.826240 -1.335215 0
M  V30 35 H 3.156778 -0.306911 0.293594 0
M  V30 36 H 3.071032 -2.081689 0.432389 0
M  V30 37 H 2.214181 0.011426 2.329464 0
M  V30 38 H 2.090182 -1.723828 2.590603 0
M  V30 39 H -0.249316 -1.195083 2.372915 0
M  V30 40 H 0.752021 1.301746 2.008874 0
M  V30 41 H -0.921743 0.867421 1.671180 0
M  V30 42 H 0.798635 2.146111 -0.051493 0
M  V30 43 H -1.260057 0.860380 -1.520099 0
M  V30 44 H -0.699435 3.214844 1.350181 0
M  V30 45 H -2.259935 4.959343 2.051606 0
M  V30 46 H -4.835742 6.069686 1.351359 0
M  V30 47 H -5.653472 3.512223 -1.912304 0
M  V30 48 H -3.301979 2.035745 -1.756221 0
M  V30 49 H 0.688203 0.234382 -1.984751 0
M  V30 50 H 2.159333 0.685696 -1.099064 0
M  V30 51 H 0.096569 -3.794983 2.838303 0
M  V30 52 H 1.681895 -5.589630 3.502399 0
M  V30 END ATOM
M  V30 BEGIN BOND
M  V30 1 1 1 2
M  V30 2 2 2 3
M  V30 3 1 3 4
M  V30 4 2 4 5
M  V30 5 1 5 6
M  V30 6 1 6 7
M  V30 7 1 7 8
M  V30 8 1 8 9
M  V30 9 1 9 10
M  V30 10 1 10 11
M  V30 11 1 11 12
M  V30 12 1 12 13
M  V30 13 1 13 14
M  V30 14 1 14 15
M  V30 15 2 15 16
M  V30 16 1 16 17
M  V30 17 2 17 18
M  V30 18 1 18 19
M  V30 19 1 19 20
M  V30 20 2 20 21
M  V30 21 1 21 22
M  V30 22 2 22 23
M  V30 23 1 13 24
M  V30 24 1 5 25
M  V30 25 2 25 26
M  V30 26 1 26 2
M  V30 27 1 11 7
M  V30 28 1 23 15
M  V30 29 1 24 8
M  V30 30 1 22 18
M  V30 31 1 1 27
M  V30 32 1 1 28
M  V30 33 1 1 29
M  V30 34 1 3 30
M  V30 35 1 4 31
M  V30 36 1 6 32
M  V30 37 1 6 33
M  V30 38 1 8 34
M  V30 39 1 9 35
M  V30 40 1 9 36
M  V30 41 1 10 37
M  V30 42 1 10 38
M  V30 43 1 11 39
M  V30 44 1 12 40
M  V30 45 1 12 41
M  V30 46 1 13 42
M  V30 47 1 14 43
M  V30 48 1 16 44
M  V30 49 1 17 45
M  V30 50 1 19 46
M  V30 51 1 21 47
M  V30 52 1 23 48
M  V30 53 1 24 49
M  V30 54 1 24 50
M  V30 55 1 25 51
M  V30 56 1 26 52
M  V30 END BOND
M  V30 END CTAB
M  END
>  <Dataset>  (759) 
ChEMBL_Kinases

>  <Ligand_Instance>  (759) 
nan

>  <PDB_ID>  (759) 
nan

>  <Standardized_SMILES>  (759) 
Cc1ccc(CN2C3CCC2CC(Nc2ccc4[nH]ncc4c2)C3)cc1

>  <Name>  (759) 
nan

>  <Pocket>  (759) 
nan

>  <ATP_Site>  (759) 
nan

>  <Peripheral>  (759) 
nan

>  <Num_H_Atoms_ProtBoundConf>  (759) 
nan

>  <Num_Resolved_Atoms>  (759) 
nan

>  <Num_Not_Resolved_Atoms>  (759) 
nan

$$$$
CHEMBL3647976
     RDKit          3D

  0  0  0  0  0  0  0  0  0  0999 V3000
M  V30 BEGIN CTAB
M  V30 COUNTS 57 61 0 0 0
M  V30 BEGIN ATOM
M  V30 1 O 0.043367 -5.377839 4.025533 0
M  V30 2 C 1.339956 -5.182366 3.551866 0
M  V30 3 C 1.561128 -3.746476 3.105870 0
M  V30 4 O 2.874598 -3.549633 2.626434 0
M  V30 5 C 3.262311 -2.300828 2.174872 0
M  V30 6 C 4.528649 -2.057208 1.698631 0
M  V30 7 C 4.846900 -0.786452 1.264087 0
M  V30 8 C 3.934544 0.248284 1.292153 0
M  V30 9 C 2.650740 0.060486 1.759376 0
M  V30 10 C 1.559198 1.060049 1.849611 0
M  V30 11 N 0.781912 1.009332 0.653258 0
M  V30 12 C 1.467410 1.275786 -0.563485 0
M  V30 13 C 1.689780 2.772037 -0.506517 0
M  V30 14 C 0.355128 3.237988 0.049042 0
M  V30 15 C -0.276459 1.995491 0.616979 0
M  V30 16 C -1.352752 1.497783 -0.304355 0
M  V30 17 C -0.830836 0.730365 -1.481502 0
M  V30 18 N -1.229315 -0.658338 -1.460963 0
M  V30 19 C -2.559007 -1.086102 -1.486191 0
M  V30 20 C -3.629765 -0.239065 -1.536880 0
M  V30 21 C -4.954541 -0.669225 -1.560814 0
M  V30 22 C -5.222277 -2.017312 -1.532607 0
M  V30 23 N -6.333036 -2.801570 -1.541595 0
M  V30 24 N -6.014599 -4.083005 -1.499572 0
M  V30 25 C -4.661977 -4.230157 -1.459757 0
M  V30 26 C -4.175067 -2.925697 -1.480977 0
M  V30 27 C -2.885243 -2.426079 -1.459771 0
M  V30 28 C 0.618239 0.876366 -1.739891 0
M  V30 29 C 2.396452 -1.249735 2.183437 0
M  V30 30 H -0.514693 -4.551531 3.947548 0
M  V30 31 H 1.412964 -5.824758 2.625536 0
M  V30 32 H 2.079486 -5.491367 4.307459 0
M  V30 33 H 0.896901 -3.519727 2.246706 0
M  V30 34 H 1.300301 -3.105700 3.972283 0
M  V30 35 H 5.277576 -2.836448 1.657301 0
M  V30 36 H 5.854058 -0.562182 0.877368 0
M  V30 37 H 4.157975 1.268304 0.957532 0
M  V30 38 H 1.957196 2.078266 2.071230 0
M  V30 39 H 0.927661 0.760272 2.717789 0
M  V30 40 H 2.420524 0.728464 -0.578882 0
M  V30 41 H 2.496975 3.015503 0.186342 0
M  V30 42 H 1.800432 3.155326 -1.522845 0
M  V30 43 H 0.519846 3.961570 0.858888 0
M  V30 44 H -0.283925 3.688369 -0.730176 0
M  V30 45 H -0.698826 2.179866 1.628124 0
M  V30 46 H -1.993220 0.821910 0.298529 0
M  V30 47 H -1.976961 2.375280 -0.571242 0
M  V30 48 H -1.366723 1.165209 -2.376672 0
M  V30 49 H -0.459292 -1.385460 -1.424463 0
M  V30 50 H -3.504089 0.818556 -1.562170 0
M  V30 51 H -5.814450 -0.026463 -1.600510 0
M  V30 52 H -7.319883 -2.417101 -1.577895 0
M  V30 53 H -4.059738 -5.133217 -1.420097 0
M  V30 54 H -2.089638 -3.165702 -1.419252 0
M  V30 55 H 1.035689 -0.067922 -2.145857 0
M  V30 56 H 0.834760 1.639461 -2.535297 0
M  V30 57 H 1.385670 -1.459408 2.567541 0
M  V30 END ATOM
M  V30 BEGIN BOND
M  V30 1 1 1 2
M  V30 2 1 2 3
M  V30 3 1 3 4
M  V30 4 1 4 5
M  V30 5 2 5 6
M  V30 6 1 6 7
M  V30 7 2 7 8
M  V30 8 1 8 9
M  V30 9 1 9 10
M  V30 10 1 10 11
M  V30 11 1 11 12
M  V30 12 1 12 13
M  V30 13 1 13 14
M  V30 14 1 14 15
M  V30 15 1 15 16
M  V30 16 1 16 17
M  V30 17 1 17 18
M  V30 18 1 18 19
M  V30 19 2 19 20
M  V30 20 1 20 21
M  V30 21 2 21 22
M  V30 22 1 22 23
M  V30 23 1 23 24
M  V30 24 2 24 25
M  V30 25 1 25 26
M  V30 26 2 26 27
M  V30 27 1 17 28
M  V30 28 2 9 29
M  V30 29 1 29 5
M  V30 30 1 15 11
M  V30 31 1 27 19
M  V30 32 1 28 12
M  V30 33 1 26 22
M  V30 34 1 1 30
M  V30 35 1 2 31
M  V30 36 1 2 32
M  V30 37 1 3 33
M  V30 38 1 3 34
M  V30 39 1 6 35
M  V30 40 1 7 36
M  V30 41 1 8 37
M  V30 42 1 10 38
M  V30 43 1 10 39
M  V30 44 1 12 40
M  V30 45 1 13 41
M  V30 46 1 13 42
M  V30 47 1 14 43
M  V30 48 1 14 44
M  V30 49 1 15 45
M  V30 50 1 16 46
M  V30 51 1 16 47
M  V30 52 1 17 48
M  V30 53 1 18 49
M  V30 54 1 20 50
M  V30 55 1 21 51
M  V30 56 1 23 52
M  V30 57 1 25 53
M  V30 58 1 27 54
M  V30 59 1 28 55
M  V30 60 1 28 56
M  V30 61 1 29 57
M  V30 END BOND
M  V30 END CTAB
M  END
>  <Dataset>  (760) 
ChEMBL_Kinases

>  <Ligand_Instance>  (760) 
nan

>  <PDB_ID>  (760) 
nan

>  <Standardized_SMILES>  (760) 
OCCOc1cccc(CN2C3CCC2CC(Nc2ccc4[nH]ncc4c2)C3)c1

>  <Name>  (760) 
nan

>  <Pocket>  (760) 
nan

>  <ATP_Site>  (760) 
nan

>  <Peripheral>  (760) 
nan

>  <Num_H_Atoms_ProtBoundConf>  (760) 
nan

>  <Num_Resolved_Atoms>  (760) 
nan

>  <Num_Not_Resolved_Atoms>  (760) 
nan

$$$$
CHEMBL3647977
     RDKit          3D

  0  0  0  0  0  0  0  0  0  0999 V3000
M  V30 BEGIN CTAB
M  V30 COUNTS 60 64 0 0 0
M  V30 BEGIN ATOM
M  V30 1 C -3.138530 4.129019 -2.773372 0
M  V30 2 C -2.371782 2.830065 -2.759114 0
M  V30 3 C -1.105215 3.098933 -2.211234 0
M  V30 4 C -0.216257 2.046062 -2.096166 0
M  V30 5 C -0.536303 0.767813 -2.497652 0
M  V30 6 C 0.332140 -0.407780 -2.418660 0
M  V30 7 N 0.223489 -1.121946 -1.198512 0
M  V30 8 C 1.061944 -2.286740 -1.083481 0
M  V30 9 C 0.269354 -3.461248 -1.605633 0
M  V30 10 C -1.145930 -2.920462 -1.828742 0
M  V30 11 C -1.073914 -1.688691 -0.907613 0
M  V30 12 C -1.041340 -2.260030 0.492706 0
M  V30 13 C 0.221694 -1.810650 1.226944 0
M  V30 14 N 0.252242 -0.372769 1.199297 0
M  V30 15 C 1.191233 0.513846 1.842285 0
M  V30 16 C 1.152601 1.907517 1.729050 0
M  V30 17 C 2.095667 2.654114 2.398328 0
M  V30 18 C 3.088132 2.113818 3.182552 0
M  V30 19 N 4.080724 2.689514 3.899451 0
M  V30 20 N 4.746189 1.695099 4.463488 0
M  V30 21 C 4.211589 0.506276 4.130461 0
M  V30 22 C 3.132646 0.730210 3.299847 0
M  V30 23 C 2.187647 -0.019177 2.629453 0
M  V30 24 C 1.373951 -2.408710 0.406362 0
M  V30 25 C -1.796571 0.598571 -3.021866 0
M  V30 26 C -2.754947 1.550676 -3.184889 0
M  V30 27 O -4.001908 1.690500 -3.637821 0
M  V30 28 C -4.976177 0.904975 -4.171701 0
M  V30 29 C -5.548204 -0.198307 -3.325947 0
M  V30 30 O -4.585622 -1.097150 -2.952281 0
M  V30 31 H -2.567263 4.878277 -3.331862 0
M  V30 32 H -3.299984 4.425342 -1.727424 0
M  V30 33 H -4.120253 3.989378 -3.260766 0
M  V30 34 H -0.689313 4.007894 -1.853213 0
M  V30 35 H 0.785210 2.132022 -1.690213 0
M  V30 36 H 1.375637 -0.038495 -2.500819 0
M  V30 37 H 0.218735 -1.085184 -3.315767 0
M  V30 38 H 1.997013 -2.227025 -1.676926 0
M  V30 39 H 0.610902 -3.816525 -2.591084 0
M  V30 40 H 0.258946 -4.313752 -0.902348 0
M  V30 41 H -1.326595 -2.652786 -2.868520 0
M  V30 42 H -1.859091 -3.652625 -1.396690 0
M  V30 43 H -1.910260 -1.006204 -1.073464 0
M  V30 44 H -1.173021 -3.338524 0.552954 0
M  V30 45 H -1.883850 -1.779677 1.049800 0
M  V30 46 H 0.251558 -2.242623 2.220911 0
M  V30 47 H -0.482851 0.173916 0.655263 0
M  V30 48 H 0.379651 2.310733 1.119374 0
M  V30 49 H 2.024028 3.732693 2.279060 0
M  V30 50 H 4.313494 3.700368 4.014633 0
M  V30 51 H 4.528515 -0.481493 4.430178 0
M  V30 52 H 2.335664 -1.072284 2.813857 0
M  V30 53 H 2.299953 -1.855937 0.590551 0
M  V30 54 H 1.525456 -3.445700 0.715788 0
M  V30 55 H -2.111992 -0.367059 -3.373413 0
M  V30 56 H -5.834310 1.509977 -4.611704 0
M  V30 57 H -4.601089 0.359716 -5.107840 0
M  V30 58 H -6.072247 0.269233 -2.461596 0
M  V30 59 H -6.289333 -0.746494 -3.978155 0
M  V30 60 H -4.423359 -1.732178 -3.700111 0
M  V30 END ATOM
M  V30 BEGIN BOND
M  V30 1 1 1 2
M  V30 2 2 2 3
M  V30 3 1 3 4
M  V30 4 2 4 5
M  V30 5 1 5 6
M  V30 6 1 6 7
M  V30 7 1 7 8
M  V30 8 1 8 9
M  V30 9 1 9 10
M  V30 10 1 10 11
M  V30 11 1 11 12
M  V30 12 1 12 13
M  V30 13 1 13 14
M  V30 14 1 14 15
M  V30 15 2 15 16
M  V30 16 1 16 17
M  V30 17 2 17 18
M  V30 18 1 18 19
M  V30 19 1 19 20
M  V30 20 2 20 21
M  V30 21 1 21 22
M  V30 22 2 22 23
M  V30 23 1 13 24
M  V30 24 1 5 25
M  V30 25 2 25 26
M  V30 26 1 26 27
M  V30 27 1 27 28
M  V30 28 1 28 29
M  V30 29 1 29 30
M  V30 30 1 26 2
M  V30 31 1 11 7
M  V30 32 1 23 15
M  V30 33 1 24 8
M  V30 34 1 22 18
M  V30 35 1 1 31
M  V30 36 1 1 32
M  V30 37 1 1 33
M  V30 38 1 3 34
M  V30 39 1 4 35
M  V30 40 1 6 36
M  V30 41 1 6 37
M  V30 42 1 8 38
M  V30 43 1 9 39
M  V30 44 1 9 40
M  V30 45 1 10 41
M  V30 46 1 10 42
M  V30 47 1 11 43
M  V30 48 1 12 44
M  V30 49 1 12 45
M  V30 50 1 13 46
M  V30 51 1 14 47
M  V30 52 1 16 48
M  V30 53 1 17 49
M  V30 54 1 19 50
M  V30 55 1 21 51
M  V30 56 1 23 52
M  V30 57 1 24 53
M  V30 58 1 24 54
M  V30 59 1 25 55
M  V30 60 1 28 56
M  V30 61 1 28 57
M  V30 62 1 29 58
M  V30 63 1 29 59
M  V30 64 1 30 60
M  V30 END BOND
M  V30 END CTAB
M  END
>  <Dataset>  (761) 
ChEMBL_Kinases

>  <Ligand_Instance>  (761) 
nan

>  <PDB_ID>  (761) 
nan

>  <Standardized_SMILES>  (761) 
Cc1ccc(CN2C3CCC2CC(Nc2ccc4[nH]ncc4c2)C3)cc1OCCO

>  <Name>  (761) 
nan

>  <Pocket>  (761) 
nan

>  <ATP_Site>  (761) 
nan

>  <Peripheral>  (761) 
nan

>  <Num_H_Atoms_ProtBoundConf>  (761) 
nan

>  <Num_Resolved_Atoms>  (761) 
nan

>  <Num_Not_Resolved_Atoms>  (761) 
nan

$$$$
CHEMBL3647978
     RDKit          3D

  0  0  0  0  0  0  0  0  0  0999 V3000
M  V30 BEGIN CTAB
M  V30 COUNTS 51 55 0 0 0
M  V30 BEGIN ATOM
M  V30 1 C -0.611219 -5.753179 1.500221 0
M  V30 2 C -0.770144 -4.642405 2.304156 0
M  V30 3 C 0.180501 -3.649250 2.197156 0
M  V30 4 C 1.293210 -3.665846 1.346116 0
M  V30 5 C 2.219042 -2.504792 1.370928 0
M  V30 6 N 1.778188 -1.520418 0.471032 0
M  V30 7 C 1.661597 -1.828294 -0.901476 0
M  V30 8 C 2.883344 -1.290063 -1.614627 0
M  V30 9 C 3.541111 -0.391578 -0.617695 0
M  V30 10 C 2.494474 -0.286576 0.471294 0
M  V30 11 C 1.527481 0.799041 0.067499 0
M  V30 12 C 0.341731 0.305357 -0.692301 0
M  V30 13 N -0.844122 0.384331 0.137424 0
M  V30 14 C -1.341006 1.621195 0.595335 0
M  V30 15 C -0.731836 2.806858 0.255974 0
M  V30 16 C -1.192271 4.029820 0.693066 0
M  V30 17 C -2.303297 4.127458 1.504332 0
M  V30 18 C -2.945287 2.962548 1.868912 0
M  V30 19 C -4.056494 3.044305 2.679025 0
M  V30 20 N -4.685994 1.912200 3.037553 0
M  V30 21 C -4.253366 0.692827 2.621025 0
M  V30 22 C -3.140326 0.652505 1.813122 0
M  V30 23 C -2.442262 1.766555 1.403452 0
M  V30 24 C 0.484766 -0.979949 -1.407833 0
M  V30 25 C 1.402470 -4.799090 0.566136 0
M  V30 26 C 0.472479 -5.815282 0.643201 0
M  V30 27 H -1.370755 -6.517082 1.603874 0
M  V30 28 H -1.589182 -4.523976 2.996050 0
M  V30 29 H 0.052337 -2.780792 2.828570 0
M  V30 30 H 2.187676 -2.097047 2.414785 0
M  V30 31 H 3.260386 -2.857548 1.211666 0
M  V30 32 H 1.552861 -2.861965 -1.200338 0
M  V30 33 H 3.564196 -2.111866 -1.963293 0
M  V30 34 H 2.611841 -0.748350 -2.544598 0
M  V30 35 H 4.492705 -0.821236 -0.254504 0
M  V30 36 H 3.703278 0.612919 -1.105924 0
M  V30 37 H 3.027840 -0.073425 1.412087 0
M  V30 38 H 2.112671 1.558881 -0.487840 0
M  V30 39 H 1.213548 1.276541 1.018970 0
M  V30 40 H 0.165906 1.084328 -1.498341 0
M  V30 41 H -1.252187 -0.550624 0.335713 0
M  V30 42 H 0.129204 2.879789 -0.365779 0
M  V30 43 H -0.728692 4.970558 0.438303 0
M  V30 44 H -2.682906 5.071436 1.859166 0
M  V30 45 H -4.433468 3.989850 3.032064 0
M  V30 46 H -4.785649 -0.205580 2.929152 0
M  V30 47 H -2.844568 -0.327301 1.515965 0
M  V30 48 H -0.419519 -1.617709 -1.182872 0
M  V30 49 H 0.494668 -0.914510 -2.510313 0
M  V30 50 H 2.242384 -4.846504 -0.091773 0
M  V30 51 H 0.580359 -6.693772 0.020845 0
M  V30 END ATOM
M  V30 BEGIN BOND
M  V30 1 2 1 2
M  V30 2 1 2 3
M  V30 3 2 3 4
M  V30 4 1 4 5
M  V30 5 1 5 6
M  V30 6 1 6 7
M  V30 7 1 7 8
M  V30 8 1 8 9
M  V30 9 1 9 10
M  V30 10 1 10 11
M  V30 11 1 11 12
M  V30 12 1 12 13
M  V30 13 1 13 14
M  V30 14 2 14 15
M  V30 15 1 15 16
M  V30 16 2 16 17
M  V30 17 1 17 18
M  V30 18 2 18 19
M  V30 19 1 19 20
M  V30 20 2 20 21
M  V30 21 1 21 22
M  V30 22 2 22 23
M  V30 23 1 12 24
M  V30 24 1 4 25
M  V30 25 2 25 26
M  V30 26 1 26 1
M  V30 27 1 10 6
M  V30 28 1 23 14
M  V30 29 1 24 7
M  V30 30 1 23 18
M  V30 31 1 1 27
M  V30 32 1 2 28
M  V30 33 1 3 29
M  V30 34 1 5 30
M  V30 35 1 5 31
M  V30 36 1 7 32
M  V30 37 1 8 33
M  V30 38 1 8 34
M  V30 39 1 9 35
M  V30 40 1 9 36
M  V30 41 1 10 37
M  V30 42 1 11 38
M  V30 43 1 11 39
M  V30 44 1 12 40
M  V30 45 1 13 41
M  V30 46 1 15 42
M  V30 47 1 16 43
M  V30 48 1 17 44
M  V30 49 1 19 45
M  V30 50 1 21 46
M  V30 51 1 22 47
M  V30 52 1 24 48
M  V30 53 1 24 49
M  V30 54 1 25 50
M  V30 55 1 26 51
M  V30 END BOND
M  V30 END CTAB
M  END
>  <Dataset>  (762) 
ChEMBL_Kinases

>  <Ligand_Instance>  (762) 
nan

>  <PDB_ID>  (762) 
nan

>  <Standardized_SMILES>  (762) 
c1ccc(CN2C3CCC2CC(Nc2cccc4cnccc24)C3)cc1

>  <Name>  (762) 
nan

>  <Pocket>  (762) 
nan

>  <ATP_Site>  (762) 
nan

>  <Peripheral>  (762) 
nan

>  <Num_H_Atoms_ProtBoundConf>  (762) 
nan

>  <Num_Resolved_Atoms>  (762) 
nan

>  <Num_Not_Resolved_Atoms>  (762) 
nan

$$$$
CHEMBL3647979
     RDKit          3D

  0  0  0  0  0  0  0  0  0  0999 V3000
M  V30 BEGIN CTAB
M  V30 COUNTS 46 50 0 0 0
M  V30 BEGIN ATOM
M  V30 1 C 1.306368 -6.552617 -1.008456 0
M  V30 2 C 2.288822 -5.831662 -0.405626 0
M  V30 3 C 2.052441 -4.559197 0.073046 0
M  V30 4 C 0.796442 -3.950589 -0.037536 0
M  V30 5 C 0.748652 -2.593392 0.540594 0
M  V30 6 N 1.107793 -1.533926 -0.337109 0
M  V30 7 C 0.294595 -1.375365 -1.517460 0
M  V30 8 C -0.170805 0.079236 -1.501149 0
M  V30 9 C 1.007772 0.943376 -1.762247 0
M  V30 10 C 1.871391 0.734205 -0.532805 0
M  V30 11 C 1.108199 -0.254632 0.323087 0
M  V30 12 C -0.321532 0.216795 0.019880 0
M  V30 13 N -0.560439 1.541515 0.459505 0
M  V30 14 C -0.759058 1.940768 1.811904 0
M  V30 15 C -0.748014 1.065353 2.877481 0
M  V30 16 C -0.937666 1.442616 4.190922 0
M  V30 17 C -1.149031 2.782694 4.423483 0
M  V30 18 N -1.368444 3.519180 5.541250 0
M  V30 19 N -1.517034 4.798182 5.253374 0
M  V30 20 C -1.402906 4.985049 3.908815 0
M  V30 21 C -1.174340 3.717934 3.413875 0
M  V30 22 C -0.976924 3.265354 2.127089 0
M  V30 23 C -0.193156 -4.687660 -0.649260 0
M  V30 24 C 0.073785 -5.957369 -1.117746 0
M  V30 25 H 1.370108 -7.558000 -1.423267 0
M  V30 26 H 3.265899 -6.312943 -0.322991 0
M  V30 27 H 2.916091 -4.095998 0.529380 0
M  V30 28 H 1.415896 -2.498696 1.433603 0
M  V30 29 H -0.275161 -2.398270 0.983947 0
M  V30 30 H -0.527320 -2.071339 -1.632485 0
M  V30 31 H 0.957285 -1.493216 -2.422697 0
M  V30 32 H -1.067803 0.271820 -2.052929 0
M  V30 33 H 0.660368 1.998986 -1.870518 0
M  V30 34 H 1.580089 0.649665 -2.671777 0
M  V30 35 H 1.946836 1.709129 0.023942 0
M  V30 36 H 2.865996 0.373800 -0.827612 0
M  V30 37 H 1.375316 -0.258292 1.357938 0
M  V30 38 H -1.086354 -0.489456 0.348034 0
M  V30 39 H -0.587281 2.248961 -0.277368 0
M  V30 40 H -0.583995 0.011839 2.700699 0
M  V30 41 H -0.924147 0.733052 5.011244 0
M  V30 42 H -1.417757 3.143632 6.516972 0
M  V30 43 H -1.478780 5.918544 3.386328 0
M  V30 44 H -0.988170 3.969522 1.292079 0
M  V30 45 H -1.141538 -4.173344 -0.705351 0
M  V30 46 H -0.764194 -6.461712 -1.584180 0
M  V30 END ATOM
M  V30 BEGIN BOND
M  V30 1 2 1 2
M  V30 2 1 2 3
M  V30 3 2 3 4
M  V30 4 1 4 5
M  V30 5 1 5 6
M  V30 6 1 6 7
M  V30 7 1 7 8
M  V30 8 1 8 9
M  V30 9 1 9 10
M  V30 10 1 10 11
M  V30 11 1 11 12
M  V30 12 1 12 13
M  V30 13 1 13 14
M  V30 14 2 14 15
M  V30 15 1 15 16
M  V30 16 2 16 17
M  V30 17 1 17 18
M  V30 18 1 18 19
M  V30 19 2 19 20
M  V30 20 1 20 21
M  V30 21 2 21 22
M  V30 22 1 4 23
M  V30 23 2 23 24
M  V30 24 1 24 1
M  V30 25 1 11 6
M  V30 26 1 22 14
M  V30 27 1 12 8
M  V30 28 1 21 17
M  V30 29 1 1 25
M  V30 30 1 2 26
M  V30 31 1 3 27
M  V30 32 1 5 28
M  V30 33 1 5 29
M  V30 34 1 7 30
M  V30 35 1 7 31
M  V30 36 1 8 32
M  V30 37 1 9 33
M  V30 38 1 9 34
M  V30 39 1 10 35
M  V30 40 1 10 36
M  V30 41 1 11 37
M  V30 42 1 12 38
M  V30 43 1 13 39
M  V30 44 1 15 40
M  V30 45 1 16 41
M  V30 46 1 18 42
M  V30 47 1 20 43
M  V30 48 1 22 44
M  V30 49 1 23 45
M  V30 50 1 24 46
M  V30 END BOND
M  V30 END CTAB
M  END
>  <Dataset>  (763) 
ChEMBL_Kinases

>  <Ligand_Instance>  (763) 
nan

>  <PDB_ID>  (763) 
nan

>  <Standardized_SMILES>  (763) 
c1ccc(CN2CC3CCC2C3Nc2ccc3[nH]ncc3c2)cc1

>  <Name>  (763) 
nan

>  <Pocket>  (763) 
nan

>  <ATP_Site>  (763) 
nan

>  <Peripheral>  (763) 
nan

>  <Num_H_Atoms_ProtBoundConf>  (763) 
nan

>  <Num_Resolved_Atoms>  (763) 
nan

>  <Num_Not_Resolved_Atoms>  (763) 
nan

$$$$
CHEMBL3648098
     RDKit          3D

  0  0  0  0  0  0  0  0  0  0999 V3000
M  V30 BEGIN CTAB
M  V30 COUNTS 62 63 0 0 0
M  V30 BEGIN ATOM
M  V30 1 C 1.393565 -2.466859 6.682648 0
M  V30 2 C 1.754278 -1.463007 5.633742 0 CFG=2
M  V30 3 C 3.238867 -1.309292 5.558630 0
M  V30 4 O 3.810768 -2.591738 5.435960 0
M  V30 5 N 1.038143 -0.218847 5.761925 0
M  V30 6 C 1.186681 0.915266 4.924741 0
M  V30 7 N 2.036994 0.927618 3.861848 0
M  V30 8 C 2.165407 1.979300 3.076160 0
M  V30 9 N 3.012595 2.075397 1.926720 0
M  V30 10 C 2.384875 1.769443 0.660180 0
M  V30 11 C 3.067493 1.772298 -0.542911 0
M  V30 12 C 2.426237 1.482059 -1.733348 0
M  V30 13 C 1.084070 1.178643 -1.772868 0
M  V30 14 S 0.142738 0.796058 -3.194445 0
M  V30 15 C -0.540440 2.288113 -3.915472 0
M  V30 16 O 0.887864 0.043890 -4.228521 0
M  V30 17 N -1.110000 -0.073098 -2.813555 0
M  V30 18 S -1.898462 -1.039340 -3.985168 0
M  V30 19 O -1.250396 -2.344880 -4.231291 0
M  V30 20 O -1.879458 -0.206864 -5.260339 0
M  V30 21 C -3.586418 -1.290429 -3.588499 0
M  V30 22 C -3.856927 -1.970747 -2.294591 0
M  V30 23 Si -3.171310 -3.664624 -2.110219 0 VAL=4
M  V30 24 C -4.184452 -4.658421 -0.871489 0
M  V30 25 C -3.189224 -4.633169 -3.701117 0
M  V30 26 C -1.434957 -3.565892 -1.438820 0
M  V30 27 C 0.378537 1.168333 -0.587924 0
M  V30 28 C 1.017236 1.457584 0.600471 0
M  V30 29 N 1.449346 3.125521 3.284020 0
M  V30 30 C 0.575586 3.182692 4.334736 0
M  V30 31 C 0.469016 2.079214 5.123011 0
M  V30 32 Br -0.755055 2.150951 6.600850 0
M  V30 33 H 2.253806 -3.199233 6.709851 0
M  V30 34 H 1.381421 -2.041348 7.709191 0
M  V30 35 H 0.482296 -3.046109 6.450108 0
M  V30 36 H 1.413607 -1.898536 4.655232 0
M  V30 37 H 3.580325 -0.689874 4.723085 0
M  V30 38 H 3.569828 -0.883482 6.540229 0
M  V30 39 H 4.411323 -2.632956 4.630729 0
M  V30 40 H 0.349297 -0.148792 6.540910 0
M  V30 41 H 4.022079 2.334331 1.860683 0
M  V30 42 H 4.124984 2.007034 -0.545511 0
M  V30 43 H 2.933136 1.477430 -2.683344 0
M  V30 44 H -1.225666 2.066701 -4.729766 0
M  V30 45 H 0.229787 2.968153 -4.286916 0
M  V30 46 H -1.118843 2.817609 -3.113124 0
M  V30 47 H -4.049655 -1.835591 -4.442086 0
M  V30 48 H -4.100351 -0.303296 -3.572642 0
M  V30 49 H -4.959702 -2.040888 -2.186847 0
M  V30 50 H -3.533959 -1.317419 -1.454242 0
M  V30 51 H -5.207235 -4.205892 -0.863512 0
M  V30 52 H -4.288880 -5.696992 -1.186893 0
M  V30 53 H -3.723004 -4.612158 0.139488 0
M  V30 54 H -2.172662 -5.058606 -3.869521 0
M  V30 55 H -3.494706 -4.024251 -4.573996 0
M  V30 56 H -3.872081 -5.506156 -3.672706 0
M  V30 57 H -0.766238 -4.301060 -1.968758 0
M  V30 58 H -1.430653 -3.852301 -0.369405 0
M  V30 59 H -1.021761 -2.537784 -1.502715 0
M  V30 60 H -0.688076 0.939115 -0.519650 0
M  V30 61 H 0.445690 1.445469 1.532595 0
M  V30 62 H -0.008488 4.059469 4.538176 0
M  V30 END ATOM
M  V30 BEGIN BOND
M  V30 1 1 1 2
M  V30 2 1 2 3
M  V30 3 1 3 4
M  V30 4 1 2 5
M  V30 5 1 5 6
M  V30 6 2 6 7
M  V30 7 1 7 8
M  V30 8 1 8 9
M  V30 9 1 9 10
M  V30 10 2 10 11
M  V30 11 1 11 12
M  V30 12 2 12 13
M  V30 13 1 13 14
M  V30 14 1 14 15
M  V30 15 2 14 16
M  V30 16 2 14 17
M  V30 17 1 17 18
M  V30 18 2 18 19
M  V30 19 2 18 20
M  V30 20 1 18 21
M  V30 21 1 21 22
M  V30 22 1 22 23
M  V30 23 1 23 24
M  V30 24 1 23 25
M  V30 25 1 23 26
M  V30 26 1 13 27
M  V30 27 2 27 28
M  V30 28 2 8 29
M  V30 29 1 29 30
M  V30 30 2 30 31
M  V30 31 1 31 32
M  V30 32 1 31 6
M  V30 33 1 28 10
M  V30 34 1 1 33
M  V30 35 1 1 34
M  V30 36 1 1 35
M  V30 37 1 2 36 CFG=3
M  V30 38 1 3 37
M  V30 39 1 3 38
M  V30 40 1 4 39
M  V30 41 1 5 40
M  V30 42 1 9 41
M  V30 43 1 11 42
M  V30 44 1 12 43
M  V30 45 1 15 44
M  V30 46 1 15 45
M  V30 47 1 15 46
M  V30 48 1 21 47
M  V30 49 1 21 48
M  V30 50 1 22 49
M  V30 51 1 22 50
M  V30 52 1 24 51
M  V30 53 1 24 52
M  V30 54 1 24 53
M  V30 55 1 25 54
M  V30 56 1 25 55
M  V30 57 1 25 56
M  V30 58 1 26 57
M  V30 59 1 26 58
M  V30 60 1 26 59
M  V30 61 1 27 60
M  V30 62 1 28 61
M  V30 63 1 30 62
M  V30 END BOND
M  V30 END CTAB
M  END
>  <Dataset>  (764) 
ChEMBL_Kinases

>  <Ligand_Instance>  (764) 
nan

>  <PDB_ID>  (764) 
nan

>  <Standardized_SMILES>  (764) 
C[C@H](CO)Nc1nc(Nc2ccc(S(C)(=O)=NS(=O)(=O)CC[Si](C)(C)C)cc2)ncc1Br

>  <Name>  (764) 
nan

>  <Pocket>  (764) 
nan

>  <ATP_Site>  (764) 
nan

>  <Peripheral>  (764) 
nan

>  <Num_H_Atoms_ProtBoundConf>  (764) 
nan

>  <Num_Resolved_Atoms>  (764) 
nan

>  <Num_Not_Resolved_Atoms>  (764) 
nan

$$$$
CHEMBL3649483
     RDKit          3D

  0  0  0  0  0  0  0  0  0  0999 V3000
M  V30 BEGIN CTAB
M  V30 COUNTS 40 43 0 0 0
M  V30 BEGIN ATOM
M  V30 1 C 3.687472 -3.099671 -0.442864 0
M  V30 2 C 2.368483 -3.161160 -1.115365 0
M  V30 3 C 1.878317 -4.451397 -1.359658 0
M  V30 4 C 0.634546 -4.562562 -1.989670 0
M  V30 5 C -0.061716 -3.451328 -2.347283 0
M  V30 6 C 0.388039 -2.160063 -2.124139 0
M  V30 7 C 1.632544 -2.026250 -1.492035 0
M  V30 8 C 2.258496 -0.714813 -1.188937 0
M  V30 9 N 3.399975 -0.231440 -1.656569 0
M  V30 10 N 3.849990 0.943909 -1.263223 0
M  V30 11 C 3.227297 1.747702 -0.381026 0
M  V30 12 C 2.027763 1.297055 0.144762 0
M  V30 13 N 1.379051 2.078488 1.051009 0
M  V30 14 C 0.219311 1.708440 1.621988 0
M  V30 15 N -0.493965 2.462213 2.598582 0
M  V30 16 C -1.754360 1.965270 3.066644 0
M  V30 17 C -1.729799 1.689586 4.414608 0
M  V30 18 C -2.872770 1.193991 5.065447 0
M  V30 19 C -3.967748 1.022411 4.247531 0
M  V30 20 F -5.120026 0.532187 4.816987 0
M  V30 21 C -4.016927 1.291109 2.907451 0
M  V30 22 C -2.889113 1.780511 2.264232 0
M  V30 23 F -2.784198 2.106332 0.953786 0
M  V30 24 C -0.217734 0.491479 1.196569 0
M  V30 25 C 0.362729 -0.365809 0.286468 0
M  V30 26 C 1.563929 0.079386 -0.266387 0
M  V30 27 H 4.207323 -4.062740 -0.534962 0
M  V30 28 H 4.302648 -2.259400 -0.822822 0
M  V30 29 H 3.572768 -2.890232 0.656934 0
M  V30 30 H 2.429239 -5.340195 -1.073402 0
M  V30 31 H 0.203544 -5.525976 -2.205730 0
M  V30 32 H -1.021972 -3.473342 -2.828653 0
M  V30 33 H -0.121685 -1.232343 -2.397357 0
M  V30 34 H 3.671906 2.694325 -0.120478 0
M  V30 35 H -0.023939 3.348208 2.907024 0
M  V30 36 H -0.878593 1.821195 5.065771 0
M  V30 37 H -2.980194 0.936902 6.109058 0
M  V30 38 H -4.892203 1.146479 2.275026 0
M  V30 39 H -1.152142 0.119191 1.621228 0
M  V30 40 H -0.082808 -1.296094 0.045283 0
M  V30 END ATOM
M  V30 BEGIN BOND
M  V30 1 1 1 2
M  V30 2 2 2 3
M  V30 3 1 3 4
M  V30 4 2 4 5
M  V30 5 1 5 6
M  V30 6 2 6 7
M  V30 7 1 7 8
M  V30 8 2 8 9
M  V30 9 1 9 10
M  V30 10 2 10 11
M  V30 11 1 11 12
M  V30 12 2 12 13
M  V30 13 1 13 14
M  V30 14 1 14 15
M  V30 15 1 15 16
M  V30 16 2 16 17
M  V30 17 1 17 18
M  V30 18 2 18 19
M  V30 19 1 19 20
M  V30 20 1 19 21
M  V30 21 2 21 22
M  V30 22 1 22 23
M  V30 23 2 14 24
M  V30 24 1 24 25
M  V30 25 2 25 26
M  V30 26 1 7 2
M  V30 27 1 26 8
M  V30 28 1 26 12
M  V30 29 1 22 16
M  V30 30 1 1 27
M  V30 31 1 1 28
M  V30 32 1 1 29
M  V30 33 1 3 30
M  V30 34 1 4 31
M  V30 35 1 5 32
M  V30 36 1 6 33
M  V30 37 1 11 34
M  V30 38 1 15 35
M  V30 39 1 17 36
M  V30 40 1 18 37
M  V30 41 1 21 38
M  V30 42 1 24 39
M  V30 43 1 25 40
M  V30 END BOND
M  V30 END CTAB
M  END
>  <Dataset>  (765) 
ChEMBL_Kinases

>  <Ligand_Instance>  (765) 
nan

>  <PDB_ID>  (765) 
nan

>  <Standardized_SMILES>  (765) 
Cc1ccccc1-c1nncc2nc(Nc3ccc(F)cc3F)ccc12

>  <Name>  (765) 
nan

>  <Pocket>  (765) 
nan

>  <ATP_Site>  (765) 
nan

>  <Peripheral>  (765) 
nan

>  <Num_H_Atoms_ProtBoundConf>  (765) 
nan

>  <Num_Resolved_Atoms>  (765) 
nan

>  <Num_Not_Resolved_Atoms>  (765) 
nan

$$$$
CHEMBL364811
     RDKit          3D

  0  0  0  0  0  0  0  0  0  0999 V3000
M  V30 BEGIN CTAB
M  V30 COUNTS 45 48 0 0 0
M  V30 BEGIN ATOM
M  V30 1 C 0.530568 -3.425669 1.145918 0
M  V30 2 N 0.610961 -2.976256 -0.252126 0
M  V30 3 C -0.432870 -3.659487 -0.978125 0
M  V30 4 C -0.484966 -3.321536 -2.440591 0
M  V30 5 O -0.701427 -1.980889 -2.641727 0
M  V30 6 C 1.611656 -2.034334 -0.614212 0
M  V30 7 N 2.544435 -2.516932 -1.486662 0
M  V30 8 C 3.565838 -1.707170 -1.893899 0
M  V30 9 N 3.677004 -0.424898 -1.449280 0
M  V30 10 C 2.773361 0.087338 -0.585903 0
M  V30 11 O 2.577247 1.244206 0.029759 0
M  V30 12 C 1.505618 1.195631 0.783900 0
M  V30 13 C 1.042535 2.337665 1.586326 0
M  V30 14 C 1.938061 2.795068 2.555775 0
M  V30 15 C 1.610793 3.862865 3.370417 0
M  V30 16 C 0.393052 4.469373 3.214402 0
M  V30 17 C -0.505463 4.037763 2.267374 0
M  V30 18 C -0.177600 2.968839 1.452394 0
M  V30 19 C 0.928975 -0.074498 0.679939 0
M  V30 20 C -0.273015 -0.469814 1.381784 0
M  V30 21 C -0.322536 -0.585671 2.778281 0
M  V30 22 C -1.486231 -0.954853 3.423304 0
M  V30 23 C -2.643659 -1.222864 2.710201 0
M  V30 24 C -2.656536 -1.125296 1.330417 0
M  V30 25 C -1.475796 -0.754075 0.722254 0
M  V30 26 C 1.746123 -0.734572 -0.179686 0
M  V30 27 H 0.770982 -4.525631 1.153982 0
M  V30 28 H 1.295564 -2.952853 1.779331 0
M  V30 29 H -0.493234 -3.352808 1.554553 0
M  V30 30 H -1.443225 -3.455283 -0.568771 0
M  V30 31 H -0.326661 -4.775916 -0.909596 0
M  V30 32 H -1.406704 -3.841192 -2.833537 0
M  V30 33 H 0.423604 -3.716697 -2.980421 0
M  V30 34 H -1.655565 -1.755088 -2.606506 0
M  V30 35 H 4.327798 -2.050743 -2.585220 0
M  V30 36 H 2.932653 2.387638 2.766526 0
M  V30 37 H 2.242723 4.278668 4.143356 0
M  V30 38 H 0.072108 5.302903 3.811268 0
M  V30 39 H -1.480663 4.458518 2.082652 0
M  V30 40 H -0.788288 2.526171 0.668831 0
M  V30 41 H 0.541509 -0.388969 3.362598 0
M  V30 42 H -1.573698 -1.057889 4.499980 0
M  V30 43 H -3.597407 -1.518323 3.151354 0
M  V30 44 H -3.495096 -1.307614 0.667363 0
M  V30 45 H -1.413693 -0.657832 -0.347830 0
M  V30 END ATOM
M  V30 BEGIN BOND
M  V30 1 1 1 2
M  V30 2 1 2 3
M  V30 3 1 3 4
M  V30 4 1 4 5
M  V30 5 1 2 6
M  V30 6 2 6 7
M  V30 7 1 7 8
M  V30 8 2 8 9
M  V30 9 1 9 10
M  V30 10 1 10 11
M  V30 11 1 11 12
M  V30 12 1 12 13
M  V30 13 2 13 14
M  V30 14 1 14 15
M  V30 15 2 15 16
M  V30 16 1 16 17
M  V30 17 2 17 18
M  V30 18 2 12 19
M  V30 19 1 19 20
M  V30 20 2 20 21
M  V30 21 1 21 22
M  V30 22 2 22 23
M  V30 23 1 23 24
M  V30 24 2 24 25
M  V30 25 1 19 26
M  V30 26 1 26 6
M  V30 27 2 26 10
M  V30 28 1 18 13
M  V30 29 1 25 20
M  V30 30 1 1 27
M  V30 31 1 1 28
M  V30 32 1 1 29
M  V30 33 1 3 30
M  V30 34 1 3 31
M  V30 35 1 4 32
M  V30 36 1 4 33
M  V30 37 1 5 34
M  V30 38 1 8 35
M  V30 39 1 14 36
M  V30 40 1 15 37
M  V30 41 1 16 38
M  V30 42 1 17 39
M  V30 43 1 18 40
M  V30 44 1 21 41
M  V30 45 1 22 42
M  V30 46 1 23 43
M  V30 47 1 24 44
M  V30 48 1 25 45
M  V30 END BOND
M  V30 END CTAB
M  END
>  <Dataset>  (766) 
ChEMBL_Kinases

>  <Ligand_Instance>  (766) 
nan

>  <PDB_ID>  (766) 
nan

>  <Standardized_SMILES>  (766) 
CN(CCO)c1ncnc2oc(-c3ccccc3)c(-c3ccccc3)c12

>  <Name>  (766) 
nan

>  <Pocket>  (766) 
nan

>  <ATP_Site>  (766) 
nan

>  <Peripheral>  (766) 
nan

>  <Num_H_Atoms_ProtBoundConf>  (766) 
nan

>  <Num_Resolved_Atoms>  (766) 
nan

>  <Num_Not_Resolved_Atoms>  (766) 
nan

$$$$
CHEMBL3648446
     RDKit          3D

  0  0  0  0  0  0  0  0  0  0999 V3000
M  V30 BEGIN CTAB
M  V30 COUNTS 43 46 0 0 0
M  V30 BEGIN ATOM
M  V30 1 N 3.936158 1.048598 2.098994 0
M  V30 2 C 4.038709 1.094289 0.654554 0 CFG=1
M  V30 3 C 4.009265 -0.324245 0.089583 0
M  V30 4 C 3.953413 -0.289380 -1.406333 0
M  V30 5 C 4.287430 1.071364 -1.944212 0
M  V30 6 C 3.204915 2.004240 -1.454327 0
M  V30 7 F 2.092954 1.762332 -2.244135 0
M  V30 8 F 3.637473 3.302382 -1.691406 0
M  V30 9 C 2.903755 1.861704 0.009609 0
M  V30 10 N 1.678808 1.170802 0.293182 0
M  V30 11 C 0.718504 1.849026 1.094132 0
M  V30 12 O 0.927262 3.003292 1.537486 0
M  V30 13 C -0.557321 1.190271 1.418330 0
M  V30 14 N -1.028694 0.069328 1.121853 0
M  V30 15 C -2.245194 -0.273195 1.566664 0
M  V30 16 C -2.699663 -1.599342 1.140612 0
M  V30 17 C -2.709802 -2.115487 -0.163081 0
M  V30 18 N -3.190762 -3.392662 -0.141319 0
M  V30 19 C -3.484018 -3.701856 1.128194 0
M  V30 20 C -3.986493 -4.866429 1.658893 0
M  V30 21 C -4.212253 -4.988347 3.013544 0
M  V30 22 C -3.908263 -3.889958 3.790316 0
M  V30 23 C -3.408954 -2.761763 3.180249 0
M  V30 24 N -3.182037 -2.619762 1.864766 0
M  V30 25 C -2.987125 0.661612 2.379471 0
M  V30 26 Cl -4.521013 0.507901 3.049315 0
M  V30 27 S -1.722605 2.058404 2.411660 0
M  V30 28 H 3.513325 0.140033 2.412759 0
M  V30 29 H 4.897976 1.060400 2.547929 0
M  V30 30 H 5.026372 1.561630 0.439268 0
M  V30 31 H 3.131021 -0.848051 0.484123 0
M  V30 32 H 4.891486 -0.908457 0.460867 0
M  V30 33 H 4.643393 -1.045837 -1.869972 0
M  V30 34 H 2.949983 -0.555971 -1.804580 0
M  V30 35 H 4.199253 1.040239 -3.053371 0
M  V30 36 H 5.307589 1.408491 -1.731097 0
M  V30 37 H 2.873307 2.858846 0.497831 0
M  V30 38 H 1.474205 0.210262 -0.060349 0
M  V30 39 H -2.389625 -1.596617 -1.060897 0
M  V30 40 H -4.215456 -5.717970 1.008233 0
M  V30 41 H -4.601128 -5.884722 3.436148 0
M  V30 42 H -4.078756 -3.968988 4.852900 0
M  V30 43 H -3.192426 -1.965790 3.872404 0
M  V30 END ATOM
M  V30 BEGIN BOND
M  V30 1 1 1 2
M  V30 2 1 2 3
M  V30 3 1 3 4
M  V30 4 1 4 5
M  V30 5 1 5 6
M  V30 6 1 6 7
M  V30 7 1 6 8
M  V30 8 1 6 9
M  V30 9 1 9 10
M  V30 10 1 10 11
M  V30 11 2 11 12
M  V30 12 1 11 13
M  V30 13 2 13 14
M  V30 14 1 14 15
M  V30 15 1 15 16
M  V30 16 2 16 17
M  V30 17 1 17 18
M  V30 18 2 18 19
M  V30 19 1 19 20
M  V30 20 2 20 21
M  V30 21 1 21 22
M  V30 22 2 22 23
M  V30 23 1 23 24
M  V30 24 2 15 25
M  V30 25 1 25 26
M  V30 26 1 25 27
M  V30 27 1 9 2
M  V30 28 1 27 13
M  V30 29 1 24 16
M  V30 30 1 24 19
M  V30 31 1 1 28
M  V30 32 1 1 29
M  V30 33 1 2 30 CFG=1
M  V30 34 1 3 31
M  V30 35 1 3 32
M  V30 36 1 4 33
M  V30 37 1 4 34
M  V30 38 1 5 35
M  V30 39 1 5 36
M  V30 40 1 9 37
M  V30 41 1 10 38
M  V30 42 1 17 39
M  V30 43 1 20 40
M  V30 44 1 21 41
M  V30 45 1 22 42
M  V30 46 1 23 43
M  V30 END BOND
M  V30 END CTAB
M  END
>  <Dataset>  (767) 
ChEMBL_Kinases

>  <Ligand_Instance>  (767) 
nan

>  <PDB_ID>  (767) 
nan

>  <Standardized_SMILES>  (767) 
N[C@H]1CCCC(F)(F)C1NC(=O)c1nc(-c2cnc3ccccn23)c(Cl)s1

>  <Name>  (767) 
nan

>  <Pocket>  (767) 
nan

>  <ATP_Site>  (767) 
nan

>  <Peripheral>  (767) 
nan

>  <Num_H_Atoms_ProtBoundConf>  (767) 
nan

>  <Num_Resolved_Atoms>  (767) 
nan

>  <Num_Not_Resolved_Atoms>  (767) 
nan

$$$$
CHEMBL3648447
     RDKit          3D

  0  0  0  0  0  0  0  0  0  0999 V3000
M  V30 BEGIN CTAB
M  V30 COUNTS 46 49 0 0 0
M  V30 BEGIN ATOM
M  V30 1 C 0.109567 -5.560755 2.767746 0
M  V30 2 C 0.364065 -4.212796 2.191072 0
M  V30 3 S 2.092003 -3.660307 1.835351 0
M  V30 4 C 1.595234 -2.084137 1.219620 0
M  V30 5 C 2.618107 -1.141492 0.754291 0
M  V30 6 O 3.829361 -1.474357 0.802955 0
M  V30 7 N 2.149932 0.116650 0.268068 0
M  V30 8 C 3.066494 1.101539 -0.206919 0
M  V30 9 C 2.923128 2.464864 0.394208 0 CFG=2
M  V30 10 N 3.489798 2.583175 1.711305 0
M  V30 11 C 1.509178 2.930828 0.295427 0
M  V30 12 C 1.132424 3.051598 -1.154695 0
M  V30 13 C 1.355103 1.766316 -1.880550 0
M  V30 14 C 2.775520 1.307607 -1.699712 0
M  V30 15 F 3.577868 2.384897 -2.081013 0
M  V30 16 F 3.096504 0.211882 -2.441370 0
M  V30 17 C 0.284466 -2.061263 1.306556 0
M  V30 18 C -0.396531 -3.141685 1.803750 0
M  V30 19 C -1.847140 -3.151941 1.914522 0
M  V30 20 C -2.680604 -4.134856 2.382340 0
M  V30 21 N -3.967773 -3.804272 2.340179 0
M  V30 22 C -4.001255 -2.545003 1.821751 0
M  V30 23 C -5.094829 -1.743610 1.570615 0
M  V30 24 C -4.891898 -0.491610 1.037819 0
M  V30 25 C -3.570799 -0.175664 0.810055 0
M  V30 26 N -2.514973 -0.967189 1.059883 0
M  V30 27 N -2.731085 -2.176966 1.576182 0
M  V30 28 H -0.466040 -6.226026 2.106364 0
M  V30 29 H -0.317392 -5.428891 3.759991 0
M  V30 30 H 1.076759 -6.101033 2.935584 0
M  V30 31 H 1.123580 0.326920 0.256538 0
M  V30 32 H 4.087854 0.694795 -0.113748 0
M  V30 33 H 3.521166 3.149354 -0.268117 0
M  V30 34 H 2.977214 3.326895 2.227879 0
M  V30 35 H 4.502277 2.860897 1.698622 0
M  V30 36 H 0.768148 2.273251 0.765873 0
M  V30 37 H 1.433392 3.911524 0.800725 0
M  V30 38 H 0.049048 3.318954 -1.204644 0
M  V30 39 H 1.698613 3.879644 -1.615544 0
M  V30 40 H 1.226481 1.949381 -2.976804 0
M  V30 41 H 0.609984 1.005157 -1.609851 0
M  V30 42 H -0.162594 -1.140324 0.958327 0
M  V30 43 H -2.409199 -5.100111 2.761622 0
M  V30 44 H -6.092990 -2.107513 1.794487 0
M  V30 45 H -5.700374 0.180317 0.819286 0
M  V30 46 H -3.309495 0.788887 0.391873 0
M  V30 END ATOM
M  V30 BEGIN BOND
M  V30 1 1 1 2
M  V30 2 1 2 3
M  V30 3 1 3 4
M  V30 4 1 4 5
M  V30 5 2 5 6
M  V30 6 1 5 7
M  V30 7 1 7 8
M  V30 8 1 8 9
M  V30 9 1 9 10
M  V30 10 1 9 11
M  V30 11 1 11 12
M  V30 12 1 12 13
M  V30 13 1 13 14
M  V30 14 1 14 15
M  V30 15 1 14 16
M  V30 16 2 4 17
M  V30 17 1 17 18
M  V30 18 1 18 19
M  V30 19 2 19 20
M  V30 20 1 20 21
M  V30 21 2 21 22
M  V30 22 1 22 23
M  V30 23 2 23 24
M  V30 24 1 24 25
M  V30 25 2 25 26
M  V30 26 1 26 27
M  V30 27 2 18 2
M  V30 28 1 27 19
M  V30 29 1 14 8
M  V30 30 1 27 22
M  V30 31 1 1 28
M  V30 32 1 1 29
M  V30 33 1 1 30
M  V30 34 1 7 31
M  V30 35 1 8 32
M  V30 36 1 9 33 CFG=3
M  V30 37 1 10 34
M  V30 38 1 10 35
M  V30 39 1 11 36
M  V30 40 1 11 37
M  V30 41 1 12 38
M  V30 42 1 12 39
M  V30 43 1 13 40
M  V30 44 1 13 41
M  V30 45 1 17 42
M  V30 46 1 20 43
M  V30 47 1 23 44
M  V30 48 1 24 45
M  V30 49 1 25 46
M  V30 END BOND
M  V30 END CTAB
M  END
>  <Dataset>  (768) 
ChEMBL_Kinases

>  <Ligand_Instance>  (768) 
nan

>  <PDB_ID>  (768) 
nan

>  <Standardized_SMILES>  (768) 
Cc1sc(C(=O)NC2[C@H](N)CCCC2(F)F)cc1-c1cnc2cccnn12

>  <Name>  (768) 
nan

>  <Pocket>  (768) 
nan

>  <ATP_Site>  (768) 
nan

>  <Peripheral>  (768) 
nan

>  <Num_H_Atoms_ProtBoundConf>  (768) 
nan

>  <Num_Resolved_Atoms>  (768) 
nan

>  <Num_Not_Resolved_Atoms>  (768) 
nan

$$$$
CHEMBL3648448
     RDKit          3D

  0  0  0  0  0  0  0  0  0  0999 V3000
M  V30 BEGIN CTAB
M  V30 COUNTS 53 57 0 0 0
M  V30 BEGIN ATOM
M  V30 1 N -3.613990 -1.572193 3.891079 0
M  V30 2 C -2.955675 -1.201286 2.655304 0 CFG=2
M  V30 3 C -1.556253 -0.685664 2.893798 0
M  V30 4 C -1.486764 0.729850 3.356823 0
M  V30 5 C -2.899113 1.291228 3.525269 0
M  V30 6 C -3.536427 1.181965 2.143211 0
M  V30 7 F -4.657938 1.955840 2.113197 0
M  V30 8 F -2.641851 1.734028 1.236931 0
M  V30 9 C -3.774981 -0.271736 1.806976 0
M  V30 10 N -3.404569 -0.524151 0.414341 0
M  V30 11 C -4.259207 -0.963428 -0.604792 0
M  V30 12 O -5.481927 -1.195695 -0.421722 0
M  V30 13 C -3.738264 -1.175139 -1.969583 0
M  V30 14 C -2.539161 -1.035342 -2.513393 0
M  V30 15 C -2.292766 -1.294072 -3.815771 0
M  V30 16 C -1.013844 -1.168281 -4.492477 0
M  V30 17 C -0.695925 -1.410112 -5.791963 0
M  V30 18 N 0.620123 -1.158967 -5.984244 0
M  V30 19 C 1.156446 -0.751609 -4.799171 0
M  V30 20 C 2.438996 -0.379100 -4.457325 0
M  V30 21 C 2.726521 -0.001559 -3.162709 0
M  V30 22 C 4.053494 0.407568 -2.711194 0
M  V30 23 C 4.456616 0.161753 -1.405585 0
M  V30 24 C 5.679028 0.498209 -0.861785 0
M  V30 25 C 6.586461 1.141692 -1.701040 0
M  V30 26 F 7.777016 1.460434 -1.143112 0
M  V30 27 C 6.221049 1.403153 -3.006522 0
M  V30 28 C 4.984800 1.046189 -3.503733 0
M  V30 29 C 1.656024 -0.033917 -2.294112 0
M  V30 30 N 0.426628 -0.406955 -2.687935 0
M  V30 31 N 0.137274 -0.770964 -3.924805 0
M  V30 32 C -3.467243 -1.736646 -4.549107 0
M  V30 33 S -4.795576 -1.712166 -3.203872 0
M  V30 34 H -2.884994 -1.927733 4.548407 0
M  V30 35 H -4.257719 -2.351732 3.685735 0
M  V30 36 H -2.823561 -2.145395 2.070262 0
M  V30 37 H -1.004049 -0.797115 1.916210 0
M  V30 38 H -1.053690 -1.401556 3.579947 0
M  V30 39 H -0.868647 0.870425 4.266719 0
M  V30 40 H -1.042336 1.368480 2.542358 0
M  V30 41 H -2.867231 2.352746 3.834941 0
M  V30 42 H -3.483033 0.769590 4.293813 0
M  V30 43 H -4.838262 -0.462486 2.011945 0
M  V30 44 H -2.385627 -0.338681 0.228259 0
M  V30 45 H -1.764174 -0.697567 -1.839967 0
M  V30 46 H -1.394904 -1.753022 -6.557770 0
M  V30 47 H 3.236322 -0.374522 -5.185120 0
M  V30 48 H 3.742662 -0.338417 -0.764602 0
M  V30 49 H 5.887274 0.256906 0.173535 0
M  V30 50 H 6.959192 1.902047 -3.611735 0
M  V30 51 H 4.710746 1.258911 -4.535258 0
M  V30 52 H 1.799464 0.249626 -1.254020 0
M  V30 53 H -3.433660 -2.007974 -5.704228 0
M  V30 END ATOM
M  V30 BEGIN BOND
M  V30 1 1 1 2
M  V30 2 1 2 3
M  V30 3 1 3 4
M  V30 4 1 4 5
M  V30 5 1 5 6
M  V30 6 1 6 7
M  V30 7 1 6 8
M  V30 8 1 6 9
M  V30 9 1 9 10
M  V30 10 1 10 11
M  V30 11 2 11 12
M  V30 12 1 11 13
M  V30 13 2 13 14
M  V30 14 1 14 15
M  V30 15 1 15 16
M  V30 16 2 16 17
M  V30 17 1 17 18
M  V30 18 2 18 19
M  V30 19 1 19 20
M  V30 20 2 20 21
M  V30 21 1 21 22
M  V30 22 2 22 23
M  V30 23 1 23 24
M  V30 24 2 24 25
M  V30 25 1 25 26
M  V30 26 1 25 27
M  V30 27 2 27 28
M  V30 28 1 21 29
M  V30 29 2 29 30
M  V30 30 1 30 31
M  V30 31 2 15 32
M  V30 32 1 32 33
M  V30 33 1 9 2
M  V30 34 1 33 13
M  V30 35 1 31 16
M  V30 36 1 31 19
M  V30 37 1 28 22
M  V30 38 1 1 34
M  V30 39 1 1 35
M  V30 40 1 2 36 CFG=3
M  V30 41 1 3 37
M  V30 42 1 3 38
M  V30 43 1 4 39
M  V30 44 1 4 40
M  V30 45 1 5 41
M  V30 46 1 5 42
M  V30 47 1 9 43
M  V30 48 1 10 44
M  V30 49 1 14 45
M  V30 50 1 17 46
M  V30 51 1 20 47
M  V30 52 1 23 48
M  V30 53 1 24 49
M  V30 54 1 27 50
M  V30 55 1 28 51
M  V30 56 1 29 52
M  V30 57 1 32 53
M  V30 END BOND
M  V30 END CTAB
M  END
>  <Dataset>  (769) 
ChEMBL_Kinases

>  <Ligand_Instance>  (769) 
nan

>  <PDB_ID>  (769) 
nan

>  <Standardized_SMILES>  (769) 
N[C@@H]1CCCC(F)(F)C1NC(=O)c1cc(-c2cnc3cc(-c4ccc(F)cc4)cnn23)cs1

>  <Name>  (769) 
nan

>  <Pocket>  (769) 
nan

>  <ATP_Site>  (769) 
nan

>  <Peripheral>  (769) 
nan

>  <Num_H_Atoms_ProtBoundConf>  (769) 
nan

>  <Num_Resolved_Atoms>  (769) 
nan

>  <Num_Not_Resolved_Atoms>  (769) 
nan

$$$$
CHEMBL3648449
     RDKit          3D

  0  0  0  0  0  0  0  0  0  0999 V3000
M  V30 BEGIN CTAB
M  V30 COUNTS 43 46 0 0 0
M  V30 BEGIN ATOM
M  V30 1 N 5.003574 1.065588 -2.149895 0
M  V30 2 C 3.740064 0.448817 -1.737452 0 CFG=1
M  V30 3 C 3.847639 -1.017531 -2.045191 0
M  V30 4 C 4.716845 -1.773450 -1.107471 0
M  V30 5 C 5.459787 -0.982945 -0.097671 0
M  V30 6 C 4.808692 0.250499 0.416662 0
M  V30 7 F 4.691043 0.214569 1.802597 0
M  V30 8 F 5.703009 1.310303 0.188588 0
M  V30 9 C 3.536274 0.654536 -0.251233 0
M  V30 10 N 2.365376 -0.088379 0.137865 0
M  V30 11 C 1.259760 0.609606 0.693651 0
M  V30 12 O 1.316511 1.839529 0.834160 0
M  V30 13 C 0.024617 -0.173576 1.106110 0
M  V30 14 C -1.094073 0.269694 1.635476 0
M  V30 15 C -2.060747 -0.663718 1.916741 0
M  V30 16 C -3.351382 -0.243011 2.514764 0
M  V30 17 C -3.758832 1.031233 2.855617 0
M  V30 18 N -5.006242 1.002309 3.375964 0
M  V30 19 C -5.395864 -0.304364 3.365709 0
M  V30 20 C -6.583193 -0.860892 3.790583 0
M  V30 21 C -6.798013 -2.217104 3.700342 0
M  V30 22 C -5.719810 -2.886841 3.158136 0
M  V30 23 N -4.586839 -2.311558 2.758560 0
M  V30 24 N -4.396299 -1.016198 2.850896 0
M  V30 25 C -1.821969 -1.978621 1.640389 0
M  V30 26 S -0.073119 -1.902208 0.915796 0
M  V30 27 H 4.829258 1.879328 -2.784194 0
M  V30 28 H 5.591115 0.405437 -2.708305 0
M  V30 29 H 2.926152 0.915602 -2.308188 0
M  V30 30 H 2.792437 -1.418581 -2.025394 0
M  V30 31 H 4.183132 -1.193703 -3.090230 0
M  V30 32 H 5.474919 -2.378095 -1.692710 0
M  V30 33 H 4.109403 -2.568996 -0.608096 0
M  V30 34 H 6.502572 -0.794620 -0.489801 0
M  V30 35 H 5.650829 -1.673543 0.777570 0
M  V30 36 H 3.396657 1.745450 -0.053898 0
M  V30 37 H 2.316461 -1.122726 0.018780 0
M  V30 38 H -1.163952 1.335823 1.807981 0
M  V30 39 H -3.178504 1.935618 2.732306 0
M  V30 40 H -7.364280 -0.218446 4.204495 0
M  V30 41 H -7.696971 -2.711975 4.012255 0
M  V30 42 H -5.744045 -3.967074 3.024574 0
M  V30 43 H -2.477024 -2.825168 1.801955 0
M  V30 END ATOM
M  V30 BEGIN BOND
M  V30 1 1 1 2
M  V30 2 1 2 3
M  V30 3 1 3 4
M  V30 4 1 4 5
M  V30 5 1 5 6
M  V30 6 1 6 7
M  V30 7 1 6 8
M  V30 8 1 6 9
M  V30 9 1 9 10
M  V30 10 1 10 11
M  V30 11 2 11 12
M  V30 12 1 11 13
M  V30 13 2 13 14
M  V30 14 1 14 15
M  V30 15 1 15 16
M  V30 16 2 16 17
M  V30 17 1 17 18
M  V30 18 2 18 19
M  V30 19 1 19 20
M  V30 20 2 20 21
M  V30 21 1 21 22
M  V30 22 2 22 23
M  V30 23 1 23 24
M  V30 24 2 15 25
M  V30 25 1 25 26
M  V30 26 1 9 2
M  V30 27 1 26 13
M  V30 28 1 24 16
M  V30 29 1 24 19
M  V30 30 1 1 27
M  V30 31 1 1 28
M  V30 32 1 2 29 CFG=3
M  V30 33 1 3 30
M  V30 34 1 3 31
M  V30 35 1 4 32
M  V30 36 1 4 33
M  V30 37 1 5 34
M  V30 38 1 5 35
M  V30 39 1 9 36
M  V30 40 1 10 37
M  V30 41 1 14 38
M  V30 42 1 17 39
M  V30 43 1 20 40
M  V30 44 1 21 41
M  V30 45 1 22 42
M  V30 46 1 25 43
M  V30 END BOND
M  V30 END CTAB
M  END
>  <Dataset>  (770) 
ChEMBL_Kinases

>  <Ligand_Instance>  (770) 
nan

>  <PDB_ID>  (770) 
nan

>  <Standardized_SMILES>  (770) 
N[C@H]1CCCC(F)(F)C1NC(=O)c1cc(-c2cnc3cccnn23)cs1

>  <Name>  (770) 
nan

>  <Pocket>  (770) 
nan

>  <ATP_Site>  (770) 
nan

>  <Peripheral>  (770) 
nan

>  <Num_H_Atoms_ProtBoundConf>  (770) 
nan

>  <Num_Resolved_Atoms>  (770) 
nan

>  <Num_Not_Resolved_Atoms>  (770) 
nan

$$$$
CHEMBL3648450
     RDKit          3D

  0  0  0  0  0  0  0  0  0  0999 V3000
M  V30 BEGIN CTAB
M  V30 COUNTS 52 55 0 0 0
M  V30 BEGIN ATOM
M  V30 1 C -1.307036 0.430533 -4.097733 0
M  V30 2 C -0.024414 -0.265090 -3.625099 0
M  V30 3 C 0.149792 -0.215930 -2.172867 0
M  V30 4 S 1.283362 0.976720 -1.588791 0
M  V30 5 C 1.041966 0.562501 0.199426 0
M  V30 6 C 1.766200 1.287191 1.248740 0
M  V30 7 O 2.543478 2.188626 0.915406 0
M  V30 8 N 1.525244 0.901727 2.576069 0
M  V30 9 C 2.248336 1.622666 3.597947 0
M  V30 10 C 3.249874 0.680113 4.228040 0 CFG=2
M  V30 11 N 2.734738 -0.664409 4.105751 0
M  V30 12 C 3.505840 0.980374 5.668853 0
M  V30 13 C 2.281641 0.870764 6.527264 0
M  V30 14 C 1.071955 1.382086 5.823444 0
M  V30 15 C 1.409402 2.261008 4.642435 0
M  V30 16 F 2.100879 3.346757 5.153496 0
M  V30 17 F 0.219064 2.762190 4.145799 0
M  V30 18 C 0.115299 -0.448919 0.151772 0
M  V30 19 C -0.358820 -0.866136 -1.060018 0
M  V30 20 C -1.335550 -1.926593 -1.059566 0
M  V30 21 C -1.836901 -2.569534 0.061573 0
M  V30 22 N -2.760579 -3.537075 -0.229471 0
M  V30 23 C -2.867696 -3.526764 -1.597997 0
M  V30 24 C -3.663811 -4.315771 -2.369858 0
M  V30 25 C -3.567963 -4.091625 -3.722071 0
M  V30 26 C -4.381874 -4.885188 -4.675685 0
M  V30 27 C -2.704189 -3.120789 -4.166794 0
M  V30 28 N -2.021183 -2.465865 -3.257927 0
M  V30 29 N -2.012900 -2.571522 -1.977158 0
M  V30 30 H -1.745742 -0.075734 -4.970419 0
M  V30 31 H -1.162772 1.516661 -4.237574 0
M  V30 32 H -2.048910 0.340776 -3.269555 0
M  V30 33 H 0.039318 -1.296608 -3.994817 0
M  V30 34 H 0.852254 0.238041 -4.138497 0
M  V30 35 H 0.856344 0.132726 2.799562 0
M  V30 36 H 2.841625 2.438553 3.105247 0
M  V30 37 H 4.234946 0.742804 3.697615 0
M  V30 38 H 2.073295 -0.928597 4.864971 0
M  V30 39 H 3.493471 -1.379457 4.031506 0
M  V30 40 H 4.022409 1.955685 5.819461 0
M  V30 41 H 4.223398 0.199519 6.021162 0
M  V30 42 H 2.471187 1.457917 7.458949 0
M  V30 43 H 2.141943 -0.185701 6.901275 0
M  V30 44 H 0.351188 0.571661 5.571359 0
M  V30 45 H 0.510688 2.057889 6.533865 0
M  V30 46 H -0.082635 -0.750220 1.164194 0
M  V30 47 H -1.615450 -2.442259 1.129876 0
M  V30 48 H -4.311203 -5.052024 -1.940737 0
M  V30 49 H -4.187495 -5.953804 -4.417234 0
M  V30 50 H -3.957033 -4.750514 -5.694397 0
M  V30 51 H -5.443566 -4.603660 -4.679973 0
M  V30 52 H -2.597072 -2.912245 -5.217128 0
M  V30 END ATOM
M  V30 BEGIN BOND
M  V30 1 1 1 2
M  V30 2 1 2 3
M  V30 3 1 3 4
M  V30 4 1 4 5
M  V30 5 1 5 6
M  V30 6 2 6 7
M  V30 7 1 6 8
M  V30 8 1 8 9
M  V30 9 1 9 10
M  V30 10 1 10 11
M  V30 11 1 10 12
M  V30 12 1 12 13
M  V30 13 1 13 14
M  V30 14 1 14 15
M  V30 15 1 15 16
M  V30 16 1 15 17
M  V30 17 2 5 18
M  V30 18 1 18 19
M  V30 19 1 19 20
M  V30 20 2 20 21
M  V30 21 1 21 22
M  V30 22 2 22 23
M  V30 23 1 23 24
M  V30 24 2 24 25
M  V30 25 1 25 26
M  V30 26 1 25 27
M  V30 27 2 27 28
M  V30 28 1 28 29
M  V30 29 2 19 3
M  V30 30 1 29 20
M  V30 31 1 15 9
M  V30 32 1 29 23
M  V30 33 1 1 30
M  V30 34 1 1 31
M  V30 35 1 1 32
M  V30 36 1 2 33
M  V30 37 1 2 34
M  V30 38 1 8 35
M  V30 39 1 9 36
M  V30 40 1 10 37 CFG=3
M  V30 41 1 11 38
M  V30 42 1 11 39
M  V30 43 1 12 40
M  V30 44 1 12 41
M  V30 45 1 13 42
M  V30 46 1 13 43
M  V30 47 1 14 44
M  V30 48 1 14 45
M  V30 49 1 18 46
M  V30 50 1 21 47
M  V30 51 1 24 48
M  V30 52 1 26 49
M  V30 53 1 26 50
M  V30 54 1 26 51
M  V30 55 1 27 52
M  V30 END BOND
M  V30 END CTAB
M  END
>  <Dataset>  (771) 
ChEMBL_Kinases

>  <Ligand_Instance>  (771) 
nan

>  <PDB_ID>  (771) 
nan

>  <Standardized_SMILES>  (771) 
CCc1sc(C(=O)NC2[C@H](N)CCCC2(F)F)cc1-c1cnc2cc(C)cnn12

>  <Name>  (771) 
nan

>  <Pocket>  (771) 
nan

>  <ATP_Site>  (771) 
nan

>  <Peripheral>  (771) 
nan

>  <Num_H_Atoms_ProtBoundConf>  (771) 
nan

>  <Num_Resolved_Atoms>  (771) 
nan

>  <Num_Not_Resolved_Atoms>  (771) 
nan

$$$$
CHEMBL364925
     RDKit          3D

  0  0  0  0  0  0  0  0  0  0999 V3000
M  V30 BEGIN CTAB
M  V30 COUNTS 55 58 0 0 0
M  V30 BEGIN ATOM
M  V30 1 C 2.698821 1.738973 5.340529 0
M  V30 2 C 3.243603 0.596377 4.480064 0
M  V30 3 C 2.917236 -0.675027 5.226705 0
M  V30 4 C 2.490221 0.683769 3.198164 0
M  V30 5 N 3.097885 0.930070 1.999265 0
M  V30 6 C 2.151195 0.950352 1.027012 0
M  V30 7 C 2.606094 1.202144 -0.333385 0
M  V30 8 C 2.367804 2.260690 -1.181686 0
M  V30 9 C 2.912807 2.280242 -2.447079 0
M  V30 10 C 3.709027 1.263033 -2.921374 0
M  V30 11 F 4.244661 1.285768 -4.165921 0
M  V30 12 C 3.968406 0.182732 -2.091463 0
M  V30 13 C 3.418060 0.173785 -0.828801 0
M  V30 14 C 0.963716 0.709881 1.678386 0
M  V30 15 C -0.278539 0.668967 0.917364 0
M  V30 16 C -0.767423 1.856519 0.384228 0
M  V30 17 C -1.937185 1.888150 -0.348631 0
M  V30 18 C -2.590817 0.686295 -0.522766 0
M  V30 19 N -3.731922 0.413818 -1.179773 0
M  V30 20 C -4.011972 -0.898883 -1.100588 0
M  V30 21 N -5.164302 -1.475171 -1.697339 0
M  V30 22 N -3.052242 -1.507804 -0.386664 0
M  V30 23 S -2.911118 -3.156186 0.007976 0
M  V30 24 O -1.712571 -3.435028 0.882107 0
M  V30 25 O -4.099775 -3.661895 0.793772 0
M  V30 26 C -2.752931 -4.230674 -1.393265 0
M  V30 27 C -2.573358 -5.640735 -0.802826 0
M  V30 28 C -4.013332 -4.308923 -2.219496 0
M  V30 29 C -2.171748 -0.531655 -0.027550 0
M  V30 30 C -0.991527 -0.493235 0.698420 0
M  V30 31 N 1.186981 0.549258 3.000300 0
M  V30 32 H 1.711815 1.436351 5.746420 0
M  V30 33 H 3.381375 2.002716 6.149803 0
M  V30 34 H 2.566943 2.643878 4.701520 0
M  V30 35 H 4.327037 0.709416 4.307821 0
M  V30 36 H 1.845762 -0.950041 5.050648 0
M  V30 37 H 3.036052 -0.540077 6.323932 0
M  V30 38 H 3.527731 -1.543453 4.896416 0
M  V30 39 H 1.740622 3.011710 -0.738242 0
M  V30 40 H 2.681674 3.132988 -3.038668 0
M  V30 41 H 4.593221 -0.606421 -2.473631 0
M  V30 42 H 3.684088 -0.723961 -0.257811 0
M  V30 43 H -0.292155 2.831469 0.493618 0
M  V30 44 H -2.334224 2.814763 -0.774558 0
M  V30 45 H -5.256694 -1.446671 -2.736208 0
M  V30 46 H -5.891414 -1.914611 -1.076808 0
M  V30 47 H -1.849704 -3.950668 -1.978946 0
M  V30 48 H -1.843271 -5.651572 0.017885 0
M  V30 49 H -2.224808 -6.289032 -1.639652 0
M  V30 50 H -3.536931 -5.988069 -0.405775 0
M  V30 51 H -4.871599 -4.238767 -1.540602 0
M  V30 52 H -4.089445 -5.351125 -2.658517 0
M  V30 53 H -4.015367 -3.596178 -3.066722 0
M  V30 54 H -0.605318 -1.395080 1.112513 0
M  V30 55 H 0.443937 0.355887 3.707126 0
M  V30 END ATOM
M  V30 BEGIN BOND
M  V30 1 1 1 2
M  V30 2 1 2 3
M  V30 3 1 2 4
M  V30 4 2 4 5
M  V30 5 1 5 6
M  V30 6 1 6 7
M  V30 7 2 7 8
M  V30 8 1 8 9
M  V30 9 2 9 10
M  V30 10 1 10 11
M  V30 11 1 10 12
M  V30 12 2 12 13
M  V30 13 2 6 14
M  V30 14 1 14 15
M  V30 15 2 15 16
M  V30 16 1 16 17
M  V30 17 2 17 18
M  V30 18 1 18 19
M  V30 19 2 19 20
M  V30 20 1 20 21
M  V30 21 1 20 22
M  V30 22 1 22 23
M  V30 23 2 23 24
M  V30 24 2 23 25
M  V30 25 1 23 26
M  V30 26 1 26 27
M  V30 27 1 26 28
M  V30 28 1 22 29
M  V30 29 2 29 30
M  V30 30 1 14 31
M  V30 31 1 31 4
M  V30 32 1 13 7
M  V30 33 1 30 15
M  V30 34 1 29 18
M  V30 35 1 1 32
M  V30 36 1 1 33
M  V30 37 1 1 34
M  V30 38 1 2 35
M  V30 39 1 3 36
M  V30 40 1 3 37
M  V30 41 1 3 38
M  V30 42 1 8 39
M  V30 43 1 9 40
M  V30 44 1 12 41
M  V30 45 1 13 42
M  V30 46 1 16 43
M  V30 47 1 17 44
M  V30 48 1 21 45
M  V30 49 1 21 46
M  V30 50 1 26 47
M  V30 51 1 27 48
M  V30 52 1 27 49
M  V30 53 1 27 50
M  V30 54 1 28 51
M  V30 55 1 28 52
M  V30 56 1 28 53
M  V30 57 1 30 54
M  V30 58 1 31 55
M  V30 END BOND
M  V30 END CTAB
M  END
>  <Dataset>  (772) 
ChEMBL_Kinases

>  <Ligand_Instance>  (772) 
nan

>  <PDB_ID>  (772) 
nan

>  <Standardized_SMILES>  (772) 
CC(C)c1nc(-c2ccc(F)cc2)c(-c2ccc3nc(N)n(S(=O)(=O)C(C)C)c3c2)[nH]1

>  <Name>  (772) 
nan

>  <Pocket>  (772) 
nan

>  <ATP_Site>  (772) 
nan

>  <Peripheral>  (772) 
nan

>  <Num_H_Atoms_ProtBoundConf>  (772) 
nan

>  <Num_Resolved_Atoms>  (772) 
nan

>  <Num_Not_Resolved_Atoms>  (772) 
nan

$$$$
CHEMBL364940
     RDKit          3D

  0  0  0  0  0  0  0  0  0  0999 V3000
M  V30 BEGIN CTAB
M  V30 COUNTS 40 43 0 0 0
M  V30 BEGIN ATOM
M  V30 1 N 2.062437 4.106392 2.544400 0
M  V30 2 C 1.737004 3.181060 1.900516 0
M  V30 3 C 1.341067 2.053962 1.113231 0
M  V30 4 C 2.206665 1.337924 0.410555 0
M  V30 5 N 2.058649 0.214190 -0.409925 0
M  V30 6 C 3.269180 -0.288570 -0.955169 0
M  V30 7 C 3.242816 -1.429305 -1.788118 0
M  V30 8 C 4.502186 -1.860320 -2.270162 0
M  V30 9 C 5.617947 -1.155240 -1.900309 0
M  V30 10 C 5.617992 -0.047773 -1.088933 0
M  V30 11 C 4.383635 0.385309 -0.610439 0
M  V30 12 S 3.953457 1.765561 0.441812 0
M  V30 13 C -0.089114 1.662974 1.117779 0
M  V30 14 C -0.909546 2.336903 1.994855 0
M  V30 15 C -2.276247 2.000905 2.062823 0
M  V30 16 N -2.743880 1.028148 1.266186 0
M  V30 17 C -1.977511 0.358822 0.407904 0
M  V30 18 N -2.077662 -0.724066 -0.501740 0
M  V30 19 C -2.885630 -1.926467 -0.209339 0
M  V30 20 C -2.552666 -2.361827 1.195542 0
M  V30 21 C -3.431057 -1.848226 2.160484 0
M  V30 22 C -3.282208 -2.113171 3.500904 0
M  V30 23 C -2.232857 -2.915045 3.938946 0
M  V30 24 C -1.384433 -3.401215 2.943625 0
M  V30 25 N -1.537729 -3.135491 1.624775 0
M  V30 26 N -0.726150 0.756284 0.431188 0
M  V30 27 H 1.072876 -0.134905 -0.522700 0
M  V30 28 H 2.381978 -2.001848 -2.100111 0
M  V30 29 H 4.508895 -2.741917 -2.910874 0
M  V30 30 H 6.533999 -1.567702 -2.317936 0
M  V30 31 H 6.549866 0.447038 -0.843746 0
M  V30 32 H -0.648582 3.123773 2.675516 0
M  V30 33 H -3.052086 2.433828 2.703192 0
M  V30 34 H -1.620079 -0.760968 -1.436564 0
M  V30 35 H -2.625074 -2.769676 -0.902339 0
M  V30 36 H -3.948288 -1.715134 -0.311003 0
M  V30 37 H -4.263474 -1.232276 1.909540 0
M  V30 38 H -3.976099 -1.712305 4.234190 0
M  V30 39 H -2.053385 -3.167990 4.992734 0
M  V30 40 H -0.543412 -4.030077 3.214540 0
M  V30 END ATOM
M  V30 BEGIN BOND
M  V30 1 3 1 2
M  V30 2 1 2 3
M  V30 3 2 3 4
M  V30 4 1 4 5
M  V30 5 1 5 6
M  V30 6 2 6 7
M  V30 7 1 7 8
M  V30 8 2 8 9
M  V30 9 1 9 10
M  V30 10 2 10 11
M  V30 11 1 11 12
M  V30 12 1 3 13
M  V30 13 2 13 14
M  V30 14 1 14 15
M  V30 15 2 15 16
M  V30 16 1 16 17
M  V30 17 1 17 18
M  V30 18 1 18 19
M  V30 19 1 19 20
M  V30 20 2 20 21
M  V30 21 1 21 22
M  V30 22 2 22 23
M  V30 23 1 23 24
M  V30 24 2 24 25
M  V30 25 2 17 26
M  V30 26 1 12 4
M  V30 27 1 26 13
M  V30 28 1 11 6
M  V30 29 1 25 20
M  V30 30 1 5 27
M  V30 31 1 7 28
M  V30 32 1 8 29
M  V30 33 1 9 30
M  V30 34 1 10 31
M  V30 35 1 14 32
M  V30 36 1 15 33
M  V30 37 1 18 34
M  V30 38 1 19 35
M  V30 39 1 19 36
M  V30 40 1 21 37
M  V30 41 1 22 38
M  V30 42 1 23 39
M  V30 43 1 24 40
M  V30 END BOND
M  V30 END CTAB
M  END
>  <Dataset>  (773) 
ChEMBL_Kinases

>  <Ligand_Instance>  (773) 
nan

>  <PDB_ID>  (773) 
nan

>  <Standardized_SMILES>  (773) 
N#C/C(=C1/Nc2ccccc2S1)c1ccnc(NCc2ccccn2)n1

>  <Name>  (773) 
nan

>  <Pocket>  (773) 
nan

>  <ATP_Site>  (773) 
nan

>  <Peripheral>  (773) 
nan

>  <Num_H_Atoms_ProtBoundConf>  (773) 
nan

>  <Num_Resolved_Atoms>  (773) 
nan

>  <Num_Not_Resolved_Atoms>  (773) 
nan

$$$$
CHEMBL3648099
     RDKit          3D

  0  0  0  0  0  0  0  0  0  0999 V3000
M  V30 BEGIN CTAB
M  V30 COUNTS 41 42 0 0 0
M  V30 BEGIN ATOM
M  V30 1 C 1.318898 -4.668001 3.918922 0
M  V30 2 S 2.523766 -4.437970 2.872492 0
M  V30 3 N 2.559670 -5.646533 1.665916 0
M  V30 4 O 3.722976 -4.701321 3.779292 0
M  V30 5 C 2.538806 -2.841548 2.213936 0
M  V30 6 C 3.720919 -2.212003 1.984594 0
M  V30 7 C 3.766055 -0.942922 1.461704 0
M  V30 8 C 2.627286 -0.226559 1.136543 0
M  V30 9 N 2.690119 1.085015 0.601649 0
M  V30 10 C 1.639929 1.919895 0.144426 0
M  V30 11 N 1.935015 3.156871 -0.288821 0
M  V30 12 C 1.030079 4.023565 -0.742597 0
M  V30 13 C -0.285537 3.620398 -0.766227 0
M  V30 14 Br -1.589124 4.855564 -1.414544 0
M  V30 15 C -0.650803 2.367480 -0.336617 0
M  V30 16 N -2.010323 1.961208 -0.359805 0
M  V30 17 C -2.563503 0.696308 0.043272 0 CFG=2
M  V30 18 C -2.044616 -0.428449 -0.801502 0
M  V30 19 C -4.044456 0.709230 0.186078 0
M  V30 20 O -4.732798 1.028541 -0.954615 0
M  V30 21 N 0.340520 1.603313 0.089718 0
M  V30 22 C 1.463089 -0.915078 1.390990 0
M  V30 23 C 1.364798 -2.182504 1.911610 0
M  V30 24 H 1.107050 -3.707840 4.366192 0
M  V30 25 H 1.044852 -5.712408 3.911259 0
M  V30 26 H 1.581111 -5.857780 1.323491 0
M  V30 27 H 3.072203 -6.502168 1.923659 0
M  V30 28 H 4.677655 -2.686863 2.205559 0
M  V30 29 H 4.745666 -0.469550 1.290773 0
M  V30 30 H 3.672880 1.478692 0.544548 0
M  V30 31 H 1.361114 4.995291 -1.069333 0
M  V30 32 H -2.724663 2.653962 -0.712500 0
M  V30 33 H -2.153904 0.503966 1.079008 0
M  V30 34 H -2.573725 -1.368730 -0.665991 0
M  V30 35 H -2.165219 -0.161999 -1.891515 0
M  V30 36 H -0.957520 -0.601342 -0.685999 0
M  V30 37 H -4.371688 -0.229442 0.664108 0
M  V30 38 H -4.288134 1.509258 0.932124 0
M  V30 39 H -4.733449 0.379154 -1.673647 0
M  V30 40 H 0.510828 -0.459047 1.182875 0
M  V30 41 H 0.427016 -2.683704 2.094060 0
M  V30 END ATOM
M  V30 BEGIN BOND
M  V30 1 2 1 2
M  V30 2 1 2 3
M  V30 3 2 2 4
M  V30 4 1 2 5
M  V30 5 2 5 6
M  V30 6 1 6 7
M  V30 7 2 7 8
M  V30 8 1 8 9
M  V30 9 1 9 10
M  V30 10 2 10 11
M  V30 11 1 11 12
M  V30 12 2 12 13
M  V30 13 1 13 14
M  V30 14 1 13 15
M  V30 15 1 15 16
M  V30 16 1 16 17
M  V30 17 1 17 18
M  V30 18 1 17 19
M  V30 19 1 19 20
M  V30 20 2 15 21
M  V30 21 1 8 22
M  V30 22 2 22 23
M  V30 23 1 23 5
M  V30 24 1 21 10
M  V30 25 1 1 24
M  V30 26 1 1 25
M  V30 27 1 3 26
M  V30 28 1 3 27
M  V30 29 1 6 28
M  V30 30 1 7 29
M  V30 31 1 9 30
M  V30 32 1 12 31
M  V30 33 1 16 32
M  V30 34 1 17 33 CFG=1
M  V30 35 1 18 34
M  V30 36 1 18 35
M  V30 37 1 18 36
M  V30 38 1 19 37
M  V30 39 1 19 38
M  V30 40 1 20 39
M  V30 41 1 22 40
M  V30 42 1 23 41
M  V30 END BOND
M  V30 END CTAB
M  END
>  <Dataset>  (774) 
ChEMBL_Kinases

>  <Ligand_Instance>  (774) 
nan

>  <PDB_ID>  (774) 
nan

>  <Standardized_SMILES>  (774) 
C=S(N)(=O)c1ccc(Nc2ncc(Br)c(N[C@H](C)CO)n2)cc1

>  <Name>  (774) 
nan

>  <Pocket>  (774) 
nan

>  <ATP_Site>  (774) 
nan

>  <Peripheral>  (774) 
nan

>  <Num_H_Atoms_ProtBoundConf>  (774) 
nan

>  <Num_Resolved_Atoms>  (774) 
nan

>  <Num_Not_Resolved_Atoms>  (774) 
nan

$$$$
CHEMBL3652222
     RDKit          3D

  0  0  0  0  0  0  0  0  0  0999 V3000
M  V30 BEGIN CTAB
M  V30 COUNTS 59 63 0 0 0
M  V30 BEGIN ATOM
M  V30 1 C 3.862121 0.147567 4.245830 0
M  V30 2 C 2.632187 0.691927 3.585591 0
M  V30 3 C 2.278952 2.004208 3.797086 0
M  V30 4 C 1.158065 2.550321 3.211340 0
M  V30 5 C 0.365380 1.778450 2.394578 0
M  V30 6 N -0.767559 2.368035 1.819111 0
M  V30 7 C -1.111789 3.764604 1.837061 0
M  V30 8 C -1.046733 4.343921 0.441540 0
M  V30 9 N -1.412123 3.437842 -0.580368 0
M  V30 10 C -0.465026 3.185519 -1.608875 0
M  V30 11 C -2.226732 2.336299 -0.177941 0
M  V30 12 C -1.834870 1.687540 1.096206 0
M  V30 13 C 0.753217 0.476238 2.210001 0
M  V30 14 C 1.857424 -0.133395 2.762454 0
M  V30 15 N 2.231378 -1.486020 2.579799 0
M  V30 16 C 1.729795 -2.537521 1.765642 0
M  V30 17 N 2.266174 -3.772264 1.992404 0
M  V30 18 C 1.938195 -4.871826 1.316152 0
M  V30 19 C 0.993610 -4.742262 0.323344 0
M  V30 20 C 0.458894 -3.492387 0.101878 0
M  V30 21 N 0.789987 -2.384378 0.785143 0
M  V30 22 C -0.517627 -3.493205 -0.978334 0
M  V30 23 C -0.838322 -4.637058 -1.668699 0
M  V30 24 C -1.774229 -4.360903 -2.640345 0
M  V30 25 C -2.415952 -5.234554 -3.613475 0
M  V30 26 O -2.138680 -6.452988 -3.653895 0
M  V30 27 O -3.340458 -4.721909 -4.503710 0
M  V30 28 N -2.005945 -3.022649 -2.514506 0
M  V30 29 N -1.263117 -2.540856 -1.541216 0
M  V30 30 C -1.288233 -1.143667 -1.175861 0
M  V30 31 C -0.270555 -5.979684 -1.415641 0
M  V30 32 C 0.745514 -6.032512 -0.322787 0
M  V30 33 H 4.334151 0.937557 4.861016 0
M  V30 34 H 3.654033 -0.721603 4.894492 0
M  V30 35 H 4.634361 -0.139835 3.492866 0
M  V30 36 H 2.945579 2.578118 4.457401 0
M  V30 37 H 1.027359 3.573470 3.478113 0
M  V30 38 H -2.179510 3.925564 2.176852 0
M  V30 39 H -0.466991 4.381039 2.484903 0
M  V30 40 H -0.003292 4.721526 0.259788 0
M  V30 41 H -1.682004 5.252861 0.432366 0
M  V30 42 H 0.370772 3.914826 -1.509075 0
M  V30 43 H -0.042336 2.174339 -1.653226 0
M  V30 44 H -0.909548 3.404672 -2.621795 0
M  V30 45 H -3.287802 2.711290 -0.172876 0
M  V30 46 H -2.186213 1.589087 -0.995147 0
M  V30 47 H -1.631694 0.614429 1.069215 0
M  V30 48 H -2.727255 1.789599 1.788297 0
M  V30 49 H 0.164298 -0.173384 1.579250 0
M  V30 50 H 3.066927 -1.764011 3.182431 0
M  V30 51 H 2.469594 -5.785695 1.631457 0
M  V30 52 H -3.507519 -5.135635 -5.421359 0
M  V30 53 H -2.229636 -0.983511 -0.595334 0
M  V30 54 H -1.352201 -0.541425 -2.126661 0
M  V30 55 H -0.385885 -0.855482 -0.632127 0
M  V30 56 H 0.134012 -6.364171 -2.388759 0
M  V30 57 H -1.119229 -6.677377 -1.150507 0
M  V30 58 H 1.722158 -6.340157 -0.790503 0
M  V30 59 H 0.513796 -6.833458 0.408960 0
M  V30 END ATOM
M  V30 BEGIN BOND
M  V30 1 1 1 2
M  V30 2 2 2 3
M  V30 3 1 3 4
M  V30 4 2 4 5
M  V30 5 1 5 6
M  V30 6 1 6 7
M  V30 7 1 7 8
M  V30 8 1 8 9
M  V30 9 1 9 10
M  V30 10 1 9 11
M  V30 11 1 11 12
M  V30 12 1 5 13
M  V30 13 2 13 14
M  V30 14 1 14 15
M  V30 15 1 15 16
M  V30 16 2 16 17
M  V30 17 1 17 18
M  V30 18 2 18 19
M  V30 19 1 19 20
M  V30 20 2 20 21
M  V30 21 1 20 22
M  V30 22 2 22 23
M  V30 23 1 23 24
M  V30 24 1 24 25
M  V30 25 2 25 26
M  V30 26 1 25 27
M  V30 27 2 24 28
M  V30 28 1 28 29
M  V30 29 1 29 30
M  V30 30 1 23 31
M  V30 31 1 31 32
M  V30 32 1 14 2
M  V30 33 1 21 16
M  V30 34 1 29 22
M  V30 35 1 12 6
M  V30 36 1 32 19
M  V30 37 1 1 33
M  V30 38 1 1 34
M  V30 39 1 1 35
M  V30 40 1 3 36
M  V30 41 1 4 37
M  V30 42 1 7 38
M  V30 43 1 7 39
M  V30 44 1 8 40
M  V30 45 1 8 41
M  V30 46 1 10 42
M  V30 47 1 10 43
M  V30 48 1 10 44
M  V30 49 1 11 45
M  V30 50 1 11 46
M  V30 51 1 12 47
M  V30 52 1 12 48
M  V30 53 1 13 49
M  V30 54 1 15 50
M  V30 55 1 18 51
M  V30 56 1 27 52
M  V30 57 1 30 53
M  V30 58 1 30 54
M  V30 59 1 30 55
M  V30 60 1 31 56
M  V30 61 1 31 57
M  V30 62 1 32 58
M  V30 63 1 32 59
M  V30 END BOND
M  V30 END CTAB
M  END
>  <Dataset>  (775) 
ChEMBL_Kinases

>  <Ligand_Instance>  (775) 
nan

>  <PDB_ID>  (775) 
nan

>  <Standardized_SMILES>  (775) 
Cc1ccc(N2CCN(C)CC2)cc1Nc1ncc2c(n1)-c1c(c(C(=O)O)nn1C)CC2

>  <Name>  (775) 
nan

>  <Pocket>  (775) 
nan

>  <ATP_Site>  (775) 
nan

>  <Peripheral>  (775) 
nan

>  <Num_H_Atoms_ProtBoundConf>  (775) 
nan

>  <Num_Resolved_Atoms>  (775) 
nan

>  <Num_Not_Resolved_Atoms>  (775) 
nan

$$$$
CHEMBL3652221
     RDKit          3D

  0  0  0  0  0  0  0  0  0  0999 V3000
M  V30 BEGIN CTAB
M  V30 COUNTS 47 50 0 0 0
M  V30 BEGIN ATOM
M  V30 1 N 4.888138 1.327961 5.079465 0
M  V30 2 C 4.684346 0.128024 4.356675 0
M  V30 3 O 5.496088 -0.777451 4.671617 0
M  V30 4 C 3.641900 0.006337 3.367758 0
M  V30 5 N 3.545937 -1.166972 2.675569 0
M  V30 6 N 2.559891 -1.095951 1.816685 0
M  V30 7 C 2.080886 -2.064945 0.851766 0
M  V30 8 C 0.997140 -2.962769 1.364679 0
M  V30 9 F 0.620443 -3.839286 0.346612 0
M  V30 10 C 2.009613 0.136827 1.954475 0
M  V30 11 C 2.675983 0.872121 2.940260 0
M  V30 12 C 2.323010 2.228070 3.359098 0
M  V30 13 C 1.262163 2.884301 2.553408 0
M  V30 14 C 0.582746 2.063914 1.551686 0
M  V30 15 C -0.451567 2.636130 0.867247 0
M  V30 16 N -1.130355 1.964465 -0.086607 0
M  V30 17 C -0.831496 0.698402 -0.419531 0
M  V30 18 N -1.282683 -0.310087 -1.345129 0
M  V30 19 C -2.515513 -1.013296 -1.125390 0
M  V30 20 C -3.381590 -0.668831 -0.111019 0
M  V30 21 C -4.585100 -1.305107 0.113925 0
M  V30 22 C -4.889257 -2.338826 -0.757772 0
M  V30 23 C -4.055436 -2.737235 -1.805030 0
M  V30 24 C -2.862831 -2.043750 -1.959353 0
M  V30 25 O -1.984764 -2.381095 -2.973251 0
M  V30 26 C -2.281592 -3.439360 -3.837093 0
M  V30 27 F -1.292510 -3.639796 -4.787427 0
M  V30 28 F -2.420429 -4.644099 -3.153049 0
M  V30 29 F -3.447108 -3.172163 -4.508189 0
M  V30 30 N 0.192357 0.140642 0.263178 0
M  V30 31 C 0.897169 0.777100 1.223833 0
M  V30 32 H 5.211961 1.722464 5.972256 0
M  V30 33 H 4.800428 2.382152 5.032905 0
M  V30 34 H 2.983685 -2.684032 0.561594 0
M  V30 35 H 1.751114 -1.604873 -0.097571 0
M  V30 36 H 1.429240 -3.634140 2.161664 0
M  V30 37 H 0.101058 -2.421271 1.684343 0
M  V30 38 H 2.051256 2.276811 4.452027 0
M  V30 39 H 3.257315 2.849557 3.303893 0
M  V30 40 H 0.460334 3.293948 3.253289 0
M  V30 41 H 1.684499 3.831464 2.109575 0
M  V30 42 H -0.857358 3.630126 0.967468 0
M  V30 43 H -0.706336 -0.526546 -2.181472 0
M  V30 44 H -3.140985 0.150482 0.573969 0
M  V30 45 H -5.288959 -1.052037 0.903498 0
M  V30 46 H -5.835788 -2.867988 -0.613525 0
M  V30 47 H -4.356957 -3.553661 -2.451414 0
M  V30 END ATOM
M  V30 BEGIN BOND
M  V30 1 1 1 2
M  V30 2 2 2 3
M  V30 3 1 2 4
M  V30 4 2 4 5
M  V30 5 1 5 6
M  V30 6 1 6 7
M  V30 7 1 7 8
M  V30 8 1 8 9
M  V30 9 1 6 10
M  V30 10 2 10 11
M  V30 11 1 11 12
M  V30 12 1 12 13
M  V30 13 1 13 14
M  V30 14 2 14 15
M  V30 15 1 15 16
M  V30 16 2 16 17
M  V30 17 1 17 18
M  V30 18 1 18 19
M  V30 19 2 19 20
M  V30 20 1 20 21
M  V30 21 2 21 22
M  V30 22 1 22 23
M  V30 23 2 23 24
M  V30 24 1 24 25
M  V30 25 1 25 26
M  V30 26 1 26 27
M  V30 27 1 26 28
M  V30 28 1 26 29
M  V30 29 1 17 30
M  V30 30 2 30 31
M  V30 31 1 11 4
M  V30 32 1 31 14
M  V30 33 1 31 10
M  V30 34 1 24 19
M  V30 35 1 1 32
M  V30 36 1 1 33
M  V30 37 1 7 34
M  V30 38 1 7 35
M  V30 39 1 8 36
M  V30 40 1 8 37
M  V30 41 1 12 38
M  V30 42 1 12 39
M  V30 43 1 13 40
M  V30 44 1 13 41
M  V30 45 1 15 42
M  V30 46 1 18 43
M  V30 47 1 20 44
M  V30 48 1 21 45
M  V30 49 1 22 46
M  V30 50 1 23 47
M  V30 END BOND
M  V30 END CTAB
M  END
>  <Dataset>  (776) 
ChEMBL_Kinases

>  <Ligand_Instance>  (776) 
nan

>  <PDB_ID>  (776) 
nan

>  <Standardized_SMILES>  (776) 
NC(=O)c1nn(CCF)c2c1CCc1cnc(Nc3ccccc3OC(F)(F)F)nc1-2

>  <Name>  (776) 
nan

>  <Pocket>  (776) 
nan

>  <ATP_Site>  (776) 
nan

>  <Peripheral>  (776) 
nan

>  <Num_H_Atoms_ProtBoundConf>  (776) 
nan

>  <Num_Resolved_Atoms>  (776) 
nan

>  <Num_Not_Resolved_Atoms>  (776) 
nan

$$$$
CHEMBL3652220
     RDKit          3D

  0  0  0  0  0  0  0  0  0  0999 V3000
M  V30 BEGIN CTAB
M  V30 COUNTS 64 68 0 0 0
M  V30 BEGIN ATOM
M  V30 1 C 7.058550 -2.686820 2.861763 0
M  V30 2 N 5.688385 -2.154741 2.937371 0
M  V30 3 C 5.286476 -1.252097 1.921662 0
M  V30 4 O 6.097572 -0.934422 0.993788 0
M  V30 5 C 3.951408 -0.660043 1.895753 0
M  V30 6 N 3.000249 -0.881061 2.815811 0
M  V30 7 N 1.885055 -0.220654 2.546142 0
M  V30 8 C 0.635308 -0.190328 3.280090 0
M  V30 9 C 2.169098 0.442690 1.395512 0
M  V30 10 C 3.448916 0.202080 0.946579 0
M  V30 11 C 4.085276 0.753944 -0.248461 0
M  V30 12 C 3.194763 1.621287 -1.065823 0
M  V30 13 C 1.849594 1.845713 -0.536784 0
M  V30 14 C 1.031045 2.669535 -1.272867 0
M  V30 15 N -0.232596 2.956800 -0.906794 0
M  V30 16 C -0.782181 2.449454 0.217928 0
M  V30 17 N -2.037671 2.514937 0.882500 0
M  V30 18 C -2.924051 1.377332 0.823110 0
M  V30 19 C -2.516299 0.237253 0.136038 0
M  V30 20 C -3.270844 -0.908215 0.037365 0
M  V30 21 N -2.804836 -2.039884 -0.685630 0
M  V30 22 C -1.674424 -1.981931 -1.589535 0
M  V30 23 C -2.126997 -2.694344 -2.874014 0
M  V30 24 N -2.202042 -4.104106 -2.564740 0
M  V30 25 C -0.960675 -4.686166 -3.039470 0
M  V30 26 C -2.433196 -4.362741 -1.180768 0
M  V30 27 C -3.408552 -3.352016 -0.566921 0
M  V30 28 C -4.495635 -0.887074 0.668040 0
M  V30 29 C -4.955663 0.229114 1.370799 0
M  V30 30 C -4.158375 1.355897 1.440126 0
M  V30 31 O -4.520044 2.536029 2.120250 0
M  V30 32 C -5.782137 2.617160 2.799075 0
M  V30 33 N 0.013388 1.640760 0.945645 0
M  V30 34 C 1.286953 1.326648 0.613191 0
M  V30 35 H 7.020027 -3.743031 2.569734 0
M  V30 36 H 7.482432 -2.649781 3.885886 0
M  V30 37 H 7.669888 -2.035784 2.212464 0
M  V30 38 H 5.018291 -2.412078 3.693424 0
M  V30 39 H -0.034086 -0.908672 2.765132 0
M  V30 40 H 0.882254 -0.465277 4.325276 0
M  V30 41 H 0.181096 0.840088 3.233552 0
M  V30 42 H 4.923037 1.419065 0.114602 0
M  V30 43 H 4.607314 -0.014006 -0.863539 0
M  V30 44 H 3.651758 2.615827 -1.301696 0
M  V30 45 H 3.075722 1.118886 -2.070260 0
M  V30 46 H 1.284008 3.165496 -2.190858 0
M  V30 47 H -2.274657 3.377738 1.386632 0
M  V30 48 H -1.561495 0.290231 -0.324320 0
M  V30 49 H -0.781233 -2.522510 -1.217433 0
M  V30 50 H -1.419521 -0.939806 -1.907487 0
M  V30 51 H -3.143673 -2.336636 -3.106407 0
M  V30 52 H -1.386877 -2.487777 -3.679055 0
M  V30 53 H -1.090364 -4.811416 -4.150301 0
M  V30 54 H -0.645453 -5.590063 -2.519093 0
M  V30 55 H -0.128951 -3.933127 -2.935428 0
M  V30 56 H -2.857329 -5.386632 -1.063297 0
M  V30 57 H -1.489007 -4.361013 -0.562847 0
M  V30 58 H -4.360315 -3.474269 -1.080935 0
M  V30 59 H -3.450347 -3.609621 0.515127 0
M  V30 60 H -5.103238 -1.773542 0.602765 0
M  V30 61 H -5.919013 0.251139 1.869476 0
M  V30 62 H -5.750631 2.110342 3.766226 0
M  V30 63 H -6.571659 2.190375 2.153624 0
M  V30 64 H -6.013335 3.710482 2.896018 0
M  V30 END ATOM
M  V30 BEGIN BOND
M  V30 1 1 1 2
M  V30 2 1 2 3
M  V30 3 2 3 4
M  V30 4 1 3 5
M  V30 5 2 5 6
M  V30 6 1 6 7
M  V30 7 1 7 8
M  V30 8 1 7 9
M  V30 9 2 9 10
M  V30 10 1 10 11
M  V30 11 1 11 12
M  V30 12 1 12 13
M  V30 13 2 13 14
M  V30 14 1 14 15
M  V30 15 2 15 16
M  V30 16 1 16 17
M  V30 17 1 17 18
M  V30 18 2 18 19
M  V30 19 1 19 20
M  V30 20 1 20 21
M  V30 21 1 21 22
M  V30 22 1 22 23
M  V30 23 1 23 24
M  V30 24 1 24 25
M  V30 25 1 24 26
M  V30 26 1 26 27
M  V30 27 2 20 28
M  V30 28 1 28 29
M  V30 29 2 29 30
M  V30 30 1 30 31
M  V30 31 1 31 32
M  V30 32 1 16 33
M  V30 33 2 33 34
M  V30 34 1 10 5
M  V30 35 1 34 13
M  V30 36 1 34 9
M  V30 37 1 30 18
M  V30 38 1 27 21
M  V30 39 1 1 35
M  V30 40 1 1 36
M  V30 41 1 1 37
M  V30 42 1 2 38
M  V30 43 1 8 39
M  V30 44 1 8 40
M  V30 45 1 8 41
M  V30 46 1 11 42
M  V30 47 1 11 43
M  V30 48 1 12 44
M  V30 49 1 12 45
M  V30 50 1 14 46
M  V30 51 1 17 47
M  V30 52 1 19 48
M  V30 53 1 22 49
M  V30 54 1 22 50
M  V30 55 1 23 51
M  V30 56 1 23 52
M  V30 57 1 25 53
M  V30 58 1 25 54
M  V30 59 1 25 55
M  V30 60 1 26 56
M  V30 61 1 26 57
M  V30 62 1 27 58
M  V30 63 1 27 59
M  V30 64 1 28 60
M  V30 65 1 29 61
M  V30 66 1 32 62
M  V30 67 1 32 63
M  V30 68 1 32 64
M  V30 END BOND
M  V30 END CTAB
M  END
>  <Dataset>  (777) 
ChEMBL_Kinases

>  <Ligand_Instance>  (777) 
nan

>  <PDB_ID>  (777) 
nan

>  <Standardized_SMILES>  (777) 
CNC(=O)c1nn(C)c2c1CCc1cnc(Nc3cc(N4CCN(C)CC4)ccc3OC)nc1-2

>  <Name>  (777) 
nan

>  <Pocket>  (777) 
nan

>  <ATP_Site>  (777) 
nan

>  <Peripheral>  (777) 
nan

>  <Num_H_Atoms_ProtBoundConf>  (777) 
nan

>  <Num_Resolved_Atoms>  (777) 
nan

>  <Num_Not_Resolved_Atoms>  (777) 
nan

$$$$
CHEMBL3652219
     RDKit          3D

  0  0  0  0  0  0  0  0  0  0999 V3000
M  V30 BEGIN CTAB
M  V30 COUNTS 60 64 0 0 0
M  V30 BEGIN ATOM
M  V30 1 C 2.510292 -2.130411 4.331358 0
M  V30 2 N 3.336570 -2.498139 3.195322 0
M  V30 3 C 4.478367 -1.618043 3.077981 0
M  V30 4 C 4.115265 -0.200550 2.712036 0
M  V30 5 N 3.042895 -0.248540 1.736744 0
M  V30 6 C 2.161819 0.833812 1.593552 0
M  V30 7 C 2.600762 2.026758 2.126994 0
M  V30 8 C 1.836677 3.155073 2.061580 0
M  V30 9 C 0.610097 3.101854 1.454583 0
M  V30 10 O -0.086490 4.326393 1.445996 0
M  V30 11 C 0.072974 5.281761 0.427096 0
M  V30 12 F -0.750443 6.358027 0.700728 0
M  V30 13 F 1.368915 5.811364 0.436266 0
M  V30 14 F -0.190555 4.764918 -0.812901 0
M  V30 15 C 0.094480 1.930318 0.891539 0
M  V30 16 N -1.192797 1.976885 0.312691 0
M  V30 17 C -2.004543 1.021440 -0.331118 0
M  V30 18 N -3.193712 1.415832 -0.809724 0
M  V30 19 C -4.081713 0.635142 -1.433718 0
M  V30 20 C -3.746811 -0.684940 -1.598570 0
M  V30 21 C -2.533997 -1.113896 -1.117078 0
M  V30 22 N -1.677368 -0.292361 -0.498493 0
M  V30 23 C -2.249386 -2.527445 -1.320355 0
M  V30 24 C -3.204838 -3.278714 -1.961886 0
M  V30 25 C -2.609997 -4.519523 -1.970933 0
M  V30 26 C -3.188894 -5.698389 -2.531108 0
M  V30 27 O -2.519420 -6.792929 -2.469667 0
M  V30 28 O -3.755174 -6.792458 -3.064954 0
M  V30 29 N -1.390044 -4.462617 -1.367676 0
M  V30 30 N -1.172938 -3.248463 -0.972518 0
M  V30 31 C 0.003267 -2.765305 -0.291352 0
M  V30 32 C -4.524930 -2.879399 -2.504764 0
M  V30 33 C -4.825672 -1.424175 -2.304254 0
M  V30 34 C 0.933085 0.846010 1.003885 0
M  V30 35 C 3.074961 -1.510780 0.996676 0
M  V30 36 C 2.573839 -2.558162 1.958880 0
M  V30 37 H 2.490467 -2.975145 5.041373 0
M  V30 38 H 1.468336 -1.941379 4.000756 0
M  V30 39 H 2.943310 -1.219279 4.782493 0
M  V30 40 H 5.220266 -2.079303 2.397004 0
M  V30 41 H 4.909241 -1.560030 4.110543 0
M  V30 42 H 5.007265 0.233222 2.182306 0
M  V30 43 H 3.833930 0.396098 3.608467 0
M  V30 44 H 3.565330 2.122164 2.614851 0
M  V30 45 H 2.210870 4.083076 2.492330 0
M  V30 46 H -1.659097 2.937676 0.387251 0
M  V30 47 H -5.006688 1.137123 -1.757678 0
M  V30 48 H -4.676550 -6.810792 -3.543299 0
M  V30 49 H 0.778741 -3.533188 -0.233787 0
M  V30 50 H 0.428741 -1.933679 -0.932037 0
M  V30 51 H -0.290430 -2.318312 0.680796 0
M  V30 52 H -4.504104 -3.073430 -3.611547 0
M  V30 53 H -5.341575 -3.535556 -2.124983 0
M  V30 54 H -4.952801 -0.947616 -3.296165 0
M  V30 55 H -5.794063 -1.350929 -1.759691 0
M  V30 56 H 0.576609 -0.080000 0.582293 0
M  V30 57 H 2.493435 -1.388745 0.087040 0
M  V30 58 H 4.134562 -1.781954 0.720833 0
M  V30 59 H 1.517635 -2.398475 2.241289 0
M  V30 60 H 2.688703 -3.566861 1.491593 0
M  V30 END ATOM
M  V30 BEGIN BOND
M  V30 1 1 1 2
M  V30 2 1 2 3
M  V30 3 1 3 4
M  V30 4 1 4 5
M  V30 5 1 5 6
M  V30 6 2 6 7
M  V30 7 1 7 8
M  V30 8 2 8 9
M  V30 9 1 9 10
M  V30 10 1 10 11
M  V30 11 1 11 12
M  V30 12 1 11 13
M  V30 13 1 11 14
M  V30 14 1 9 15
M  V30 15 1 15 16
M  V30 16 1 16 17
M  V30 17 2 17 18
M  V30 18 1 18 19
M  V30 19 2 19 20
M  V30 20 1 20 21
M  V30 21 2 21 22
M  V30 22 1 21 23
M  V30 23 2 23 24
M  V30 24 1 24 25
M  V30 25 1 25 26
M  V30 26 2 26 27
M  V30 27 1 26 28
M  V30 28 2 25 29
M  V30 29 1 29 30
M  V30 30 1 30 31
M  V30 31 1 24 32
M  V30 32 1 32 33
M  V30 33 2 15 34
M  V30 34 1 5 35
M  V30 35 1 35 36
M  V30 36 1 36 2
M  V30 37 1 34 6
M  V30 38 1 22 17
M  V30 39 1 30 23
M  V30 40 1 33 20
M  V30 41 1 1 37
M  V30 42 1 1 38
M  V30 43 1 1 39
M  V30 44 1 3 40
M  V30 45 1 3 41
M  V30 46 1 4 42
M  V30 47 1 4 43
M  V30 48 1 7 44
M  V30 49 1 8 45
M  V30 50 1 16 46
M  V30 51 1 19 47
M  V30 52 1 28 48
M  V30 53 1 31 49
M  V30 54 1 31 50
M  V30 55 1 31 51
M  V30 56 1 32 52
M  V30 57 1 32 53
M  V30 58 1 33 54
M  V30 59 1 33 55
M  V30 60 1 34 56
M  V30 61 1 35 57
M  V30 62 1 35 58
M  V30 63 1 36 59
M  V30 64 1 36 60
M  V30 END BOND
M  V30 END CTAB
M  END
>  <Dataset>  (778) 
ChEMBL_Kinases

>  <Ligand_Instance>  (778) 
nan

>  <PDB_ID>  (778) 
nan

>  <Standardized_SMILES>  (778) 
CN1CCN(c2ccc(OC(F)(F)F)c(Nc3ncc4c(n3)-c3c(c(C(=O)O)nn3C)CC4)c2)CC1

>  <Name>  (778) 
nan

>  <Pocket>  (778) 
nan

>  <ATP_Site>  (778) 
nan

>  <Peripheral>  (778) 
nan

>  <Num_H_Atoms_ProtBoundConf>  (778) 
nan

>  <Num_Resolved_Atoms>  (778) 
nan

>  <Num_Not_Resolved_Atoms>  (778) 
nan

$$$$
CHEMBL365191
     RDKit          3D

  0  0  0  0  0  0  0  0  0  0999 V3000
M  V30 BEGIN CTAB
M  V30 COUNTS 49 52 0 0 0
M  V30 BEGIN ATOM
M  V30 1 N 4.823282 2.065596 4.566911 0
M  V30 2 C 4.020889 1.803802 3.758409 0
M  V30 3 C 3.033250 1.492385 2.768836 0
M  V30 4 C 3.347647 1.123125 1.540865 0
M  V30 5 N 2.587497 0.763865 0.395007 0
M  V30 6 C 3.296818 0.585217 -0.804766 0
M  V30 7 C 2.695699 0.299271 -2.036787 0
M  V30 8 C 3.586725 0.233390 -3.119000 0
M  V30 9 C 4.945784 0.425083 -3.045016 0
M  V30 10 C 5.517266 0.707115 -1.802983 0
M  V30 11 C 4.660851 0.773197 -0.738248 0
M  V30 12 S 5.078917 1.058211 1.003311 0
M  V30 13 C 1.598957 1.545208 3.005553 0
M  V30 14 C 1.287048 2.777568 3.595980 0
M  V30 15 C -0.039641 3.055511 3.897316 0
M  V30 16 N -0.974363 2.133332 3.610579 0
M  V30 17 C -0.685242 0.957648 3.048698 0
M  V30 18 N -1.651831 -0.017036 2.701082 0
M  V30 19 C -1.391805 -1.409185 2.309050 0
M  V30 20 C -2.611949 -1.967726 1.727642 0
M  V30 21 N -2.653855 -3.305616 1.302202 0
M  V30 22 C -1.862646 -3.712208 0.193895 0
M  V30 23 C -2.326756 -3.262432 -1.154103 0
M  V30 24 C -3.658547 -2.612192 -1.216024 0
M  V30 25 C -4.579156 -2.872051 -0.065957 0
M  V30 26 C -4.020927 -3.755977 1.012319 0
M  V30 27 N 0.602041 0.681419 2.754952 0
M  V30 28 H 1.564799 0.664524 0.563392 0
M  V30 29 H 1.643624 0.128529 -2.191535 0
M  V30 30 H 3.180075 0.020811 -4.098027 0
M  V30 31 H 5.581575 0.373090 -3.901607 0
M  V30 32 H 6.560618 0.864270 -1.690241 0
M  V30 33 H 1.962421 3.592116 3.866894 0
M  V30 34 H -0.423681 3.974131 4.350669 0
M  V30 35 H -2.657255 0.331101 2.732909 0
M  V30 36 H -0.481854 -1.383680 1.732598 0
M  V30 37 H -1.166772 -1.931888 3.290512 0
M  V30 38 H -2.938885 -1.315427 0.859027 0
M  V30 39 H -3.449831 -1.827178 2.463212 0
M  V30 40 H -0.750961 -3.569397 0.346226 0
M  V30 41 H -1.961908 -4.850411 0.188234 0
M  V30 42 H -2.316325 -4.114241 -1.903763 0
M  V30 43 H -1.594172 -2.539203 -1.618491 0
M  V30 44 H -4.199163 -3.003003 -2.130243 0
M  V30 45 H -3.573733 -1.519301 -1.442616 0
M  V30 46 H -4.878774 -1.866992 0.357313 0
M  V30 47 H -5.571432 -3.296872 -0.391059 0
M  V30 48 H -3.994429 -4.791672 0.686052 0
M  V30 49 H -4.566989 -3.613279 1.966420 0
M  V30 END ATOM
M  V30 BEGIN BOND
M  V30 1 3 1 2
M  V30 2 1 2 3
M  V30 3 2 3 4
M  V30 4 1 4 5
M  V30 5 1 5 6
M  V30 6 2 6 7
M  V30 7 1 7 8
M  V30 8 2 8 9
M  V30 9 1 9 10
M  V30 10 2 10 11
M  V30 11 1 11 12
M  V30 12 1 3 13
M  V30 13 2 13 14
M  V30 14 1 14 15
M  V30 15 2 15 16
M  V30 16 1 16 17
M  V30 17 1 17 18
M  V30 18 1 18 19
M  V30 19 1 19 20
M  V30 20 1 20 21
M  V30 21 1 21 22
M  V30 22 1 22 23
M  V30 23 1 23 24
M  V30 24 1 24 25
M  V30 25 1 25 26
M  V30 26 2 17 27
M  V30 27 1 12 4
M  V30 28 1 27 13
M  V30 29 1 11 6
M  V30 30 1 26 21
M  V30 31 1 5 28
M  V30 32 1 7 29
M  V30 33 1 8 30
M  V30 34 1 9 31
M  V30 35 1 10 32
M  V30 36 1 14 33
M  V30 37 1 15 34
M  V30 38 1 18 35
M  V30 39 1 19 36
M  V30 40 1 19 37
M  V30 41 1 20 38
M  V30 42 1 20 39
M  V30 43 1 22 40
M  V30 44 1 22 41
M  V30 45 1 23 42
M  V30 46 1 23 43
M  V30 47 1 24 44
M  V30 48 1 24 45
M  V30 49 1 25 46
M  V30 50 1 25 47
M  V30 51 1 26 48
M  V30 52 1 26 49
M  V30 END BOND
M  V30 END CTAB
M  END
>  <Dataset>  (779) 
ChEMBL_Kinases

>  <Ligand_Instance>  (779) 
nan

>  <PDB_ID>  (779) 
nan

>  <Standardized_SMILES>  (779) 
N#C/C(=C1/Nc2ccccc2S1)c1ccnc(NCCN2CCCCC2)n1

>  <Name>  (779) 
nan

>  <Pocket>  (779) 
nan

>  <ATP_Site>  (779) 
nan

>  <Peripheral>  (779) 
nan

>  <Num_H_Atoms_ProtBoundConf>  (779) 
nan

>  <Num_Resolved_Atoms>  (779) 
nan

>  <Num_Not_Resolved_Atoms>  (779) 
nan

$$$$
CHEMBL3651818
     RDKit          3D

  0  0  0  0  0  0  0  0  0  0999 V3000
M  V30 BEGIN CTAB
M  V30 COUNTS 48 52 0 0 0
M  V30 BEGIN ATOM
M  V30 1 C 1.148237 -3.005138 3.227258 0
M  V30 2 C 1.849731 -2.763320 2.040352 0
M  V30 3 C 1.304823 -2.198278 0.878974 0
M  V30 4 C 2.193376 -2.044500 -0.247160 0
M  V30 5 N 2.938237 -3.107193 -0.603940 0
M  V30 6 N 3.710967 -2.800602 -1.658957 0
M  V30 7 C 3.499357 -1.523714 -2.030758 0
M  V30 8 C 3.958532 -0.653804 -2.985257 0
M  V30 9 C 3.449096 0.644814 -3.010888 0
M  V30 10 N 2.511305 1.055285 -2.109082 0
M  V30 11 C 2.047381 0.212443 -1.162257 0
M  V30 12 O 1.094606 0.674823 -0.264971 0
M  V30 13 C 0.680390 2.025749 -0.423885 0
M  V30 14 C 1.033159 2.704300 0.906388 0
M  V30 15 C -0.119824 2.119011 1.733062 0
M  V30 16 O -1.225970 2.192087 0.901086 0
M  V30 17 C -0.800886 2.208281 -0.413895 0
M  V30 18 C 2.559146 -1.067672 -1.149413 0
M  V30 19 C -0.032099 -1.883780 0.993753 0
M  V30 20 C -0.740580 -2.112663 2.150781 0
M  V30 21 N -2.109082 -1.768380 2.207082 0
M  V30 22 C -2.876190 -1.993209 3.418096 0
M  V30 23 C -3.858338 -0.832467 3.507307 0
M  V30 24 O -4.738337 -0.811223 2.452363 0
M  V30 25 C -4.319074 -1.554315 1.364347 0
M  V30 26 C -2.852627 -1.181471 1.108439 0
M  V30 27 N -0.149065 -2.652026 3.207586 0
M  V30 28 H 1.664920 -3.444062 4.060526 0
M  V30 29 H 2.908815 -3.048917 2.048934 0
M  V30 30 H 4.391590 -3.436817 -2.148196 0
M  V30 31 H 4.701546 -1.008673 -3.685351 0
M  V30 32 H 3.804101 1.323187 -3.751802 0
M  V30 33 H 1.204457 2.498507 -1.264363 0
M  V30 34 H 0.920652 3.796131 0.840690 0
M  V30 35 H 2.015771 2.397524 1.266262 0
M  V30 36 H 0.121478 1.050518 1.876438 0
M  V30 37 H -0.245934 2.609899 2.700263 0
M  V30 38 H -1.003375 3.231576 -0.793140 0
M  V30 39 H -1.361571 1.532328 -1.085451 0
M  V30 40 H -0.488926 -1.459983 0.125108 0
M  V30 41 H -2.227705 -1.887986 4.319349 0
M  V30 42 H -3.438441 -2.928563 3.432630 0
M  V30 43 H -3.319086 0.138368 3.567186 0
M  V30 44 H -4.441408 -0.913797 4.447148 0
M  V30 45 H -4.942606 -1.315918 0.484210 0
M  V30 46 H -4.377235 -2.625478 1.647905 0
M  V30 47 H -2.773403 -0.065559 1.254633 0
M  V30 48 H -2.525887 -1.492533 0.115333 0
M  V30 END ATOM
M  V30 BEGIN BOND
M  V30 1 2 1 2
M  V30 2 1 2 3
M  V30 3 1 3 4
M  V30 4 2 4 5
M  V30 5 1 5 6
M  V30 6 1 6 7
M  V30 7 2 7 8
M  V30 8 1 8 9
M  V30 9 2 9 10
M  V30 10 1 10 11
M  V30 11 1 11 12
M  V30 12 1 12 13
M  V30 13 1 13 14
M  V30 14 1 14 15
M  V30 15 1 15 16
M  V30 16 1 16 17
M  V30 17 2 11 18
M  V30 18 2 3 19
M  V30 19 1 19 20
M  V30 20 1 20 21
M  V30 21 1 21 22
M  V30 22 1 22 23
M  V30 23 1 23 24
M  V30 24 1 24 25
M  V30 25 1 25 26
M  V30 26 2 20 27
M  V30 27 1 27 1
M  V30 28 1 18 4
M  V30 29 1 26 21
M  V30 30 1 18 7
M  V30 31 1 17 13
M  V30 32 1 1 28
M  V30 33 1 2 29
M  V30 34 1 6 30
M  V30 35 1 8 31
M  V30 36 1 9 32
M  V30 37 1 13 33
M  V30 38 1 14 34
M  V30 39 1 14 35
M  V30 40 1 15 36
M  V30 41 1 15 37
M  V30 42 1 17 38
M  V30 43 1 17 39
M  V30 44 1 19 40
M  V30 45 1 22 41
M  V30 46 1 22 42
M  V30 47 1 23 43
M  V30 48 1 23 44
M  V30 49 1 25 45
M  V30 50 1 25 46
M  V30 51 1 26 47
M  V30 52 1 26 48
M  V30 END BOND
M  V30 END CTAB
M  END
>  <Dataset>  (780) 
ChEMBL_Kinases

>  <Ligand_Instance>  (780) 
nan

>  <PDB_ID>  (780) 
nan

>  <Standardized_SMILES>  (780) 
c1cc(-c2n[nH]c3ccnc(OC4CCOC4)c23)cc(N2CCOCC2)n1

>  <Name>  (780) 
nan

>  <Pocket>  (780) 
nan

>  <ATP_Site>  (780) 
nan

>  <Peripheral>  (780) 
nan

>  <Num_H_Atoms_ProtBoundConf>  (780) 
nan

>  <Num_Resolved_Atoms>  (780) 
nan

>  <Num_Not_Resolved_Atoms>  (780) 
nan

$$$$
CHEMBL3651817
     RDKit          3D

  0  0  0  0  0  0  0  0  0  0999 V3000
M  V30 BEGIN CTAB
M  V30 COUNTS 33 35 0 0 0
M  V30 BEGIN ATOM
M  V30 1 C -1.141266 -3.688456 1.967142 0
M  V30 2 C 0.179608 -3.131322 2.342785 0
M  V30 3 N 1.088287 -3.683097 3.207967 0
M  V30 4 N 2.161723 -2.913473 3.307225 0
M  V30 5 C 2.003220 -1.821698 2.510027 0
M  V30 6 C 2.851193 -0.756384 2.291404 0
M  V30 7 C 2.348798 0.174178 1.406887 0
M  V30 8 N 1.133526 0.032986 0.820568 0
M  V30 9 C 0.321264 -1.005627 1.041794 0
M  V30 10 N -0.936185 -1.030149 0.356508 0
M  V30 11 C -1.209787 0.085000 -0.524078 0
M  V30 12 C -1.206138 1.427398 0.148223 0
M  V30 13 C -0.578386 2.463774 -0.763893 0
M  V30 14 O -1.140912 2.392931 -2.025921 0
M  V30 15 C -0.896817 1.200438 -2.658989 0
M  V30 16 C -0.283509 0.159853 -1.713093 0
M  V30 17 C 0.772668 -1.961452 1.914222 0
M  V30 18 H -1.159546 -3.962150 0.911073 0
M  V30 19 H -1.220886 -4.685801 2.504491 0
M  V30 20 H -1.966053 -3.048857 2.325838 0
M  V30 21 H 0.949692 -4.593083 3.721404 0
M  V30 22 H 3.821487 -0.634965 2.753899 0
M  V30 23 H 2.948985 1.061407 1.165638 0
M  V30 24 H -1.679549 -1.750204 0.411960 0
M  V30 25 H -2.229214 -0.044548 -0.944884 0
M  V30 26 H -2.256541 1.804534 0.325000 0
M  V30 27 H -0.718175 1.484888 1.114107 0
M  V30 28 H -0.714183 3.488078 -0.360415 0
M  V30 29 H 0.496790 2.294784 -0.821828 0
M  V30 30 H -0.289060 1.317745 -3.581103 0
M  V30 31 H -1.889265 0.765463 -2.975680 0
M  V30 32 H -0.376107 -0.809365 -2.258289 0
M  V30 33 H 0.755316 0.385100 -1.484883 0
M  V30 END ATOM
M  V30 BEGIN BOND
M  V30 1 1 1 2
M  V30 2 1 2 3
M  V30 3 1 3 4
M  V30 4 2 4 5
M  V30 5 1 5 6
M  V30 6 2 6 7
M  V30 7 1 7 8
M  V30 8 2 8 9
M  V30 9 1 9 10
M  V30 10 1 10 11
M  V30 11 1 11 12
M  V30 12 1 12 13
M  V30 13 1 13 14
M  V30 14 1 14 15
M  V30 15 1 15 16
M  V30 16 1 9 17
M  V30 17 2 17 2
M  V30 18 1 17 5
M  V30 19 1 16 11
M  V30 20 1 1 18
M  V30 21 1 1 19
M  V30 22 1 1 20
M  V30 23 1 3 21
M  V30 24 1 6 22
M  V30 25 1 7 23
M  V30 26 1 10 24
M  V30 27 1 11 25
M  V30 28 1 12 26
M  V30 29 1 12 27
M  V30 30 1 13 28
M  V30 31 1 13 29
M  V30 32 1 15 30
M  V30 33 1 15 31
M  V30 34 1 16 32
M  V30 35 1 16 33
M  V30 END BOND
M  V30 END CTAB
M  END
>  <Dataset>  (781) 
ChEMBL_Kinases

>  <Ligand_Instance>  (781) 
nan

>  <PDB_ID>  (781) 
nan

>  <Standardized_SMILES>  (781) 
Cc1[nH]nc2ccnc(NC3CCOCC3)c12

>  <Name>  (781) 
nan

>  <Pocket>  (781) 
nan

>  <ATP_Site>  (781) 
nan

>  <Peripheral>  (781) 
nan

>  <Num_H_Atoms_ProtBoundConf>  (781) 
nan

>  <Num_Resolved_Atoms>  (781) 
nan

>  <Num_Not_Resolved_Atoms>  (781) 
nan

$$$$
CHEMBL3651816
     RDKit          3D

  0  0  0  0  0  0  0  0  0  0999 V3000
M  V30 BEGIN CTAB
M  V30 COUNTS 50 54 0 0 0
M  V30 BEGIN ATOM
M  V30 1 C -0.245277 -5.647190 1.455569 0
M  V30 2 C 1.026872 -5.487165 1.956799 0
M  V30 3 C 1.632780 -4.250315 1.987481 0
M  V30 4 N 2.798110 -3.684683 2.370673 0
M  V30 5 N 2.804109 -2.396155 2.143162 0
M  V30 6 C 1.614413 -2.031344 1.583726 0
M  V30 7 C 1.335836 -0.649059 1.232340 0
M  V30 8 C 0.324262 0.263897 1.419055 0
M  V30 9 N 0.618931 1.437583 0.851606 0
M  V30 10 N 1.823863 1.349590 0.273076 0
M  V30 11 C 2.461129 2.437681 -0.435452 0
M  V30 12 C 1.377497 3.365311 -0.934931 0
M  V30 13 C 1.755203 4.786899 -0.634682 0
M  V30 14 O 1.847600 5.059127 0.721417 0
M  V30 15 C 2.404866 4.025126 1.438148 0
M  V30 16 C 3.327803 3.219624 0.545469 0
M  V30 17 C 2.255426 0.097764 0.500582 0
M  V30 18 C 0.901850 -3.198747 1.494347 0
M  V30 19 C -0.365423 -3.305390 0.984303 0
M  V30 20 O -1.223367 -2.502533 0.478963 0
M  V30 21 C -2.094984 -1.686667 -0.034475 0
M  V30 22 C -3.234057 -1.435580 0.993217 0
M  V30 23 C -3.790938 -2.781331 1.393815 0
M  V30 24 O -3.831419 -3.659456 0.297978 0
M  V30 25 C -4.078995 -2.895198 -0.855836 0
M  V30 26 C -2.833390 -2.160408 -1.288290 0
M  V30 27 N -0.897636 -4.565202 0.989207 0
M  V30 28 H -0.563714 -6.677774 1.508638 0
M  V30 29 H 1.640698 -6.292250 2.357124 0
M  V30 30 H 3.573544 -4.269395 2.797034 0
M  V30 31 H -0.556810 -0.057961 1.979701 0
M  V30 32 H 3.071678 2.020234 -1.261982 0
M  V30 33 H 1.229939 3.301844 -2.042054 0
M  V30 34 H 0.405162 3.160401 -0.411906 0
M  V30 35 H 0.928654 5.420257 -1.070831 0
M  V30 36 H 2.716830 5.035959 -1.154493 0
M  V30 37 H 3.006348 4.470239 2.272802 0
M  V30 38 H 1.664221 3.323967 1.862641 0
M  V30 39 H 3.896091 2.510792 1.164270 0
M  V30 40 H 4.039800 3.848942 -0.001693 0
M  V30 41 H 3.225849 -0.191161 0.112586 0
M  V30 42 H -1.709696 -0.646833 -0.235846 0
M  V30 43 H -2.769576 -0.968119 1.884243 0
M  V30 44 H -3.982408 -0.744374 0.599944 0
M  V30 45 H -3.109059 -3.233538 2.132734 0
M  V30 46 H -4.823656 -2.700808 1.780671 0
M  V30 47 H -4.867755 -2.141599 -0.594241 0
M  V30 48 H -4.475993 -3.508531 -1.667665 0
M  V30 49 H -2.195778 -2.754732 -1.938346 0
M  V30 50 H -3.157912 -1.253174 -1.831335 0
M  V30 END ATOM
M  V30 BEGIN BOND
M  V30 1 2 1 2
M  V30 2 1 2 3
M  V30 3 1 3 4
M  V30 4 1 4 5
M  V30 5 2 5 6
M  V30 6 1 6 7
M  V30 7 1 7 8
M  V30 8 2 8 9
M  V30 9 1 9 10
M  V30 10 1 10 11
M  V30 11 1 11 12
M  V30 12 1 12 13
M  V30 13 1 13 14
M  V30 14 1 14 15
M  V30 15 1 15 16
M  V30 16 1 10 17
M  V30 17 1 6 18
M  V30 18 1 18 19
M  V30 19 1 19 20
M  V30 20 1 20 21
M  V30 21 1 21 22
M  V30 22 1 22 23
M  V30 23 1 23 24
M  V30 24 1 24 25
M  V30 25 1 25 26
M  V30 26 2 19 27
M  V30 27 1 27 1
M  V30 28 2 18 3
M  V30 29 1 26 21
M  V30 30 2 17 7
M  V30 31 1 16 11
M  V30 32 1 1 28
M  V30 33 1 2 29
M  V30 34 1 4 30
M  V30 35 1 8 31
M  V30 36 1 11 32
M  V30 37 1 12 33
M  V30 38 1 12 34
M  V30 39 1 13 35
M  V30 40 1 13 36
M  V30 41 1 15 37
M  V30 42 1 15 38
M  V30 43 1 16 39
M  V30 44 1 16 40
M  V30 45 1 17 41
M  V30 46 1 21 42
M  V30 47 1 22 43
M  V30 48 1 22 44
M  V30 49 1 23 45
M  V30 50 1 23 46
M  V30 51 1 25 47
M  V30 52 1 25 48
M  V30 53 1 26 49
M  V30 54 1 26 50
M  V30 END BOND
M  V30 END CTAB
M  END
>  <Dataset>  (782) 
ChEMBL_Kinases

>  <Ligand_Instance>  (782) 
nan

>  <PDB_ID>  (782) 
nan

>  <Standardized_SMILES>  (782) 
c1cc2[nH]nc(-c3cnn(C4CCOCC4)c3)c2c(OC2CCOCC2)n1

>  <Name>  (782) 
nan

>  <Pocket>  (782) 
nan

>  <ATP_Site>  (782) 
nan

>  <Peripheral>  (782) 
nan

>  <Num_H_Atoms_ProtBoundConf>  (782) 
nan

>  <Num_Resolved_Atoms>  (782) 
nan

>  <Num_Not_Resolved_Atoms>  (782) 
nan

$$$$
CHEMBL3651815
     RDKit          3D

  0  0  0  0  0  0  0  0  0  0999 V3000
M  V30 BEGIN CTAB
M  V30 COUNTS 36 38 0 0 0
M  V30 BEGIN ATOM
M  V30 1 C 1.657275 -1.510538 4.880985 0
M  V30 2 O 1.336058 -1.334584 3.547241 0
M  V30 3 C 1.279525 -2.127633 2.488852 0
M  V30 4 O 1.629587 -2.728592 3.532817 0
M  V30 5 C 1.205515 -2.950429 1.318609 0
M  V30 6 N 1.480675 -4.261884 1.300605 0
M  V30 7 N 1.306474 -4.678618 0.065981 0
M  V30 8 C 0.925310 -3.629181 -0.675713 0
M  V30 9 C 0.628299 -3.598709 -2.040120 0
M  V30 10 C 0.247885 -2.422776 -2.651731 0
M  V30 11 N 0.189859 -1.345841 -1.848244 0
M  V30 12 C 0.465762 -1.336716 -0.543414 0
M  V30 13 N 0.385812 -0.164807 0.252105 0
M  V30 14 C -0.011608 1.132821 -0.278710 0
M  V30 15 C 0.035671 2.234846 0.753837 0
M  V30 16 C -0.606316 3.458795 0.167690 0
M  V30 17 O -1.930330 3.235581 -0.204037 0
M  V30 18 C -2.039824 2.309529 -1.213086 0
M  V30 19 C -1.429097 0.989593 -0.789202 0
M  V30 20 C 0.847794 -2.493148 0.095304 0
M  V30 21 H 1.528502 -0.499896 5.382136 0
M  V30 22 H 2.691615 -1.850273 5.101106 0
M  V30 23 H 0.923756 -2.160671 5.416835 0
M  V30 24 H 1.779244 -4.916901 2.048472 0
M  V30 25 H 0.698595 -4.507708 -2.618200 0
M  V30 26 H 0.006439 -2.340569 -3.703475 0
M  V30 27 H 0.599766 -0.131138 1.263446 0
M  V30 28 H 0.675124 1.399330 -1.098646 0
M  V30 29 H -0.454150 1.921452 1.695692 0
M  V30 30 H 1.085686 2.499504 0.983737 0
M  V30 31 H 0.022293 3.816074 -0.672222 0
M  V30 32 H -0.634517 4.220890 0.968645 0
M  V30 33 H -1.619709 2.660462 -2.179632 0
M  V30 34 H -3.118841 2.096047 -1.368402 0
M  V30 35 H -2.074136 0.614951 0.023188 0
M  V30 36 H -1.500328 0.273867 -1.607467 0
M  V30 END ATOM
M  V30 BEGIN BOND
M  V30 1 1 1 2
M  V30 2 1 2 3
M  V30 3 2 3 4
M  V30 4 1 3 5
M  V30 5 1 5 6
M  V30 6 1 6 7
M  V30 7 2 7 8
M  V30 8 1 8 9
M  V30 9 2 9 10
M  V30 10 1 10 11
M  V30 11 2 11 12
M  V30 12 1 12 13
M  V30 13 1 13 14
M  V30 14 1 14 15
M  V30 15 1 15 16
M  V30 16 1 16 17
M  V30 17 1 17 18
M  V30 18 1 18 19
M  V30 19 1 12 20
M  V30 20 2 20 5
M  V30 21 1 20 8
M  V30 22 1 19 14
M  V30 23 1 1 21
M  V30 24 1 1 22
M  V30 25 1 1 23
M  V30 26 1 6 24
M  V30 27 1 9 25
M  V30 28 1 10 26
M  V30 29 1 13 27
M  V30 30 1 14 28
M  V30 31 1 15 29
M  V30 32 1 15 30
M  V30 33 1 16 31
M  V30 34 1 16 32
M  V30 35 1 18 33
M  V30 36 1 18 34
M  V30 37 1 19 35
M  V30 38 1 19 36
M  V30 END BOND
M  V30 END CTAB
M  END
>  <Dataset>  (783) 
ChEMBL_Kinases

>  <Ligand_Instance>  (783) 
nan

>  <PDB_ID>  (783) 
nan

>  <Standardized_SMILES>  (783) 
COC(=O)c1[nH]nc2ccnc(NC3CCOCC3)c12

>  <Name>  (783) 
nan

>  <Pocket>  (783) 
nan

>  <ATP_Site>  (783) 
nan

>  <Peripheral>  (783) 
nan

>  <Num_H_Atoms_ProtBoundConf>  (783) 
nan

>  <Num_Resolved_Atoms>  (783) 
nan

>  <Num_Not_Resolved_Atoms>  (783) 
nan

$$$$
CHEMBL3651814
     RDKit          3D

  0  0  0  0  0  0  0  0  0  0999 V3000
M  V30 BEGIN CTAB
M  V30 COUNTS 39 42 0 0 0
M  V30 BEGIN ATOM
M  V30 1 C -0.083460 -3.658024 0.935173 0
M  V30 2 O 0.776097 -2.536834 0.955365 0
M  V30 3 C 2.133132 -2.669440 1.095553 0
M  V30 4 N 2.661236 -3.904088 1.217011 0
M  V30 5 C 3.992432 -4.046689 1.354701 0
M  V30 6 C 4.890966 -2.992770 1.382354 0
M  V30 7 C 4.366385 -1.723078 1.259281 0
M  V30 8 N 4.831386 -0.472191 1.232002 0
M  V30 9 N 3.838387 0.388814 1.085795 0
M  V30 10 C 2.645876 -0.273118 1.008501 0
M  V30 11 C 1.399755 0.466768 0.842853 0
M  V30 12 C 1.304085 1.495697 -0.105704 0
M  V30 13 N 0.048801 2.008458 -0.040686 0
M  V30 14 N -0.644329 1.367344 0.885650 0
M  V30 15 C -1.997808 1.548321 1.314001 0
M  V30 16 C -2.661475 2.543674 0.383297 0
M  V30 17 C -3.740731 1.828168 -0.420281 0
M  V30 18 O -3.220299 0.728135 -1.054313 0
M  V30 19 C -2.694178 -0.225127 -0.199782 0
M  V30 20 C -2.814558 0.260472 1.209858 0
M  V30 21 C 0.162089 0.442339 1.417763 0
M  V30 22 C 3.000667 -1.601498 1.119559 0
M  V30 23 H -1.018087 -3.312125 0.442573 0
M  V30 24 H 0.302017 -4.499861 0.330035 0
M  V30 25 H -0.363430 -4.023846 1.940785 0
M  V30 26 H 4.358539 -5.062182 1.447982 0
M  V30 27 H 5.946301 -3.107776 1.491585 0
M  V30 28 H 5.851513 -0.215598 1.316157 0
M  V30 29 H 2.073508 1.857267 -0.796601 0
M  V30 30 H -2.073045 1.973982 2.340243 0
M  V30 31 H -1.940217 2.916348 -0.391814 0
M  V30 32 H -3.064873 3.427055 0.890509 0
M  V30 33 H -4.025920 2.550991 -1.233431 0
M  V30 34 H -4.661252 1.665231 0.152872 0
M  V30 35 H -1.608487 -0.323298 -0.420896 0
M  V30 36 H -3.139156 -1.227589 -0.358912 0
M  V30 37 H -3.827183 0.451349 1.563505 0
M  V30 38 H -2.349790 -0.423282 1.949774 0
M  V30 39 H -0.067927 -0.262803 2.203795 0
M  V30 END ATOM
M  V30 BEGIN BOND
M  V30 1 1 1 2
M  V30 2 1 2 3
M  V30 3 2 3 4
M  V30 4 1 4 5
M  V30 5 2 5 6
M  V30 6 1 6 7
M  V30 7 1 7 8
M  V30 8 1 8 9
M  V30 9 2 9 10
M  V30 10 1 10 11
M  V30 11 1 11 12
M  V30 12 2 12 13
M  V30 13 1 13 14
M  V30 14 1 14 15
M  V30 15 1 15 16
M  V30 16 1 16 17
M  V30 17 1 17 18
M  V30 18 1 18 19
M  V30 19 1 19 20
M  V30 20 1 14 21
M  V30 21 1 10 22
M  V30 22 1 22 3
M  V30 23 2 22 7
M  V30 24 2 21 11
M  V30 25 1 20 15
M  V30 26 1 1 23
M  V30 27 1 1 24
M  V30 28 1 1 25
M  V30 29 1 5 26
M  V30 30 1 6 27
M  V30 31 1 8 28
M  V30 32 1 12 29
M  V30 33 1 15 30
M  V30 34 1 16 31
M  V30 35 1 16 32
M  V30 36 1 17 33
M  V30 37 1 17 34
M  V30 38 1 19 35
M  V30 39 1 19 36
M  V30 40 1 20 37
M  V30 41 1 20 38
M  V30 42 1 21 39
M  V30 END BOND
M  V30 END CTAB
M  END
>  <Dataset>  (784) 
ChEMBL_Kinases

>  <Ligand_Instance>  (784) 
nan

>  <PDB_ID>  (784) 
nan

>  <Standardized_SMILES>  (784) 
COc1nccc2[nH]nc(-c3cnn(C4CCOCC4)c3)c12

>  <Name>  (784) 
nan

>  <Pocket>  (784) 
nan

>  <ATP_Site>  (784) 
nan

>  <Peripheral>  (784) 
nan

>  <Num_H_Atoms_ProtBoundConf>  (784) 
nan

>  <Num_Resolved_Atoms>  (784) 
nan

>  <Num_Not_Resolved_Atoms>  (784) 
nan

$$$$
CHEMBL3651813
     RDKit          3D

  0  0  0  0  0  0  0  0  0  0999 V3000
M  V30 BEGIN CTAB
M  V30 COUNTS 46 49 0 0 0
M  V30 BEGIN ATOM
M  V30 1 C 0.213858 -5.272248 3.857790 0
M  V30 2 C 0.485608 -5.117998 2.375855 0
M  V30 3 C -0.836895 -5.370656 1.665221 0
M  V30 4 N 0.983639 -3.780478 2.123782 0
M  V30 5 C 1.373104 -3.249573 0.953195 0
M  V30 6 C 1.794674 -1.926554 1.099724 0
M  V30 7 C 2.263133 -1.192075 -0.059968 0
M  V30 8 N 3.146868 -1.713368 -0.928606 0
M  V30 9 N 3.409259 -0.851697 -1.896251 0
M  V30 10 C 2.668425 0.230206 -1.618906 0
M  V30 11 C 2.572043 1.414117 -2.314758 0
M  V30 12 C 1.744341 2.414405 -1.863425 0
M  V30 13 N 1.050177 2.199502 -0.746330 0
M  V30 14 C 1.054241 1.104216 0.015981 0
M  V30 15 O 0.441280 0.756144 1.118202 0
M  V30 16 C -0.418704 1.067106 2.084810 0
M  V30 17 C -1.829621 1.274984 1.666088 0
M  V30 18 N -2.003812 2.325109 0.733265 0
M  V30 19 C -2.141666 2.584545 -0.696927 0
M  V30 20 C -1.788478 4.011822 -0.933833 0
M  V30 21 O -1.771622 4.611413 0.361927 0
M  V30 22 C -2.164851 3.632318 1.283732 0
M  V30 23 O -2.575940 4.096503 2.398229 0
M  V30 24 C 1.902527 0.096564 -0.457890 0
M  V30 25 C 1.629045 -1.712655 2.429806 0
M  V30 26 N 1.149299 -2.822508 3.009570 0
M  V30 27 H 0.308405 -6.313283 4.177760 0
M  V30 28 H 0.880232 -4.595686 4.425652 0
M  V30 29 H -0.828730 -4.950960 4.116878 0
M  V30 30 H 1.193131 -5.912426 2.019745 0
M  V30 31 H -0.855609 -5.007034 0.628593 0
M  V30 32 H -1.624017 -4.927816 2.309493 0
M  V30 33 H -0.987631 -6.480128 1.713028 0
M  V30 34 H 1.331019 -3.858810 0.037199 0
M  V30 35 H 4.042716 -0.978492 -2.690927 0
M  V30 36 H 3.112275 1.633918 -3.221208 0
M  V30 37 H 1.582837 3.398916 -2.328583 0
M  V30 38 H -0.125962 2.001047 2.684848 0
M  V30 39 H -0.442905 0.244095 2.899271 0
M  V30 40 H -2.509663 1.364362 2.558816 0
M  V30 41 H -2.139461 0.273742 1.196505 0
M  V30 42 H -1.611200 1.837346 -1.281442 0
M  V30 43 H -3.265294 2.512760 -0.863557 0
M  V30 44 H -0.845033 4.088486 -1.470622 0
M  V30 45 H -2.563624 4.552658 -1.545038 0
M  V30 46 H 1.886880 -0.738309 2.861209 0
M  V30 END ATOM
M  V30 BEGIN BOND
M  V30 1 1 1 2
M  V30 2 1 2 3
M  V30 3 1 2 4
M  V30 4 1 4 5
M  V30 5 2 5 6
M  V30 6 1 6 7
M  V30 7 2 7 8
M  V30 8 1 8 9
M  V30 9 1 9 10
M  V30 10 2 10 11
M  V30 11 1 11 12
M  V30 12 2 12 13
M  V30 13 1 13 14
M  V30 14 1 14 15
M  V30 15 1 15 16
M  V30 16 1 16 17
M  V30 17 1 17 18
M  V30 18 1 18 19
M  V30 19 1 19 20
M  V30 20 1 20 21
M  V30 21 1 21 22
M  V30 22 2 22 23
M  V30 23 2 14 24
M  V30 24 1 6 25
M  V30 25 2 25 26
M  V30 26 1 26 4
M  V30 27 1 24 7
M  V30 28 1 24 10
M  V30 29 1 22 18
M  V30 30 1 1 27
M  V30 31 1 1 28
M  V30 32 1 1 29
M  V30 33 1 2 30
M  V30 34 1 3 31
M  V30 35 1 3 32
M  V30 36 1 3 33
M  V30 37 1 5 34
M  V30 38 1 9 35
M  V30 39 1 11 36
M  V30 40 1 12 37
M  V30 41 1 16 38
M  V30 42 1 16 39
M  V30 43 1 17 40
M  V30 44 1 17 41
M  V30 45 1 19 42
M  V30 46 1 19 43
M  V30 47 1 20 44
M  V30 48 1 20 45
M  V30 49 1 25 46
M  V30 END BOND
M  V30 END CTAB
M  END
>  <Dataset>  (785) 
ChEMBL_Kinases

>  <Ligand_Instance>  (785) 
nan

>  <PDB_ID>  (785) 
nan

>  <Standardized_SMILES>  (785) 
CC(C)n1cc(-c2n[nH]c3ccnc(OCCN4CCOC4=O)c23)cn1

>  <Name>  (785) 
nan

>  <Pocket>  (785) 
nan

>  <ATP_Site>  (785) 
nan

>  <Peripheral>  (785) 
nan

>  <Num_H_Atoms_ProtBoundConf>  (785) 
nan

>  <Num_Resolved_Atoms>  (785) 
nan

>  <Num_Not_Resolved_Atoms>  (785) 
nan

$$$$
CHEMBL3651812
     RDKit          3D

  0  0  0  0  0  0  0  0  0  0999 V3000
M  V30 BEGIN CTAB
M  V30 COUNTS 52 56 0 0 0
M  V30 BEGIN ATOM
M  V30 1 O 2.549802 -2.676150 4.451075 0
M  V30 2 C 2.284503 -2.842942 3.216448 0
M  V30 3 O 1.822338 -4.124638 2.848030 0
M  V30 4 C 1.867209 -4.100587 1.410319 0
M  V30 5 C 1.436195 -2.648520 1.181359 0
M  V30 6 N 2.357232 -1.970763 2.067851 0
M  V30 7 C 3.197937 -0.822293 2.077814 0
M  V30 8 C 2.481179 0.362191 2.593674 0
M  V30 9 O 1.348833 0.792345 1.861740 0
M  V30 10 C 0.739128 1.934187 2.449015 0
M  V30 11 N 1.204953 2.509662 3.597127 0
M  V30 12 C 0.630610 3.569285 4.132938 0
M  V30 13 C -0.474886 4.198224 3.607349 0
M  V30 14 C -0.974732 3.653618 2.454717 0
M  V30 15 N -1.989952 3.961186 1.630329 0
M  V30 16 N -2.006804 3.101156 0.638823 0
M  V30 17 C -0.999079 2.180939 0.764320 0
M  V30 18 C -0.913059 1.191302 -0.290591 0
M  V30 19 C -0.805681 1.716014 -1.590928 0
M  V30 20 C -0.769688 0.992167 -2.774896 0
M  V30 21 N -0.848530 -0.337091 -2.622769 0
M  V30 22 C -0.953486 -0.894016 -1.404424 0
M  V30 23 N -1.069129 -2.309883 -1.423895 0
M  V30 24 C -1.508598 -3.244238 -0.376657 0
M  V30 25 C -2.697039 -4.048599 -0.867112 0
M  V30 26 O -2.454303 -4.622111 -2.107205 0
M  V30 27 C -2.056299 -3.720567 -3.058686 0
M  V30 28 C -0.740638 -3.098247 -2.599405 0
M  V30 29 C -0.987589 -0.183030 -0.227511 0
M  V30 30 C -0.361866 2.547776 1.912340 0
M  V30 31 H 1.206502 -4.831412 0.948025 0
M  V30 32 H 2.926539 -4.152804 1.114994 0
M  V30 33 H 1.503784 -2.352924 0.132450 0
M  V30 34 H 0.414384 -2.488580 1.609984 0
M  V30 35 H 4.086258 -0.968098 2.760749 0
M  V30 36 H 3.676720 -0.627125 1.079989 0
M  V30 37 H 2.200890 0.165396 3.663747 0
M  V30 38 H 3.174716 1.256180 2.663493 0
M  V30 39 H 1.042282 3.997264 5.059520 0
M  V30 40 H -0.982750 5.064844 4.003461 0
M  V30 41 H -2.678094 4.755906 1.734142 0
M  V30 42 H -0.741429 2.791733 -1.735555 0
M  V30 43 H -0.684618 1.480824 -3.730473 0
M  V30 44 H -0.699525 -3.973266 -0.202900 0
M  V30 45 H -1.739283 -2.749065 0.572671 0
M  V30 46 H -3.540813 -3.341765 -0.982873 0
M  V30 47 H -2.997202 -4.806771 -0.122437 0
M  V30 48 H -2.839904 -2.960819 -3.175779 0
M  V30 49 H -1.848589 -4.266168 -3.993461 0
M  V30 50 H -0.326431 -2.463334 -3.414016 0
M  V30 51 H -0.030128 -3.887634 -2.291351 0
M  V30 52 H -1.067529 -0.605304 0.738118 0
M  V30 END ATOM
M  V30 BEGIN BOND
M  V30 1 2 1 2
M  V30 2 1 2 3
M  V30 3 1 3 4
M  V30 4 1 4 5
M  V30 5 1 5 6
M  V30 6 1 6 7
M  V30 7 1 7 8
M  V30 8 1 8 9
M  V30 9 1 9 10
M  V30 10 2 10 11
M  V30 11 1 11 12
M  V30 12 2 12 13
M  V30 13 1 13 14
M  V30 14 1 14 15
M  V30 15 1 15 16
M  V30 16 2 16 17
M  V30 17 1 17 18
M  V30 18 2 18 19
M  V30 19 1 19 20
M  V30 20 2 20 21
M  V30 21 1 21 22
M  V30 22 1 22 23
M  V30 23 1 23 24
M  V30 24 1 24 25
M  V30 25 1 25 26
M  V30 26 1 26 27
M  V30 27 1 27 28
M  V30 28 2 22 29
M  V30 29 1 17 30
M  V30 30 1 6 2
M  V30 31 1 30 10
M  V30 32 2 30 14
M  V30 33 1 29 18
M  V30 34 1 28 23
M  V30 35 1 4 31
M  V30 36 1 4 32
M  V30 37 1 5 33
M  V30 38 1 5 34
M  V30 39 1 7 35
M  V30 40 1 7 36
M  V30 41 1 8 37
M  V30 42 1 8 38
M  V30 43 1 12 39
M  V30 44 1 13 40
M  V30 45 1 15 41
M  V30 46 1 19 42
M  V30 47 1 20 43
M  V30 48 1 24 44
M  V30 49 1 24 45
M  V30 50 1 25 46
M  V30 51 1 25 47
M  V30 52 1 27 48
M  V30 53 1 27 49
M  V30 54 1 28 50
M  V30 55 1 28 51
M  V30 56 1 29 52
M  V30 END BOND
M  V30 END CTAB
M  END
>  <Dataset>  (786) 
ChEMBL_Kinases

>  <Ligand_Instance>  (786) 
nan

>  <PDB_ID>  (786) 
nan

>  <Standardized_SMILES>  (786) 
O=C1OCCN1CCOc1nccc2[nH]nc(-c3ccnc(N4CCOCC4)c3)c12

>  <Name>  (786) 
nan

>  <Pocket>  (786) 
nan

>  <ATP_Site>  (786) 
nan

>  <Peripheral>  (786) 
nan

>  <Num_H_Atoms_ProtBoundConf>  (786) 
nan

>  <Num_Resolved_Atoms>  (786) 
nan

>  <Num_Not_Resolved_Atoms>  (786) 
nan

$$$$
CHEMBL3651811
     RDKit          3D

  0  0  0  0  0  0  0  0  0  0999 V3000
M  V30 BEGIN CTAB
M  V30 COUNTS 47 50 0 0 0
M  V30 BEGIN ATOM
M  V30 1 C 1.361073 -3.421520 2.649154 0
M  V30 2 O 1.896539 -2.530109 1.729200 0
M  V30 3 C 1.538339 -2.954924 0.444540 0
M  V30 4 C 2.101034 -2.012814 -0.594817 0
M  V30 5 O 1.629485 -0.688230 -0.439168 0
M  V30 6 C 2.100046 0.243355 -1.354677 0
M  V30 7 N 2.959854 -0.080642 -2.341282 0
M  V30 8 C 3.384935 0.861095 -3.198918 0
M  V30 9 C 3.025969 2.192729 -3.188443 0
M  V30 10 C 2.146294 2.546829 -2.186896 0
M  V30 11 N 1.558491 3.687717 -1.812567 0
M  V30 12 N 0.790721 3.451320 -0.751594 0
M  V30 13 C 0.855403 2.136333 -0.399298 0
M  V30 14 C 0.076405 1.703339 0.750576 0
M  V30 15 C 0.206741 2.481133 1.909849 0
M  V30 16 C -0.456902 2.254949 3.113061 0
M  V30 17 N -1.288089 1.183115 3.119363 0
M  V30 18 C -1.446439 0.407497 2.032233 0
M  V30 19 N -2.346764 -0.679834 2.176908 0
M  V30 20 C -3.025806 -0.904148 3.437487 0
M  V30 21 C -2.595514 -2.235105 3.960354 0
M  V30 22 O -2.494384 -3.242072 3.072067 0
M  V30 23 C -2.636588 -3.051972 1.765855 0
M  V30 24 C -2.726291 -1.667552 1.212397 0
M  V30 25 C -0.781692 0.647830 0.852488 0
M  V30 26 C 1.718045 1.568938 -1.313834 0
M  V30 27 H 1.747345 -4.455186 2.484773 0
M  V30 28 H 1.625569 -3.099072 3.688534 0
M  V30 29 H 0.260056 -3.444447 2.540602 0
M  V30 30 H 2.036464 -3.934017 0.288129 0
M  V30 31 H 0.460554 -3.104474 0.329524 0
M  V30 32 H 3.211185 -2.062470 -0.496768 0
M  V30 33 H 1.856927 -2.428104 -1.598867 0
M  V30 34 H 4.086032 0.553633 -3.989017 0
M  V30 35 H 3.391766 2.910818 -3.895194 0
M  V30 36 H 1.706479 4.586522 -2.299775 0
M  V30 37 H 0.881117 3.351441 1.905980 0
M  V30 38 H -0.289359 2.912476 3.951958 0
M  V30 39 H -4.135436 -0.814561 3.334639 0
M  V30 40 H -2.744857 -0.100465 4.147618 0
M  V30 41 H -1.609874 -2.083653 4.458922 0
M  V30 42 H -3.304597 -2.526436 4.764485 0
M  V30 43 H -3.507415 -3.628576 1.388958 0
M  V30 44 H -1.757305 -3.536375 1.245764 0
M  V30 45 H -2.157149 -1.541622 0.275378 0
M  V30 46 H -3.803711 -1.440863 0.957650 0
M  V30 47 H -0.914611 0.043903 -0.005736 0
M  V30 END ATOM
M  V30 BEGIN BOND
M  V30 1 1 1 2
M  V30 2 1 2 3
M  V30 3 1 3 4
M  V30 4 1 4 5
M  V30 5 1 5 6
M  V30 6 2 6 7
M  V30 7 1 7 8
M  V30 8 2 8 9
M  V30 9 1 9 10
M  V30 10 1 10 11
M  V30 11 1 11 12
M  V30 12 2 12 13
M  V30 13 1 13 14
M  V30 14 2 14 15
M  V30 15 1 15 16
M  V30 16 2 16 17
M  V30 17 1 17 18
M  V30 18 1 18 19
M  V30 19 1 19 20
M  V30 20 1 20 21
M  V30 21 1 21 22
M  V30 22 1 22 23
M  V30 23 1 23 24
M  V30 24 2 18 25
M  V30 25 1 13 26
M  V30 26 1 26 6
M  V30 27 2 26 10
M  V30 28 1 25 14
M  V30 29 1 24 19
M  V30 30 1 1 27
M  V30 31 1 1 28
M  V30 32 1 1 29
M  V30 33 1 3 30
M  V30 34 1 3 31
M  V30 35 1 4 32
M  V30 36 1 4 33
M  V30 37 1 8 34
M  V30 38 1 9 35
M  V30 39 1 11 36
M  V30 40 1 15 37
M  V30 41 1 16 38
M  V30 42 1 20 39
M  V30 43 1 20 40
M  V30 44 1 21 41
M  V30 45 1 21 42
M  V30 46 1 23 43
M  V30 47 1 23 44
M  V30 48 1 24 45
M  V30 49 1 24 46
M  V30 50 1 25 47
M  V30 END BOND
M  V30 END CTAB
M  END
>  <Dataset>  (787) 
ChEMBL_Kinases

>  <Ligand_Instance>  (787) 
nan

>  <PDB_ID>  (787) 
nan

>  <Standardized_SMILES>  (787) 
COCCOc1nccc2[nH]nc(-c3ccnc(N4CCOCC4)c3)c12

>  <Name>  (787) 
nan

>  <Pocket>  (787) 
nan

>  <ATP_Site>  (787) 
nan

>  <Peripheral>  (787) 
nan

>  <Num_H_Atoms_ProtBoundConf>  (787) 
nan

>  <Num_Resolved_Atoms>  (787) 
nan

>  <Num_Not_Resolved_Atoms>  (787) 
nan

$$$$
CHEMBL3651810
     RDKit          3D

  0  0  0  0  0  0  0  0  0  0999 V3000
M  V30 BEGIN CTAB
M  V30 COUNTS 46 49 0 0 0
M  V30 BEGIN ATOM
M  V30 1 C 0.281644 -3.272596 3.337548 0
M  V30 2 C 0.631140 -3.300574 1.878708 0
M  V30 3 O 1.207592 -2.079559 1.419091 0
M  V30 4 C 2.494154 -2.138079 0.922997 0
M  V30 5 N 3.118988 -3.333845 0.903700 0
M  V30 6 C 4.388255 -3.426793 0.422798 0
M  V30 7 C 5.086249 -2.339591 -0.056772 0
M  V30 8 C 4.467456 -1.106893 -0.046920 0
M  V30 9 N 4.758196 0.159230 -0.395016 0
M  V30 10 N 3.725715 0.953070 -0.137310 0
M  V30 11 C 2.697459 0.235279 0.397953 0
M  V30 12 C 1.475261 0.938620 0.753024 0
M  V30 13 C 1.641882 2.106103 1.508508 0
M  V30 14 C 0.603219 2.921741 1.933372 0
M  V30 15 N -0.638435 2.557762 1.591775 0
M  V30 16 C -0.855360 1.451089 0.870052 0
M  V30 17 N -2.188657 1.100258 0.528080 0
M  V30 18 C -2.653884 -0.035767 -0.236130 0
M  V30 19 C -3.793101 0.416206 -1.129551 0
M  V30 20 O -3.758452 1.775438 -1.416162 0
M  V30 21 C -3.880247 2.566918 -0.285461 0
M  V30 22 C -3.302803 1.910344 0.944183 0
M  V30 23 C 0.179880 0.643473 0.449723 0
M  V30 24 C 3.181269 -1.048689 0.446728 0
M  V30 25 C -0.573453 -3.718055 1.086825 0
M  V30 26 F -1.651425 -2.896941 1.221029 0
M  V30 27 F -0.294720 -3.793988 -0.268185 0
M  V30 28 F -0.917175 -4.982533 1.494432 0
M  V30 29 H 0.938706 -2.582650 3.884557 0
M  V30 30 H 0.452267 -4.285581 3.791487 0
M  V30 31 H -0.801949 -3.058757 3.502727 0
M  V30 32 H 1.386494 -4.121431 1.737401 0
M  V30 33 H 4.907028 -4.394410 0.401929 0
M  V30 34 H 6.094415 -2.393035 -0.442421 0
M  V30 35 H 5.677297 0.430809 -0.805369 0
M  V30 36 H 2.640040 2.430939 1.803558 0
M  V30 37 H 0.808445 3.808279 2.514095 0
M  V30 38 H -3.107576 -0.742734 0.497203 0
M  V30 39 H -1.879980 -0.561895 -0.800329 0
M  V30 40 H -4.788077 0.093662 -0.750047 0
M  V30 41 H -3.672034 -0.120313 -2.093840 0
M  V30 42 H -4.914499 2.887479 -0.060721 0
M  V30 43 H -3.292664 3.500115 -0.462603 0
M  V30 44 H -2.940824 2.700986 1.647002 0
M  V30 45 H -4.068552 1.336811 1.519460 0
M  V30 46 H 0.019111 -0.236371 -0.135208 0
M  V30 END ATOM
M  V30 BEGIN BOND
M  V30 1 1 1 2
M  V30 2 1 2 3
M  V30 3 1 3 4
M  V30 4 2 4 5
M  V30 5 1 5 6
M  V30 6 2 6 7
M  V30 7 1 7 8
M  V30 8 1 8 9
M  V30 9 1 9 10
M  V30 10 2 10 11
M  V30 11 1 11 12
M  V30 12 2 12 13
M  V30 13 1 13 14
M  V30 14 2 14 15
M  V30 15 1 15 16
M  V30 16 1 16 17
M  V30 17 1 17 18
M  V30 18 1 18 19
M  V30 19 1 19 20
M  V30 20 1 20 21
M  V30 21 1 21 22
M  V30 22 2 16 23
M  V30 23 1 11 24
M  V30 24 1 2 25
M  V30 25 1 25 26
M  V30 26 1 25 27
M  V30 27 1 25 28
M  V30 28 1 24 4
M  V30 29 2 24 8
M  V30 30 1 23 12
M  V30 31 1 22 17
M  V30 32 1 1 29
M  V30 33 1 1 30
M  V30 34 1 1 31
M  V30 35 1 2 32
M  V30 36 1 6 33
M  V30 37 1 7 34
M  V30 38 1 9 35
M  V30 39 1 13 36
M  V30 40 1 14 37
M  V30 41 1 18 38
M  V30 42 1 18 39
M  V30 43 1 19 40
M  V30 44 1 19 41
M  V30 45 1 21 42
M  V30 46 1 21 43
M  V30 47 1 22 44
M  V30 48 1 22 45
M  V30 49 1 23 46
M  V30 END BOND
M  V30 END CTAB
M  END
>  <Dataset>  (788) 
ChEMBL_Kinases

>  <Ligand_Instance>  (788) 
nan

>  <PDB_ID>  (788) 
nan

>  <Standardized_SMILES>  (788) 
CC(Oc1nccc2[nH]nc(-c3ccnc(N4CCOCC4)c3)c12)C(F)(F)F

>  <Name>  (788) 
nan

>  <Pocket>  (788) 
nan

>  <ATP_Site>  (788) 
nan

>  <Peripheral>  (788) 
nan

>  <Num_H_Atoms_ProtBoundConf>  (788) 
nan

>  <Num_Resolved_Atoms>  (788) 
nan

>  <Num_Not_Resolved_Atoms>  (788) 
nan

$$$$
CHEMBL3651809
     RDKit          3D

  0  0  0  0  0  0  0  0  0  0999 V3000
M  V30 BEGIN CTAB
M  V30 COUNTS 44 47 0 0 0
M  V30 BEGIN ATOM
M  V30 1 C 0.914205 -5.420935 -1.609552 0
M  V30 2 N 0.770068 -4.388538 -0.604641 0
M  V30 3 C -0.240705 -4.591098 0.255923 0
M  V30 4 C -0.531760 -3.714538 1.281215 0
M  V30 5 C 0.238672 -2.581625 1.439078 0
M  V30 6 C 1.276204 -2.376899 0.553049 0
M  V30 7 N 2.138716 -1.246286 0.615420 0
M  V30 8 C 2.540283 -0.139550 -0.178274 0
M  V30 9 N 3.588405 -0.233069 -1.011382 0
M  V30 10 N 3.793040 0.894691 -1.649139 0
M  V30 11 C 2.844180 1.745460 -1.212523 0
M  V30 12 C 2.526510 3.076417 -1.499459 0
M  V30 13 C 1.453915 3.638861 -0.839880 0
M  V30 14 N 0.685848 3.001918 0.063065 0
M  V30 15 C 0.965932 1.723526 0.359439 0
M  V30 16 O 0.200112 1.001421 1.295782 0
M  V30 17 C -0.864963 1.759133 1.871209 0
M  V30 18 C -0.743995 1.853070 3.375660 0
M  V30 19 C -1.614925 0.862738 4.101565 0
M  V30 20 O -1.797215 -0.310020 3.396252 0
M  V30 21 C -2.454022 -0.135390 2.202096 0
M  V30 22 C -2.224001 1.193021 1.555804 0
M  V30 23 C 2.032414 1.138616 -0.285701 0
M  V30 24 C 1.528648 -3.290900 -0.464087 0
M  V30 25 O 2.466171 -3.167907 -1.316197 0
M  V30 26 H -0.082589 -5.687055 -2.063914 0
M  V30 27 H 1.656081 -5.186494 -2.379024 0
M  V30 28 H 1.248281 -6.391372 -1.141921 0
M  V30 29 H -0.910088 -5.440200 0.231163 0
M  V30 30 H -1.333996 -3.832904 1.999417 0
M  V30 31 H 0.149232 -1.813477 2.169031 0
M  V30 32 H 2.669814 -1.167830 1.529620 0
M  V30 33 H 4.524115 1.146586 -2.361701 0
M  V30 34 H 3.121904 3.607564 -2.214803 0
M  V30 35 H 1.224649 4.682990 -1.081502 0
M  V30 36 H -0.788300 2.770384 1.396207 0
M  V30 37 H 0.311298 1.823651 3.709229 0
M  V30 38 H -1.150689 2.869480 3.652992 0
M  V30 39 H -2.586444 1.301501 4.452798 0
M  V30 40 H -1.081920 0.581990 5.049846 0
M  V30 41 H -2.139082 -0.925627 1.471392 0
M  V30 42 H -3.561639 -0.323559 2.320810 0
M  V30 43 H -2.956387 1.915458 1.976523 0
M  V30 44 H -2.408091 1.105982 0.466701 0
M  V30 END ATOM
M  V30 BEGIN BOND
M  V30 1 1 1 2
M  V30 2 1 2 3
M  V30 3 2 3 4
M  V30 4 1 4 5
M  V30 5 2 5 6
M  V30 6 1 6 7
M  V30 7 1 7 8
M  V30 8 2 8 9
M  V30 9 1 9 10
M  V30 10 1 10 11
M  V30 11 2 11 12
M  V30 12 1 12 13
M  V30 13 2 13 14
M  V30 14 1 14 15
M  V30 15 1 15 16
M  V30 16 1 16 17
M  V30 17 1 17 18
M  V30 18 1 18 19
M  V30 19 1 19 20
M  V30 20 1 20 21
M  V30 21 1 21 22
M  V30 22 2 15 23
M  V30 23 1 6 24
M  V30 24 2 24 25
M  V30 25 1 24 2
M  V30 26 1 23 8
M  V30 27 1 23 11
M  V30 28 1 22 17
M  V30 29 1 1 26
M  V30 30 1 1 27
M  V30 31 1 1 28
M  V30 32 1 3 29
M  V30 33 1 4 30
M  V30 34 1 5 31
M  V30 35 1 7 32
M  V30 36 1 10 33
M  V30 37 1 12 34
M  V30 38 1 13 35
M  V30 39 1 17 36
M  V30 40 1 18 37
M  V30 41 1 18 38
M  V30 42 1 19 39
M  V30 43 1 19 40
M  V30 44 1 21 41
M  V30 45 1 21 42
M  V30 46 1 22 43
M  V30 47 1 22 44
M  V30 END BOND
M  V30 END CTAB
M  END
>  <Dataset>  (789) 
ChEMBL_Kinases

>  <Ligand_Instance>  (789) 
nan

>  <PDB_ID>  (789) 
nan

>  <Standardized_SMILES>  (789) 
Cn1cccc(Nc2n[nH]c3ccnc(OC4CCOCC4)c23)c1=O

>  <Name>  (789) 
nan

>  <Pocket>  (789) 
nan

>  <ATP_Site>  (789) 
nan

>  <Peripheral>  (789) 
nan

>  <Num_H_Atoms_ProtBoundConf>  (789) 
nan

>  <Num_Resolved_Atoms>  (789) 
nan

>  <Num_Not_Resolved_Atoms>  (789) 
nan

$$$$
CHEMBL3651191
     RDKit          3D

  0  0  0  0  0  0  0  0  0  0999 V3000
M  V30 BEGIN CTAB
M  V30 COUNTS 84 89 0 0 0
M  V30 BEGIN ATOM
M  V30 1 C 2.347913 -5.614463 -0.073144 0
M  V30 2 O 2.901273 -4.409647 -0.552750 0
M  V30 3 C 3.699513 -3.667319 0.292272 0
M  V30 4 C 3.970763 -4.068070 1.581044 0
M  V30 5 C 4.768668 -3.312787 2.393248 0
M  V30 6 C 5.291512 -2.147478 1.893219 0
M  V30 7 C 5.005648 -1.767556 0.601582 0
M  V30 8 F 5.593333 -0.588705 0.240239 0
M  V30 9 C 4.192440 -2.512452 -0.262947 0
M  V30 10 C 4.011807 -1.895247 -1.570114 0
M  V30 11 N 2.815966 -1.126990 -1.768955 0
M  V30 12 C 1.655385 -1.889791 -1.632832 0
M  V30 13 C 0.475225 -1.034036 -2.097497 0 CFG=2
M  V30 14 N -0.749706 -1.681577 -1.773260 0
M  V30 15 C -1.886962 -1.147250 -1.107797 0
M  V30 16 O -1.753097 0.078046 -0.770732 0
M  V30 17 C -3.088163 -1.920835 -0.837505 0
M  V30 18 C -3.235302 -3.252824 -1.165969 0
M  V30 19 C -4.392880 -3.958385 -0.901878 0
M  V30 20 C -5.451215 -3.314296 -0.284822 0
M  V30 21 N -6.684866 -3.687319 0.105369 0
M  V30 22 N -7.293668 -2.639696 0.656448 0
M  V30 23 C -6.443425 -1.573739 0.622967 0
M  V30 24 C -6.896110 -0.302317 1.174057 0
M  V30 25 C -8.188714 0.106348 0.824292 0
M  V30 26 C -8.797454 1.282876 1.247057 0
M  V30 27 N -8.065964 2.068828 2.052225 0
M  V30 28 C -6.829301 1.722311 2.413419 0
M  V30 29 C -6.082202 2.629935 3.297924 0
M  V30 30 C -6.215823 0.563473 2.003466 0
M  V30 31 C -5.267528 -1.981813 0.028951 0
M  V30 32 C -4.134435 -1.233288 -0.212566 0
M  V30 33 C 0.674554 -0.971769 -3.599099 0
M  V30 34 C 1.945715 -0.249311 -3.936357 0
M  V30 35 C 2.951123 -0.210775 -2.839928 0 CFG=1
M  V30 36 C 3.045517 1.161777 -2.243298 0
M  V30 37 O 3.151606 2.172560 -3.000293 0
M  V30 38 N 3.026978 1.453395 -0.845666 0
M  V30 39 C 3.138999 2.888030 -0.675861 0
M  V30 40 C 3.129577 3.273275 0.764145 0 CFG=2
M  V30 41 C 4.244762 2.678893 1.562487 0
M  V30 42 C 3.728662 2.786235 2.985908 0
M  V30 43 C 2.282103 2.392578 2.824153 0 CFG=1
M  V30 44 O 1.550209 2.929973 3.883640 0
M  V30 45 C 1.856735 2.967510 1.493554 0
M  V30 46 H 1.752861 -6.127883 -0.844379 0
M  V30 47 H 1.731980 -5.466181 0.837118 0
M  V30 48 H 3.154400 -6.346108 0.225999 0
M  V30 49 H 3.515610 -5.002978 1.893735 0
M  V30 50 H 4.913420 -3.723376 3.384003 0
M  V30 51 H 5.918074 -1.575014 2.561326 0
M  V30 52 H 4.914470 -1.290157 -1.874073 0
M  V30 53 H 4.004871 -2.716393 -2.360248 0
M  V30 54 H 1.489796 -2.115153 -0.560250 0
M  V30 55 H 1.646912 -2.765801 -2.282444 0
M  V30 56 H 0.488644 -0.015287 -1.725259 0
M  V30 57 H -0.749505 -2.676312 -2.092232 0
M  V30 58 H -2.413868 -3.764933 -1.648162 0
M  V30 59 H -4.464027 -5.001973 -1.177217 0
M  V30 60 H -7.085347 -4.659718 -0.015985 0
M  V30 61 H -8.789510 -0.525881 0.171113 0
M  V30 62 H -9.794987 1.516962 0.928800 0
M  V30 63 H -6.779110 3.313829 3.862355 0
M  V30 64 H -5.406569 3.304752 2.733471 0
M  V30 65 H -5.488288 2.107758 4.083162 0
M  V30 66 H -5.218201 0.234374 2.264879 0
M  V30 67 H -4.093561 -0.185081 0.076598 0
M  V30 68 H -0.216790 -0.528093 -4.084456 0
M  V30 69 H 0.745306 -2.024362 -3.940128 0
M  V30 70 H 2.346212 -0.704134 -4.867402 0
M  V30 71 H 1.666532 0.792344 -4.202204 0
M  V30 72 H 3.947359 -0.364636 -3.314363 0
M  V30 73 H 2.940890 0.632759 -0.210934 0
M  V30 74 H 2.272911 3.365904 -1.170452 0
M  V30 75 H 4.037541 3.315206 -1.137359 0
M  V30 76 H 3.255629 4.385912 0.809464 0
M  V30 77 H 4.439533 1.624299 1.357456 0
M  V30 78 H 5.189814 3.256502 1.485000 0
M  V30 79 H 4.272952 2.108692 3.674347 0
M  V30 80 H 3.754732 3.846267 3.308579 0
M  V30 81 H 2.149337 1.280219 2.785876 0
M  V30 82 H 1.153717 3.801977 3.685346 0
M  V30 83 H 1.206152 2.291783 0.903377 0
M  V30 84 H 1.257206 3.890444 1.737481 0
M  V30 END ATOM
M  V30 BEGIN BOND
M  V30 1 1 1 2
M  V30 2 1 2 3
M  V30 3 2 3 4
M  V30 4 1 4 5
M  V30 5 2 5 6
M  V30 6 1 6 7
M  V30 7 1 7 8
M  V30 8 2 7 9
M  V30 9 1 9 10
M  V30 10 1 10 11
M  V30 11 1 11 12
M  V30 12 1 12 13
M  V30 13 1 13 14
M  V30 14 1 14 15
M  V30 15 2 15 16
M  V30 16 1 15 17
M  V30 17 2 17 18
M  V30 18 1 18 19
M  V30 19 2 19 20
M  V30 20 1 20 21
M  V30 21 1 21 22
M  V30 22 2 22 23
M  V30 23 1 23 24
M  V30 24 2 24 25
M  V30 25 1 25 26
M  V30 26 2 26 27
M  V30 27 1 27 28
M  V30 28 1 28 29
M  V30 29 2 28 30
M  V30 30 1 23 31
M  V30 31 2 31 32
M  V30 32 1 13 33
M  V30 33 1 33 34
M  V30 34 1 34 35
M  V30 35 1 35 36
M  V30 36 2 36 37
M  V30 37 1 36 38
M  V30 38 1 38 39
M  V30 39 1 39 40
M  V30 40 1 40 41
M  V30 41 1 41 42
M  V30 42 1 42 43
M  V30 43 1 43 44
M  V30 44 1 43 45
M  V30 45 1 9 3
M  V30 46 1 35 11
M  V30 47 1 45 40
M  V30 48 1 32 17
M  V30 49 1 31 20
M  V30 50 1 30 24
M  V30 51 1 1 46
M  V30 52 1 1 47
M  V30 53 1 1 48
M  V30 54 1 4 49
M  V30 55 1 5 50
M  V30 56 1 6 51
M  V30 57 1 10 52
M  V30 58 1 10 53
M  V30 59 1 12 54
M  V30 60 1 12 55
M  V30 61 1 13 56 CFG=1
M  V30 62 1 14 57
M  V30 63 1 18 58
M  V30 64 1 19 59
M  V30 65 1 21 60
M  V30 66 1 25 61
M  V30 67 1 26 62
M  V30 68 1 29 63
M  V30 69 1 29 64
M  V30 70 1 29 65
M  V30 71 1 30 66
M  V30 72 1 32 67
M  V30 73 1 33 68
M  V30 74 1 33 69
M  V30 75 1 34 70
M  V30 76 1 34 71
M  V30 77 1 35 72 CFG=3
M  V30 78 1 38 73
M  V30 79 1 39 74
M  V30 80 1 39 75
M  V30 81 1 40 76 CFG=3
M  V30 82 1 41 77
M  V30 83 1 41 78
M  V30 84 1 42 79
M  V30 85 1 42 80
M  V30 86 1 43 81 CFG=3
M  V30 87 1 44 82
M  V30 88 1 45 83
M  V30 89 1 45 84
M  V30 END BOND
M  V30 END CTAB
M  END
>  <Dataset>  (790) 
ChEMBL_Kinases

>  <Ligand_Instance>  (790) 
nan

>  <PDB_ID>  (790) 
nan

>  <Standardized_SMILES>  (790) 
COc1cccc(F)c1CN1C[C@H](NC(=O)c2ccc3[nH]nc(-c4ccnc(C)c4)c3c2)CC[C@H]1C(=O)NC[C@@H]1CC[C@@H](O)C1

>  <Name>  (790) 
nan

>  <Pocket>  (790) 
nan

>  <ATP_Site>  (790) 
nan

>  <Peripheral>  (790) 
nan

>  <Num_H_Atoms_ProtBoundConf>  (790) 
nan

>  <Num_Resolved_Atoms>  (790) 
nan

>  <Num_Not_Resolved_Atoms>  (790) 
nan

$$$$
CHEMBL3651792
     RDKit          3D

  0  0  0  0  0  0  0  0  0  0999 V3000
M  V30 BEGIN CTAB
M  V30 COUNTS 43 46 0 0 0
M  V30 BEGIN ATOM
M  V30 1 N -3.391402 -5.715408 0.920301 0
M  V30 2 C -2.371305 -5.714998 0.371908 0
M  V30 3 C -1.081296 -5.693819 -0.315828 0
M  V30 4 C -0.311703 -4.489242 0.006714 0
M  V30 5 C 0.532542 -4.547477 1.088392 0
M  V30 6 C 1.265696 -3.440148 1.414630 0
M  V30 7 C 1.128886 -2.315983 0.649640 0
M  V30 8 C 0.349026 -2.117119 -0.422158 0
M  V30 9 C 0.001625 -1.024628 -1.274971 0
M  V30 10 N -0.494796 -1.167505 -2.537584 0
M  V30 11 N -0.767062 -0.014428 -3.092631 0
M  V30 12 C -0.487082 0.984333 -2.272800 0
M  V30 13 C -0.595701 2.352459 -2.338799 0
M  V30 14 C -0.242058 3.153638 -1.292494 0
M  V30 15 N 0.217151 2.507504 -0.198084 0
M  V30 16 C 0.329765 1.175622 -0.117663 0
M  V30 17 O 0.805848 0.672182 1.063884 0
M  V30 18 C 1.143826 1.550703 2.108231 0
M  V30 19 C 0.198075 1.209374 3.257008 0
M  V30 20 C 0.454276 2.206668 4.362981 0
M  V30 21 O 1.749854 1.969187 4.813109 0
M  V30 22 C 2.710021 2.208119 3.856329 0
M  V30 23 C 2.545230 1.412590 2.590435 0
M  V30 24 C -0.014238 0.341359 -1.153188 0
M  V30 25 C -0.366830 -3.302145 -0.688351 0
M  V30 26 H -1.330263 -5.712571 -1.406287 0
M  V30 27 H -0.494206 -6.607881 -0.116881 0
M  V30 28 H 0.624033 -5.444226 1.677373 0
M  V30 29 H 1.938978 -3.440134 2.252488 0
M  V30 30 H 1.760617 -1.506368 0.914660 0
M  V30 31 H -0.682646 -2.045476 -3.107329 0
M  V30 32 H -0.977200 2.753574 -3.267340 0
M  V30 33 H -0.329709 4.231257 -1.351881 0
M  V30 34 H 0.929933 2.575061 1.712572 0
M  V30 35 H -0.847520 1.212381 2.908573 0
M  V30 36 H 0.542369 0.225867 3.651945 0
M  V30 37 H -0.213471 1.909106 5.211835 0
M  V30 38 H 0.285753 3.256056 4.066595 0
M  V30 39 H 3.684938 1.905190 4.303996 0
M  V30 40 H 2.784666 3.286249 3.583265 0
M  V30 41 H 2.793053 0.347994 2.720604 0
M  V30 42 H 3.273239 1.859290 1.861551 0
M  V30 43 H -1.075942 -3.385588 -1.525959 0
M  V30 END ATOM
M  V30 BEGIN BOND
M  V30 1 3 1 2
M  V30 2 1 2 3
M  V30 3 1 3 4
M  V30 4 2 4 5
M  V30 5 1 5 6
M  V30 6 2 6 7
M  V30 7 1 7 8
M  V30 8 1 8 9
M  V30 9 1 9 10
M  V30 10 1 10 11
M  V30 11 2 11 12
M  V30 12 1 12 13
M  V30 13 2 13 14
M  V30 14 1 14 15
M  V30 15 2 15 16
M  V30 16 1 16 17
M  V30 17 1 17 18
M  V30 18 1 18 19
M  V30 19 1 19 20
M  V30 20 1 20 21
M  V30 21 1 21 22
M  V30 22 1 22 23
M  V30 23 1 16 24
M  V30 24 2 8 25
M  V30 25 1 25 4
M  V30 26 2 24 9
M  V30 27 1 24 12
M  V30 28 1 23 18
M  V30 29 1 3 26
M  V30 30 1 3 27
M  V30 31 1 5 28
M  V30 32 1 6 29
M  V30 33 1 7 30
M  V30 34 1 10 31
M  V30 35 1 13 32
M  V30 36 1 14 33
M  V30 37 1 18 34
M  V30 38 1 19 35
M  V30 39 1 19 36
M  V30 40 1 20 37
M  V30 41 1 20 38
M  V30 42 1 22 39
M  V30 43 1 22 40
M  V30 44 1 23 41
M  V30 45 1 23 42
M  V30 46 1 25 43
M  V30 END BOND
M  V30 END CTAB
M  END
>  <Dataset>  (791) 
ChEMBL_Kinases

>  <Ligand_Instance>  (791) 
nan

>  <PDB_ID>  (791) 
nan

>  <Standardized_SMILES>  (791) 
N#CCc1cccc(-c2[nH]nc3ccnc(OC4CCOCC4)c23)c1

>  <Name>  (791) 
nan

>  <Pocket>  (791) 
nan

>  <ATP_Site>  (791) 
nan

>  <Peripheral>  (791) 
nan

>  <Num_H_Atoms_ProtBoundConf>  (791) 
nan

>  <Num_Resolved_Atoms>  (791) 
nan

>  <Num_Not_Resolved_Atoms>  (791) 
nan

$$$$
CHEMBL3651793
     RDKit          3D

  0  0  0  0  0  0  0  0  0  0999 V3000
M  V30 BEGIN CTAB
M  V30 COUNTS 47 50 0 0 0
M  V30 BEGIN ATOM
M  V30 1 C -1.156391 -2.984093 2.575297 0
M  V30 2 N -0.315787 -3.602607 1.598098 0
M  V30 3 C -0.558866 -5.038878 1.391004 0
M  V30 4 C 0.734754 -3.074040 0.771296 0
M  V30 5 C 1.435763 -3.849711 -0.105490 0
M  V30 6 C 2.438566 -3.321910 -0.872860 0
M  V30 7 C 2.704903 -1.979658 -0.721008 0
M  V30 8 C 2.046058 -1.091936 0.147584 0
M  V30 9 C 2.567321 0.239919 0.165364 0
M  V30 10 N 3.872020 0.491274 -0.171103 0
M  V30 11 N 4.136984 1.776361 -0.120769 0
M  V30 12 C 3.051267 2.475773 0.243993 0
M  V30 13 C 2.809402 3.816620 0.414273 0
M  V30 14 C 1.527285 4.173599 0.769786 0
M  V30 15 N 0.576580 3.204506 0.932337 0
M  V30 16 C 0.850595 1.912989 0.758710 0
M  V30 17 O -0.173830 1.034478 0.937271 0
M  V30 18 C -1.445062 1.581642 1.278419 0
M  V30 19 C -2.343638 1.393674 0.074240 0
M  V30 20 C -2.435837 -0.104740 -0.182573 0
M  V30 21 O -2.862170 -0.789516 0.929057 0
M  V30 22 C -3.210132 0.040697 1.985953 0
M  V30 23 C -2.078109 0.922886 2.455228 0
M  V30 24 C 2.098057 1.499434 0.411569 0
M  V30 25 C 1.083256 -1.763921 0.838128 0
M  V30 26 H -0.996438 -1.901835 2.605744 0
M  V30 27 H -0.971061 -3.467739 3.563777 0
M  V30 28 H -2.246954 -3.106351 2.306331 0
M  V30 29 H -1.423995 -5.366922 1.963208 0
M  V30 30 H 0.374293 -5.607070 1.653006 0
M  V30 31 H -0.760778 -5.178648 0.287875 0
M  V30 32 H 1.199601 -4.900695 -0.200467 0
M  V30 33 H 2.968982 -3.967497 -1.552769 0
M  V30 34 H 3.523154 -1.659406 -1.382325 0
M  V30 35 H 4.671288 -0.120760 -0.450818 0
M  V30 36 H 3.634701 4.498463 0.259082 0
M  V30 37 H 1.356561 5.241241 0.900724 0
M  V30 38 H -1.357281 2.691300 1.395229 0
M  V30 39 H -1.893595 1.912719 -0.814293 0
M  V30 40 H -3.342935 1.817708 0.298286 0
M  V30 41 H -3.101004 -0.258456 -1.077063 0
M  V30 42 H -1.438733 -0.484045 -0.471466 0
M  V30 43 H -3.433600 -0.638587 2.864017 0
M  V30 44 H -4.123188 0.631682 1.746789 0
M  V30 45 H -1.361850 0.397679 3.115325 0
M  V30 46 H -2.590702 1.749536 3.038971 0
M  V30 47 H 0.550634 -1.189431 1.568631 0
M  V30 END ATOM
M  V30 BEGIN BOND
M  V30 1 1 1 2
M  V30 2 1 2 3
M  V30 3 1 2 4
M  V30 4 2 4 5
M  V30 5 1 5 6
M  V30 6 2 6 7
M  V30 7 1 7 8
M  V30 8 1 8 9
M  V30 9 1 9 10
M  V30 10 1 10 11
M  V30 11 2 11 12
M  V30 12 1 12 13
M  V30 13 2 13 14
M  V30 14 1 14 15
M  V30 15 2 15 16
M  V30 16 1 16 17
M  V30 17 1 17 18
M  V30 18 1 18 19
M  V30 19 1 19 20
M  V30 20 1 20 21
M  V30 21 1 21 22
M  V30 22 1 22 23
M  V30 23 1 16 24
M  V30 24 2 8 25
M  V30 25 1 25 4
M  V30 26 2 24 9
M  V30 27 1 24 12
M  V30 28 1 23 18
M  V30 29 1 1 26
M  V30 30 1 1 27
M  V30 31 1 1 28
M  V30 32 1 3 29
M  V30 33 1 3 30
M  V30 34 1 3 31
M  V30 35 1 5 32
M  V30 36 1 6 33
M  V30 37 1 7 34
M  V30 38 1 10 35
M  V30 39 1 13 36
M  V30 40 1 14 37
M  V30 41 1 18 38
M  V30 42 1 19 39
M  V30 43 1 19 40
M  V30 44 1 20 41
M  V30 45 1 20 42
M  V30 46 1 22 43
M  V30 47 1 22 44
M  V30 48 1 23 45
M  V30 49 1 23 46
M  V30 50 1 25 47
M  V30 END BOND
M  V30 END CTAB
M  END
>  <Dataset>  (792) 
ChEMBL_Kinases

>  <Ligand_Instance>  (792) 
nan

>  <PDB_ID>  (792) 
nan

>  <Standardized_SMILES>  (792) 
CN(C)c1cccc(-c2[nH]nc3ccnc(OC4CCOCC4)c23)c1

>  <Name>  (792) 
nan

>  <Pocket>  (792) 
nan

>  <ATP_Site>  (792) 
nan

>  <Peripheral>  (792) 
nan

>  <Num_H_Atoms_ProtBoundConf>  (792) 
nan

>  <Num_Resolved_Atoms>  (792) 
nan

>  <Num_Not_Resolved_Atoms>  (792) 
nan

$$$$
CHEMBL3651794
     RDKit          3D

  0  0  0  0  0  0  0  0  0  0999 V3000
M  V30 BEGIN CTAB
M  V30 COUNTS 52 55 0 0 0
M  V30 BEGIN ATOM
M  V30 1 C 0.338151 -4.809930 -0.225205 0
M  V30 2 C 1.760204 -4.340208 0.018020 0
M  V30 3 C 2.169121 -4.860737 1.387889 0
M  V30 4 N 1.750825 -2.907446 0.066969 0
M  V30 5 C 2.571689 -2.104516 -0.759262 0
M  V30 6 O 3.324258 -2.739697 -1.551819 0
M  V30 7 C 2.645810 -0.655457 -0.797735 0
M  V30 8 C 3.556633 -0.057094 -1.633047 0
M  V30 9 C 3.633837 1.303641 -1.671065 0
M  V30 10 C 2.778770 2.015286 -0.856714 0
M  V30 11 C 1.821063 1.473811 0.021364 0
M  V30 12 C 1.116773 2.456460 0.789261 0
M  V30 13 N 1.631862 3.696445 1.049181 0
M  V30 14 N 0.790904 4.437519 1.733969 0
M  V30 15 C -0.340723 3.766127 1.983568 0
M  V30 16 C -1.523909 4.067544 2.618709 0
M  V30 17 C -2.516908 3.110748 2.654339 0
M  V30 18 N -2.284483 1.903924 2.056844 0
M  V30 19 C -1.133252 1.650842 1.456556 0
M  V30 20 O -1.049255 0.411623 0.900466 0
M  V30 21 C -2.134406 -0.487522 0.950840 0
M  V30 22 C -2.601776 -0.980520 -0.376690 0
M  V30 23 C -3.949440 -1.670531 -0.127246 0
M  V30 24 O -3.706040 -2.764655 0.664147 0
M  V30 25 C -3.246030 -2.406726 1.924346 0
M  V30 26 C -1.881073 -1.702636 1.818579 0
M  V30 27 C -0.106707 2.552956 1.387546 0
M  V30 28 C 1.840087 0.138219 -0.026822 0
M  V30 29 H -0.274739 -4.562032 0.656012 0
M  V30 30 H 0.295351 -5.912498 -0.373385 0
M  V30 31 H -0.089367 -4.328053 -1.106127 0
M  V30 32 H 2.466937 -4.749280 -0.725757 0
M  V30 33 H 2.124130 -4.066551 2.158232 0
M  V30 34 H 1.520513 -5.680094 1.727771 0
M  V30 35 H 3.196528 -5.309327 1.340442 0
M  V30 36 H 1.137506 -2.415319 0.718083 0
M  V30 37 H 4.207857 -0.650695 -2.256325 0
M  V30 38 H 4.348864 1.737434 -2.326553 0
M  V30 39 H 2.940954 3.102549 -0.983391 0
M  V30 40 H 2.536603 4.163840 0.819606 0
M  V30 41 H -1.619153 5.065818 3.070368 0
M  V30 42 H -3.432731 3.415863 3.176171 0
M  V30 43 H -3.023564 0.016559 1.443630 0
M  V30 44 H -1.956025 -1.791029 -0.792218 0
M  V30 45 H -2.779912 -0.196667 -1.111890 0
M  V30 46 H -4.350298 -2.054473 -1.102682 0
M  V30 47 H -4.612836 -0.942313 0.350784 0
M  V30 48 H -3.048464 -3.316817 2.510610 0
M  V30 49 H -3.889742 -1.732251 2.486672 0
M  V30 50 H -1.648337 -1.419966 2.865806 0
M  V30 51 H -1.143381 -2.376262 1.361174 0
M  V30 52 H 1.201665 -0.392449 0.619673 0
M  V30 END ATOM
M  V30 BEGIN BOND
M  V30 1 1 1 2
M  V30 2 1 2 3
M  V30 3 1 2 4
M  V30 4 1 4 5
M  V30 5 2 5 6
M  V30 6 1 5 7
M  V30 7 2 7 8
M  V30 8 1 8 9
M  V30 9 2 9 10
M  V30 10 1 10 11
M  V30 11 1 11 12
M  V30 12 1 12 13
M  V30 13 1 13 14
M  V30 14 2 14 15
M  V30 15 1 15 16
M  V30 16 2 16 17
M  V30 17 1 17 18
M  V30 18 2 18 19
M  V30 19 1 19 20
M  V30 20 1 20 21
M  V30 21 1 21 22
M  V30 22 1 22 23
M  V30 23 1 23 24
M  V30 24 1 24 25
M  V30 25 1 25 26
M  V30 26 1 19 27
M  V30 27 2 11 28
M  V30 28 1 28 7
M  V30 29 2 27 12
M  V30 30 1 27 15
M  V30 31 1 26 21
M  V30 32 1 1 29
M  V30 33 1 1 30
M  V30 34 1 1 31
M  V30 35 1 2 32
M  V30 36 1 3 33
M  V30 37 1 3 34
M  V30 38 1 3 35
M  V30 39 1 4 36
M  V30 40 1 8 37
M  V30 41 1 9 38
M  V30 42 1 10 39
M  V30 43 1 13 40
M  V30 44 1 16 41
M  V30 45 1 17 42
M  V30 46 1 21 43
M  V30 47 1 22 44
M  V30 48 1 22 45
M  V30 49 1 23 46
M  V30 50 1 23 47
M  V30 51 1 25 48
M  V30 52 1 25 49
M  V30 53 1 26 50
M  V30 54 1 26 51
M  V30 55 1 28 52
M  V30 END BOND
M  V30 END CTAB
M  END
>  <Dataset>  (793) 
ChEMBL_Kinases

>  <Ligand_Instance>  (793) 
nan

>  <PDB_ID>  (793) 
nan

>  <Standardized_SMILES>  (793) 
CC(C)NC(=O)c1cccc(-c2[nH]nc3ccnc(OC4CCOCC4)c23)c1

>  <Name>  (793) 
nan

>  <Pocket>  (793) 
nan

>  <ATP_Site>  (793) 
nan

>  <Peripheral>  (793) 
nan

>  <Num_H_Atoms_ProtBoundConf>  (793) 
nan

>  <Num_Resolved_Atoms>  (793) 
nan

>  <Num_Not_Resolved_Atoms>  (793) 
nan

$$$$
CHEMBL3651795
     RDKit          3D

  0  0  0  0  0  0  0  0  0  0999 V3000
M  V30 BEGIN CTAB
M  V30 COUNTS 50 54 0 0 0
M  V30 BEGIN ATOM
M  V30 1 O 0.135190 -2.482961 -0.884384 0
M  V30 2 C 0.647491 -1.722453 -1.745514 0
M  V30 3 N 0.555723 -2.147402 -3.077038 0
M  V30 4 C -0.093838 -3.392083 -3.428764 0
M  V30 5 C 0.102007 -4.048784 -4.738939 0
M  V30 6 C -1.118438 -3.222888 -4.564487 0
M  V30 7 C 1.308426 -0.463892 -1.427963 0
M  V30 8 C 1.859191 0.359898 -2.379784 0
M  V30 9 C 2.466010 1.528793 -1.995172 0
M  V30 10 C 2.501749 1.839770 -0.656644 0
M  V30 11 C 1.966094 1.062392 0.382117 0
M  V30 12 C 2.184614 1.576660 1.698119 0
M  V30 13 N 3.202311 2.438218 1.981912 0
M  V30 14 N 3.205790 2.814111 3.225161 0
M  V30 15 C 2.201032 2.246902 3.879516 0
M  V30 16 C 1.714357 2.290502 5.167631 0
M  V30 17 C 0.598260 1.590021 5.553057 0
M  V30 18 N 0.010501 0.850854 4.563889 0
M  V30 19 C 0.474607 0.800080 3.309055 0
M  V30 20 O -0.236910 0.018235 2.442136 0
M  V30 21 C -1.374460 -0.666607 2.887601 0
M  V30 22 C -2.651813 -0.253008 2.219126 0
M  V30 23 C -3.078272 -1.401540 1.323840 0
M  V30 24 O -3.455021 -2.501443 2.079485 0
M  V30 25 C -2.606030 -2.724631 3.156641 0
M  V30 26 C -1.229588 -2.161088 2.859857 0
M  V30 27 C 1.577416 1.485070 2.919469 0
M  V30 28 C 1.399979 -0.059690 -0.123906 0
M  V30 29 H 0.930094 -1.629159 -3.897972 0
M  V30 30 H -0.508960 -3.981557 -2.589679 0
M  V30 31 H 0.088003 -5.147222 -4.814731 0
M  V30 32 H 0.914726 -3.599295 -5.378059 0
M  V30 33 H -2.094648 -3.716109 -4.486482 0
M  V30 34 H -1.162378 -2.257224 -5.099499 0
M  V30 35 H 1.823784 0.106418 -3.420956 0
M  V30 36 H 2.888639 2.153056 -2.765223 0
M  V30 37 H 3.010055 2.795435 -0.480011 0
M  V30 38 H 3.982251 2.860083 1.405277 0
M  V30 39 H 2.203189 2.883851 5.918322 0
M  V30 40 H 0.166348 1.584217 6.556283 0
M  V30 41 H -1.468390 -0.396007 3.980699 0
M  V30 42 H -3.490666 -0.112573 2.943381 0
M  V30 43 H -2.529833 0.651082 1.589724 0
M  V30 44 H -2.224343 -1.667475 0.701798 0
M  V30 45 H -3.944765 -1.122623 0.687442 0
M  V30 46 H -2.572334 -3.786885 3.455724 0
M  V30 47 H -2.977295 -2.153964 4.044152 0
M  V30 48 H -0.820263 -2.543295 1.904153 0
M  V30 49 H -0.581471 -2.453976 3.711714 0
M  V30 50 H 1.003401 -0.761253 0.577190 0
M  V30 END ATOM
M  V30 BEGIN BOND
M  V30 1 2 1 2
M  V30 2 1 2 3
M  V30 3 1 3 4
M  V30 4 1 4 5
M  V30 5 1 5 6
M  V30 6 1 2 7
M  V30 7 2 7 8
M  V30 8 1 8 9
M  V30 9 2 9 10
M  V30 10 1 10 11
M  V30 11 1 11 12
M  V30 12 1 12 13
M  V30 13 1 13 14
M  V30 14 2 14 15
M  V30 15 1 15 16
M  V30 16 2 16 17
M  V30 17 1 17 18
M  V30 18 2 18 19
M  V30 19 1 19 20
M  V30 20 1 20 21
M  V30 21 1 21 22
M  V30 22 1 22 23
M  V30 23 1 23 24
M  V30 24 1 24 25
M  V30 25 1 25 26
M  V30 26 1 19 27
M  V30 27 2 11 28
M  V30 28 1 6 4
M  V30 29 1 28 7
M  V30 30 2 27 12
M  V30 31 1 27 15
M  V30 32 1 26 21
M  V30 33 1 3 29
M  V30 34 1 4 30
M  V30 35 1 5 31
M  V30 36 1 5 32
M  V30 37 1 6 33
M  V30 38 1 6 34
M  V30 39 1 8 35
M  V30 40 1 9 36
M  V30 41 1 10 37
M  V30 42 1 13 38
M  V30 43 1 16 39
M  V30 44 1 17 40
M  V30 45 1 21 41
M  V30 46 1 22 42
M  V30 47 1 22 43
M  V30 48 1 23 44
M  V30 49 1 23 45
M  V30 50 1 25 46
M  V30 51 1 25 47
M  V30 52 1 26 48
M  V30 53 1 26 49
M  V30 54 1 28 50
M  V30 END BOND
M  V30 END CTAB
M  END
>  <Dataset>  (794) 
ChEMBL_Kinases

>  <Ligand_Instance>  (794) 
nan

>  <PDB_ID>  (794) 
nan

>  <Standardized_SMILES>  (794) 
O=C(NC1CC1)c1cccc(-c2[nH]nc3ccnc(OC4CCOCC4)c23)c1

>  <Name>  (794) 
nan

>  <Pocket>  (794) 
nan

>  <ATP_Site>  (794) 
nan

>  <Peripheral>  (794) 
nan

>  <Num_H_Atoms_ProtBoundConf>  (794) 
nan

>  <Num_Resolved_Atoms>  (794) 
nan

>  <Num_Not_Resolved_Atoms>  (794) 
nan

$$$$
CHEMBL3651796
     RDKit          3D

  0  0  0  0  0  0  0  0  0  0999 V3000
M  V30 BEGIN CTAB
M  V30 COUNTS 39 42 0 0 0
M  V30 BEGIN ATOM
M  V30 1 N -0.290068 -3.388581 4.632422 0
M  V30 2 C 0.102198 -3.398878 3.535303 0
M  V30 3 C 0.584044 -3.406660 2.182613 0
M  V30 4 C 0.496163 -4.555489 1.424937 0
M  V30 5 N 0.957069 -4.535081 0.155383 0
M  V30 6 C 1.489268 -3.370133 -0.314623 0
M  V30 7 C 1.605494 -2.173784 0.404619 0
M  V30 8 C 2.226697 -1.067698 -0.304187 0
M  V30 9 N 3.394004 -1.292610 -0.945101 0
M  V30 10 N 3.805946 -0.168185 -1.535713 0
M  V30 11 C 2.933250 0.831867 -1.309062 0
M  V30 12 C 2.762308 2.165715 -1.613930 0
M  V30 13 C 1.643931 2.865505 -1.152811 0
M  V30 14 N 0.706871 2.229513 -0.392829 0
M  V30 15 C 0.852241 0.928129 -0.082285 0
M  V30 16 O -0.167968 0.382518 0.697086 0
M  V30 17 C -1.265800 1.201826 1.106868 0
M  V30 18 C -2.520254 0.614727 0.522650 0
M  V30 19 C -2.738619 -0.774792 1.026601 0
M  V30 20 O -1.892562 -1.151723 2.029466 0
M  V30 21 C -1.638443 -0.257950 3.022406 0
M  V30 22 C -1.383764 1.157786 2.604755 0
M  V30 23 C 1.952130 0.249541 -0.537522 0
M  V30 24 C 1.124821 -2.235532 1.694708 0
M  V30 25 H 0.053095 -5.434751 1.894743 0
M  V30 26 H 1.831347 -3.443183 -1.333821 0
M  V30 27 H 4.673962 -0.022825 -2.106511 0
M  V30 28 H 3.537154 2.617373 -2.219914 0
M  V30 29 H 1.551553 3.909777 -1.416244 0
M  V30 30 H -1.072477 2.232126 0.729199 0
M  V30 31 H -3.365433 1.260622 0.901366 0
M  V30 32 H -2.461234 0.675045 -0.585483 0
M  V30 33 H -3.813004 -0.956198 1.243795 0
M  V30 34 H -2.526288 -1.464188 0.156941 0
M  V30 35 H -0.683195 -0.607379 3.519149 0
M  V30 36 H -2.378238 -0.277391 3.851450 0
M  V30 37 H -2.250686 1.770020 2.937516 0
M  V30 38 H -0.464448 1.585522 3.068819 0
M  V30 39 H 1.215897 -1.335406 2.253354 0
M  V30 END ATOM
M  V30 BEGIN BOND
M  V30 1 3 1 2
M  V30 2 1 2 3
M  V30 3 2 3 4
M  V30 4 1 4 5
M  V30 5 2 5 6
M  V30 6 1 6 7
M  V30 7 1 7 8
M  V30 8 2 8 9
M  V30 9 1 9 10
M  V30 10 1 10 11
M  V30 11 2 11 12
M  V30 12 1 12 13
M  V30 13 2 13 14
M  V30 14 1 14 15
M  V30 15 1 15 16
M  V30 16 1 16 17
M  V30 17 1 17 18
M  V30 18 1 18 19
M  V30 19 1 19 20
M  V30 20 1 20 21
M  V30 21 1 21 22
M  V30 22 2 15 23
M  V30 23 2 7 24
M  V30 24 1 24 3
M  V30 25 1 23 8
M  V30 26 1 23 11
M  V30 27 1 22 17
M  V30 28 1 4 25
M  V30 29 1 6 26
M  V30 30 1 10 27
M  V30 31 1 12 28
M  V30 32 1 13 29
M  V30 33 1 17 30
M  V30 34 1 18 31
M  V30 35 1 18 32
M  V30 36 1 19 33
M  V30 37 1 19 34
M  V30 38 1 21 35
M  V30 39 1 21 36
M  V30 40 1 22 37
M  V30 41 1 22 38
M  V30 42 1 24 39
M  V30 END BOND
M  V30 END CTAB
M  END
>  <Dataset>  (795) 
ChEMBL_Kinases

>  <Ligand_Instance>  (795) 
nan

>  <PDB_ID>  (795) 
nan

>  <Standardized_SMILES>  (795) 
N#Cc1cncc(-c2n[nH]c3ccnc(OC4CCOCC4)c23)c1

>  <Name>  (795) 
nan

>  <Pocket>  (795) 
nan

>  <ATP_Site>  (795) 
nan

>  <Peripheral>  (795) 
nan

>  <Num_H_Atoms_ProtBoundConf>  (795) 
nan

>  <Num_Resolved_Atoms>  (795) 
nan

>  <Num_Not_Resolved_Atoms>  (795) 
nan

$$$$
CHEMBL3651797
     RDKit          3D

  0  0  0  0  0  0  0  0  0  0999 V3000
M  V30 BEGIN CTAB
M  V30 COUNTS 43 47 0 0 0
M  V30 BEGIN ATOM
M  V30 1 C -1.468576 -2.023920 2.468972 0
M  V30 2 C -0.707671 -2.088775 1.313496 0
M  V30 3 C 0.686085 -2.214364 1.360771 0
M  V30 4 C 1.508047 -2.295950 0.160390 0
M  V30 5 N 2.365139 -3.312087 -0.112443 0
M  V30 6 N 2.977995 -3.122412 -1.268370 0
M  V30 7 C 2.559860 -1.965208 -1.828652 0
M  V30 8 C 2.851570 -1.281646 -2.998165 0
M  V30 9 C 2.190588 -0.090005 -3.211837 0
M  V30 10 N 1.299818 0.398107 -2.330521 0
M  V30 11 C 1.004688 -0.251125 -1.191867 0
M  V30 12 O 0.099198 0.270925 -0.321979 0
M  V30 13 C -0.628627 1.445623 -0.420662 0
M  V30 14 C -0.247684 2.496463 0.599066 0
M  V30 15 C -0.627794 2.144786 2.001970 0
M  V30 16 O -1.607728 1.173304 1.979664 0
M  V30 17 C -2.588630 1.524145 1.083052 0
M  V30 18 C -2.109723 1.280458 -0.353874 0
M  V30 19 C 1.628213 -1.449295 -0.914486 0
M  V30 20 C 1.230616 -2.267108 2.628092 0
M  V30 21 C 2.533101 -2.383406 3.048912 0
M  V30 22 C 2.530262 -2.385315 4.430737 0
M  V30 23 N 1.264396 -2.274031 4.871331 0
M  V30 24 C 0.492610 -2.203992 3.782232 0
M  V30 25 C -0.896779 -2.078951 3.702377 0
M  V30 26 H -2.529267 -1.929183 2.412524 0
M  V30 27 H -1.204464 -2.042517 0.368072 0
M  V30 28 H 3.682480 -3.778423 -1.680924 0
M  V30 29 H 3.581364 -1.715566 -3.687540 0
M  V30 30 H 2.462186 0.393546 -4.146092 0
M  V30 31 H -0.383225 1.916662 -1.414885 0
M  V30 32 H -0.890096 3.388111 0.330183 0
M  V30 33 H 0.789454 2.837370 0.518590 0
M  V30 34 H -1.038984 3.016731 2.572145 0
M  V30 35 H 0.262204 1.827480 2.613549 0
M  V30 36 H -3.522306 0.920653 1.281727 0
M  V30 37 H -2.886134 2.605953 1.153240 0
M  V30 38 H -2.448585 0.296735 -0.739554 0
M  V30 39 H -2.604396 2.041293 -1.011741 0
M  V30 40 H 3.406095 -2.458268 2.386929 0
M  V30 41 H 3.458865 -2.466952 4.989019 0
M  V30 42 H 1.015681 -2.252601 5.876532 0
M  V30 43 H -1.514881 -2.026623 4.588807 0
M  V30 END ATOM
M  V30 BEGIN BOND
M  V30 1 2 1 2
M  V30 2 1 2 3
M  V30 3 1 3 4
M  V30 4 2 4 5
M  V30 5 1 5 6
M  V30 6 1 6 7
M  V30 7 2 7 8
M  V30 8 1 8 9
M  V30 9 2 9 10
M  V30 10 1 10 11
M  V30 11 1 11 12
M  V30 12 1 12 13
M  V30 13 1 13 14
M  V30 14 1 14 15
M  V30 15 1 15 16
M  V30 16 1 16 17
M  V30 17 1 17 18
M  V30 18 2 11 19
M  V30 19 2 3 20
M  V30 20 1 20 21
M  V30 21 2 21 22
M  V30 22 1 22 23
M  V30 23 1 23 24
M  V30 24 2 24 25
M  V30 25 1 25 1
M  V30 26 1 19 4
M  V30 27 1 24 20
M  V30 28 1 19 7
M  V30 29 1 18 13
M  V30 30 1 1 26
M  V30 31 1 2 27
M  V30 32 1 6 28
M  V30 33 1 8 29
M  V30 34 1 9 30
M  V30 35 1 13 31
M  V30 36 1 14 32
M  V30 37 1 14 33
M  V30 38 1 15 34
M  V30 39 1 15 35
M  V30 40 1 17 36
M  V30 41 1 17 37
M  V30 42 1 18 38
M  V30 43 1 18 39
M  V30 44 1 21 40
M  V30 45 1 22 41
M  V30 46 1 23 42
M  V30 47 1 25 43
M  V30 END BOND
M  V30 END CTAB
M  END
>  <Dataset>  (796) 
ChEMBL_Kinases

>  <Ligand_Instance>  (796) 
nan

>  <PDB_ID>  (796) 
nan

>  <Standardized_SMILES>  (796) 
c1cc(-c2n[nH]c3ccnc(OC4CCOCC4)c23)c2cc[nH]c2c1

>  <Name>  (796) 
nan

>  <Pocket>  (796) 
nan

>  <ATP_Site>  (796) 
nan

>  <Peripheral>  (796) 
nan

>  <Num_H_Atoms_ProtBoundConf>  (796) 
nan

>  <Num_Resolved_Atoms>  (796) 
nan

>  <Num_Not_Resolved_Atoms>  (796) 
nan

$$$$
CHEMBL3651798
     RDKit          3D

  0  0  0  0  0  0  0  0  0  0999 V3000
M  V30 BEGIN CTAB
M  V30 COUNTS 55 59 0 0 0
M  V30 BEGIN ATOM
M  V30 1 C -0.096149 -2.215771 1.896893 0
M  V30 2 C 1.111678 -2.049459 2.530140 0
M  V30 3 C 1.946158 -1.020671 2.166416 0
M  V30 4 C 3.217044 -0.903002 2.882113 0
M  V30 5 N 3.204541 -0.107242 4.058557 0
M  V30 6 C 2.319625 -0.542002 5.079549 0
M  V30 7 C 2.240427 0.344662 6.269486 0
M  V30 8 O 2.231664 1.697871 5.987071 0
M  V30 9 C 3.223770 2.098189 5.127286 0
M  V30 10 C 3.346955 1.293774 3.876806 0
M  V30 11 C 1.518304 -0.186466 1.157278 0
M  V30 12 C 0.310303 -0.272538 0.451384 0
M  V30 13 C 0.095116 0.761748 -0.510876 0
M  V30 14 N 0.731896 1.966765 -0.433097 0
M  V30 15 N 0.411757 2.746202 -1.437448 0
M  V30 16 C -0.449109 2.141898 -2.260752 0
M  V30 17 C -1.084118 2.461977 -3.439932 0
M  V30 18 C -1.909256 1.536678 -4.035519 0
M  V30 19 N -2.072196 0.342852 -3.448786 0
M  V30 20 C -1.447959 0.052604 -2.305075 0
M  V30 21 O -1.714279 -1.207759 -1.842931 0
M  V30 22 C -2.548969 -2.129147 -2.472148 0
M  V30 23 C -3.762844 -2.500999 -1.640971 0
M  V30 24 C -4.774692 -3.074232 -2.622646 0
M  V30 25 O -4.124403 -3.795867 -3.617834 0
M  V30 26 C -2.963700 -4.430357 -3.152680 0
M  V30 27 C -1.862619 -3.391852 -2.925305 0
M  V30 28 C -0.622533 0.918556 -1.661153 0
M  V30 29 C -0.412185 -1.321997 0.908925 0
M  V30 30 H -0.747943 -3.005727 2.170070 0
M  V30 31 H 1.393221 -2.735470 3.312434 0
M  V30 32 H 3.575843 -1.927161 3.187675 0
M  V30 33 H 4.008880 -0.511924 2.193267 0
M  V30 34 H 2.655467 -1.553836 5.410691 0
M  V30 35 H 1.315426 -0.711128 4.596552 0
M  V30 36 H 1.234290 0.145342 6.740712 0
M  V30 37 H 2.970926 0.085167 7.063063 0
M  V30 38 H 2.958849 3.140496 4.810212 0
M  V30 39 H 4.200854 2.235371 5.676648 0
M  V30 40 H 2.689215 1.652606 3.065654 0
M  V30 41 H 4.393738 1.462438 3.488862 0
M  V30 42 H 2.278489 0.591495 0.961319 0
M  V30 43 H 1.416428 2.393283 0.255906 0
M  V30 44 H -0.924374 3.444187 -3.885564 0
M  V30 45 H -2.386402 1.854509 -4.974262 0
M  V30 46 H -2.937749 -1.641544 -3.391184 0
M  V30 47 H -4.161333 -1.520984 -1.263718 0
M  V30 48 H -3.533505 -3.192130 -0.819403 0
M  V30 49 H -5.561259 -3.669368 -2.148333 0
M  V30 50 H -5.257071 -2.204326 -3.152118 0
M  V30 51 H -2.672582 -5.139990 -3.950551 0
M  V30 52 H -3.137975 -4.908331 -2.167079 0
M  V30 53 H -1.104460 -3.753792 -2.225695 0
M  V30 54 H -1.403818 -3.214712 -3.923707 0
M  V30 55 H -1.382298 -1.469820 0.491044 0
M  V30 END ATOM
M  V30 BEGIN BOND
M  V30 1 2 1 2
M  V30 2 1 2 3
M  V30 3 1 3 4
M  V30 4 1 4 5
M  V30 5 1 5 6
M  V30 6 1 6 7
M  V30 7 1 7 8
M  V30 8 1 8 9
M  V30 9 1 9 10
M  V30 10 2 3 11
M  V30 11 1 11 12
M  V30 12 1 12 13
M  V30 13 1 13 14
M  V30 14 1 14 15
M  V30 15 2 15 16
M  V30 16 1 16 17
M  V30 17 2 17 18
M  V30 18 1 18 19
M  V30 19 2 19 20
M  V30 20 1 20 21
M  V30 21 1 21 22
M  V30 22 1 22 23
M  V30 23 1 23 24
M  V30 24 1 24 25
M  V30 25 1 25 26
M  V30 26 1 26 27
M  V30 27 1 20 28
M  V30 28 2 12 29
M  V30 29 1 29 1
M  V30 30 1 10 5
M  V30 31 2 28 13
M  V30 32 1 28 16
M  V30 33 1 27 22
M  V30 34 1 1 30
M  V30 35 1 2 31
M  V30 36 1 4 32
M  V30 37 1 4 33
M  V30 38 1 6 34
M  V30 39 1 6 35
M  V30 40 1 7 36
M  V30 41 1 7 37
M  V30 42 1 9 38
M  V30 43 1 9 39
M  V30 44 1 10 40
M  V30 45 1 10 41
M  V30 46 1 11 42
M  V30 47 1 14 43
M  V30 48 1 17 44
M  V30 49 1 18 45
M  V30 50 1 22 46
M  V30 51 1 23 47
M  V30 52 1 23 48
M  V30 53 1 24 49
M  V30 54 1 24 50
M  V30 55 1 26 51
M  V30 56 1 26 52
M  V30 57 1 27 53
M  V30 58 1 27 54
M  V30 59 1 29 55
M  V30 END BOND
M  V30 END CTAB
M  END
>  <Dataset>  (797) 
ChEMBL_Kinases

>  <Ligand_Instance>  (797) 
nan

>  <PDB_ID>  (797) 
nan

>  <Standardized_SMILES>  (797) 
c1cc(CN2CCOCC2)cc(-c2[nH]nc3ccnc(OC4CCOCC4)c23)c1

>  <Name>  (797) 
nan

>  <Pocket>  (797) 
nan

>  <ATP_Site>  (797) 
nan

>  <Peripheral>  (797) 
nan

>  <Num_H_Atoms_ProtBoundConf>  (797) 
nan

>  <Num_Resolved_Atoms>  (797) 
nan

>  <Num_Not_Resolved_Atoms>  (797) 
nan

$$$$
CHEMBL3651808
     RDKit          3D

  0  0  0  0  0  0  0  0  0  0999 V3000
M  V30 BEGIN CTAB
M  V30 COUNTS 39 42 0 0 0
M  V30 BEGIN ATOM
M  V30 1 N 0.402545 -5.774814 4.698249 0
M  V30 2 C 0.335919 -4.674580 4.312188 0
M  V30 3 C 0.278830 -3.315704 3.833972 0
M  V30 4 C 1.301271 -2.727352 3.096287 0
M  V30 5 C 1.173218 -1.399811 2.664438 0
M  V30 6 C 2.280755 -0.833317 1.935284 0
M  V30 7 N 3.516005 -0.963913 2.460041 0
M  V30 8 N 4.414420 -0.378626 1.668343 0
M  V30 9 C 3.749445 0.140841 0.609822 0
M  V30 10 C 4.056908 0.846421 -0.532699 0
M  V30 11 C 3.062475 1.213858 -1.411403 0
M  V30 12 N 1.775776 0.905924 -1.197248 0
M  V30 13 C 1.412302 0.207040 -0.080661 0
M  V30 14 O 0.158684 0.024401 -0.082231 0
M  V30 15 C -1.141130 -0.165000 -0.083806 0
M  V30 16 C -1.975932 1.120610 0.161625 0
M  V30 17 C -3.373646 0.775339 -0.287885 0
M  V30 18 O -3.448267 0.831616 -1.696420 0
M  V30 19 C -2.224640 0.421893 -2.237193 0
M  V30 20 C -1.727919 -0.719970 -1.382736 0
M  V30 21 C 2.416579 -0.145569 0.778410 0
M  V30 22 C -0.008258 -0.814944 3.043877 0
M  V30 23 C -1.026940 -1.384824 3.772633 0
M  V30 24 N -0.853190 -2.658952 4.161362 0
M  V30 25 H 2.161711 -3.356814 2.896230 0
M  V30 26 H 5.453939 -0.268098 1.730003 0
M  V30 27 H 5.114207 1.067225 -0.654253 0
M  V30 28 H 3.493709 1.766779 -2.259191 0
M  V30 29 H -1.515602 -0.877551 0.712236 0
M  V30 30 H -1.519066 1.963667 -0.375421 0
M  V30 31 H -2.008922 1.337477 1.254579 0
M  V30 32 H -3.597611 -0.242120 0.090860 0
M  V30 33 H -4.132001 1.489925 0.090468 0
M  V30 34 H -1.511103 1.244076 -2.276586 0
M  V30 35 H -2.393821 -0.004258 -3.263074 0
M  V30 36 H -0.947587 -1.273085 -1.950570 0
M  V30 37 H -2.540044 -1.435022 -1.165980 0
M  V30 38 H -0.115990 0.227483 2.708123 0
M  V30 39 H -1.910066 -0.811056 4.004440 0
M  V30 END ATOM
M  V30 BEGIN BOND
M  V30 1 3 1 2
M  V30 2 1 2 3
M  V30 3 2 3 4
M  V30 4 1 4 5
M  V30 5 1 5 6
M  V30 6 2 6 7
M  V30 7 1 7 8
M  V30 8 1 8 9
M  V30 9 2 9 10
M  V30 10 1 10 11
M  V30 11 2 11 12
M  V30 12 1 12 13
M  V30 13 1 13 14
M  V30 14 1 14 15
M  V30 15 1 15 16
M  V30 16 1 16 17
M  V30 17 1 17 18
M  V30 18 1 18 19
M  V30 19 1 19 20
M  V30 20 2 13 21
M  V30 21 2 5 22
M  V30 22 1 22 23
M  V30 23 2 23 24
M  V30 24 1 24 3
M  V30 25 1 21 6
M  V30 26 1 21 9
M  V30 27 1 20 15
M  V30 28 1 4 25
M  V30 29 1 8 26
M  V30 30 1 10 27
M  V30 31 1 11 28
M  V30 32 1 15 29
M  V30 33 1 16 30
M  V30 34 1 16 31
M  V30 35 1 17 32
M  V30 36 1 17 33
M  V30 37 1 19 34
M  V30 38 1 19 35
M  V30 39 1 20 36
M  V30 40 1 20 37
M  V30 41 1 22 38
M  V30 42 1 23 39
M  V30 END BOND
M  V30 END CTAB
M  END
>  <Dataset>  (798) 
ChEMBL_Kinases

>  <Ligand_Instance>  (798) 
nan

>  <PDB_ID>  (798) 
nan

>  <Standardized_SMILES>  (798) 
N#Cc1cc(-c2n[nH]c3ccnc(OC4CCOCC4)c23)ccn1

>  <Name>  (798) 
nan

>  <Pocket>  (798) 
nan

>  <ATP_Site>  (798) 
nan

>  <Peripheral>  (798) 
nan

>  <Num_H_Atoms_ProtBoundConf>  (798) 
nan

>  <Num_Resolved_Atoms>  (798) 
nan

>  <Num_Not_Resolved_Atoms>  (798) 
nan

$$$$
CHEMBL3651800
     RDKit          3D

  0  0  0  0  0  0  0  0  0  0999 V3000
M  V30 BEGIN CTAB
M  V30 COUNTS 40 43 0 0 0
M  V30 BEGIN ATOM
M  V30 1 C 0.454956 -4.684443 4.166656 0
M  V30 2 C 0.716389 -3.799434 3.118926 0
M  V30 3 C -0.188460 -2.905113 2.598579 0
M  V30 4 N 0.152041 -2.056475 1.520687 0
M  V30 5 C 0.985473 -2.270417 0.415879 0
M  V30 6 N 1.583668 -3.414350 0.058232 0
M  V30 7 N 2.294564 -3.233607 -1.045114 0
M  V30 8 C 2.161863 -1.935971 -1.425516 0
M  V30 9 C 2.658575 -1.218326 -2.462908 0
M  V30 10 C 2.340591 0.095517 -2.588895 0
M  V30 11 N 1.548193 0.634453 -1.682636 0
M  V30 12 C 1.012794 -0.002480 -0.624535 0
M  V30 13 O 0.285605 0.759814 0.092361 0
M  V30 14 C -0.465921 1.520185 0.846742 0
M  V30 15 C -1.688057 2.006205 0.039157 0
M  V30 16 C -1.202075 2.833856 -1.082174 0
M  V30 17 O 0.073579 3.299702 -1.036760 0
M  V30 18 C 0.597178 3.664567 0.164220 0
M  V30 19 C 0.189290 2.835926 1.333592 0
M  V30 20 C 1.344140 -1.328960 -0.513940 0
M  V30 21 C -1.433783 -2.951338 3.220100 0
M  V30 22 C -1.696627 -3.832519 4.265032 0
M  V30 23 N -0.765913 -4.677994 4.722589 0
M  V30 24 H 1.157070 -5.373275 4.566852 0
M  V30 25 H 1.726737 -3.896712 2.772523 0
M  V30 26 H -0.354413 -1.177747 1.691985 0
M  V30 27 H 1.568651 -4.356746 0.483769 0
M  V30 28 H 3.296180 -1.748409 -3.150007 0
M  V30 29 H 2.793016 0.573523 -3.460945 0
M  V30 30 H -0.887715 1.041615 1.792626 0
M  V30 31 H -2.194572 1.084224 -0.300739 0
M  V30 32 H -2.368586 2.514471 0.743229 0
M  V30 33 H -1.257379 2.180539 -2.007553 0
M  V30 34 H -1.958845 3.641290 -1.322850 0
M  V30 35 H 0.498093 4.768858 0.376849 0
M  V30 36 H 1.712435 3.528210 0.068336 0
M  V30 37 H 1.003920 2.623863 2.063262 0
M  V30 38 H -0.621362 3.381609 1.858653 0
M  V30 39 H -2.167931 -2.242980 2.812556 0
M  V30 40 H -2.699883 -3.729574 4.617009 0
M  V30 END ATOM
M  V30 BEGIN BOND
M  V30 1 2 1 2
M  V30 2 1 2 3
M  V30 3 1 3 4
M  V30 4 1 4 5
M  V30 5 1 5 6
M  V30 6 1 6 7
M  V30 7 2 7 8
M  V30 8 1 8 9
M  V30 9 2 9 10
M  V30 10 1 10 11
M  V30 11 2 11 12
M  V30 12 1 12 13
M  V30 13 1 13 14
M  V30 14 1 14 15
M  V30 15 1 15 16
M  V30 16 1 16 17
M  V30 17 1 17 18
M  V30 18 1 18 19
M  V30 19 1 12 20
M  V30 20 2 3 21
M  V30 21 1 21 22
M  V30 22 2 22 23
M  V30 23 1 23 1
M  V30 24 2 20 5
M  V30 25 1 20 8
M  V30 26 1 19 14
M  V30 27 1 1 24
M  V30 28 1 2 25
M  V30 29 1 4 26
M  V30 30 1 6 27
M  V30 31 1 9 28
M  V30 32 1 10 29
M  V30 33 1 14 30
M  V30 34 1 15 31
M  V30 35 1 15 32
M  V30 36 1 16 33
M  V30 37 1 16 34
M  V30 38 1 18 35
M  V30 39 1 18 36
M  V30 40 1 19 37
M  V30 41 1 19 38
M  V30 42 1 21 39
M  V30 43 1 22 40
M  V30 END BOND
M  V30 END CTAB
M  END
>  <Dataset>  (799) 
ChEMBL_Kinases

>  <Ligand_Instance>  (799) 
nan

>  <PDB_ID>  (799) 
nan

>  <Standardized_SMILES>  (799) 
c1cc(Nc2[nH]nc3ccnc(OC4CCOCC4)c23)ccn1

>  <Name>  (799) 
nan

>  <Pocket>  (799) 
nan

>  <ATP_Site>  (799) 
nan

>  <Peripheral>  (799) 
nan

>  <Num_H_Atoms_ProtBoundConf>  (799) 
nan

>  <Num_Resolved_Atoms>  (799) 
nan

>  <Num_Not_Resolved_Atoms>  (799) 
nan

$$$$
CHEMBL3651801
     RDKit          3D

  0  0  0  0  0  0  0  0  0  0999 V3000
M  V30 BEGIN CTAB
M  V30 COUNTS 47 50 0 0 0
M  V30 BEGIN ATOM
M  V30 1 C 0.434673 -5.795681 0.428072 0
M  V30 2 C -0.257938 -4.665698 1.161866 0
M  V30 3 C -1.740978 -4.696482 0.865948 0
M  V30 4 N 0.318230 -3.427856 0.681548 0
M  V30 5 C -0.037590 -2.425872 -0.129318 0
M  V30 6 C 0.962434 -1.479819 -0.213451 0
M  V30 7 N 0.921908 -0.275674 -0.997123 0
M  V30 8 C 2.089783 0.546652 -0.853473 0
M  V30 9 N 3.257308 0.479573 -1.531239 0
M  V30 10 N 4.047780 1.446051 -1.045856 0
M  V30 11 C 3.385549 2.108041 -0.079566 0
M  V30 12 C 3.754408 3.184343 0.730178 0
M  V30 13 C 2.869674 3.685435 1.662597 0
M  V30 14 N 1.629656 3.132915 1.799035 0
M  V30 15 C 1.249245 2.090135 1.026574 0
M  V30 16 O 0.001090 1.535085 1.163021 0
M  V30 17 C -0.982602 1.943117 2.059181 0
M  V30 18 C -1.507378 0.822513 2.893409 0
M  V30 19 C -2.523633 -0.026142 2.156290 0
M  V30 20 O -3.525246 0.719363 1.567654 0
M  V30 21 C -2.921669 1.507954 0.564727 0
M  V30 22 C -2.148917 2.574033 1.306128 0
M  V30 23 C 2.115010 1.569609 0.086818 0
M  V30 24 C 1.951008 -1.974702 0.601961 0
M  V30 25 N 1.533867 -3.149625 1.127181 0
M  V30 26 H -0.177858 -6.110119 -0.447203 0
M  V30 27 H 1.427857 -5.504501 0.034249 0
M  V30 28 H 0.569637 -6.631462 1.158151 0
M  V30 29 H -0.147318 -4.763804 2.263956 0
M  V30 30 H -2.325392 -4.154060 1.631889 0
M  V30 31 H -1.885328 -4.239686 -0.134815 0
M  V30 32 H -2.058116 -5.776460 0.777058 0
M  V30 33 H -0.993289 -2.459308 -0.596073 0
M  V30 34 H 0.086948 -0.091782 -1.586142 0
M  V30 35 H 3.412426 -0.244212 -2.290341 0
M  V30 36 H 4.752265 3.585219 0.580934 0
M  V30 37 H 3.171153 4.520062 2.285191 0
M  V30 38 H -0.615568 2.757172 2.735544 0
M  V30 39 H -0.728758 0.135272 3.266866 0
M  V30 40 H -2.040948 1.258651 3.772477 0
M  V30 41 H -2.959069 -0.719310 2.901458 0
M  V30 42 H -2.074017 -0.653784 1.363572 0
M  V30 43 H -3.696256 1.985454 -0.057679 0
M  V30 44 H -2.242434 0.839199 0.009017 0
M  V30 45 H -1.809854 3.342142 0.609812 0
M  V30 46 H -2.846419 3.015862 2.049252 0
M  V30 47 H 2.894749 -1.462083 0.762262 0
M  V30 END ATOM
M  V30 BEGIN BOND
M  V30 1 1 1 2
M  V30 2 1 2 3
M  V30 3 1 2 4
M  V30 4 1 4 5
M  V30 5 2 5 6
M  V30 6 1 6 7
M  V30 7 1 7 8
M  V30 8 1 8 9
M  V30 9 1 9 10
M  V30 10 2 10 11
M  V30 11 1 11 12
M  V30 12 2 12 13
M  V30 13 1 13 14
M  V30 14 2 14 15
M  V30 15 1 15 16
M  V30 16 1 16 17
M  V30 17 1 17 18
M  V30 18 1 18 19
M  V30 19 1 19 20
M  V30 20 1 20 21
M  V30 21 1 21 22
M  V30 22 1 15 23
M  V30 23 1 6 24
M  V30 24 2 24 25
M  V30 25 1 25 4
M  V30 26 2 23 8
M  V30 27 1 23 11
M  V30 28 1 22 17
M  V30 29 1 1 26
M  V30 30 1 1 27
M  V30 31 1 1 28
M  V30 32 1 2 29
M  V30 33 1 3 30
M  V30 34 1 3 31
M  V30 35 1 3 32
M  V30 36 1 5 33
M  V30 37 1 7 34
M  V30 38 1 9 35
M  V30 39 1 12 36
M  V30 40 1 13 37
M  V30 41 1 17 38
M  V30 42 1 18 39
M  V30 43 1 18 40
M  V30 44 1 19 41
M  V30 45 1 19 42
M  V30 46 1 21 43
M  V30 47 1 21 44
M  V30 48 1 22 45
M  V30 49 1 22 46
M  V30 50 1 24 47
M  V30 END BOND
M  V30 END CTAB
M  END
>  <Dataset>  (800) 
ChEMBL_Kinases

>  <Ligand_Instance>  (800) 
nan

>  <PDB_ID>  (800) 
nan

>  <Standardized_SMILES>  (800) 
CC(C)n1cc(Nc2[nH]nc3ccnc(OC4CCOCC4)c23)cn1

>  <Name>  (800) 
nan

>  <Pocket>  (800) 
nan

>  <ATP_Site>  (800) 
nan

>  <Peripheral>  (800) 
nan

>  <Num_H_Atoms_ProtBoundConf>  (800) 
nan

>  <Num_Resolved_Atoms>  (800) 
nan

>  <Num_Not_Resolved_Atoms>  (800) 
nan

$$$$
CHEMBL3651802
     RDKit          3D

  0  0  0  0  0  0  0  0  0  0999 V3000
M  V30 BEGIN CTAB
M  V30 COUNTS 45 48 0 0 0
M  V30 BEGIN ATOM
M  V30 1 C 3.924055 -0.729388 -1.313054 0
M  V30 2 S 2.522574 -1.544518 -1.980442 0
M  V30 3 O 2.203547 -2.710855 -1.048646 0
M  V30 4 O 2.869690 -2.166540 -3.317376 0
M  V30 5 C 1.099141 -0.582919 -2.090775 0
M  V30 6 C 0.960693 0.207916 -3.210431 0
M  V30 7 C -0.172664 0.975612 -3.331627 0
M  V30 8 C -1.112382 0.917886 -2.330694 0
M  V30 9 C -1.033396 0.135918 -1.165369 0
M  V30 10 C -2.186663 0.201933 -0.327176 0
M  V30 11 N -3.413400 0.573210 -0.802547 0
M  V30 12 N -4.322911 0.582159 0.148236 0
M  V30 13 C -3.781112 0.223637 1.322624 0
M  V30 14 C -4.295586 0.101663 2.573508 0
M  V30 15 C -3.400200 -0.271100 3.551400 0
M  V30 16 N -2.095617 -0.497450 3.272524 0
M  V30 17 C -1.658288 -0.360874 2.028625 0
M  V30 18 O -0.318007 -0.604492 1.859589 0
M  V30 19 C 0.492739 -0.993189 2.951558 0
M  V30 20 C 1.405151 0.111035 3.438342 0
M  V30 21 C 2.815780 -0.089918 2.917198 0
M  V30 22 O 3.399616 -1.255900 3.386728 0
M  V30 23 C 2.445198 -2.199298 3.756611 0
M  V30 24 C 1.296482 -2.225539 2.734789 0
M  V30 25 C -2.469741 0.000679 0.992497 0
M  V30 26 C 0.101087 -0.571554 -1.143482 0
M  V30 27 H 4.360989 0.001399 -2.049798 0
M  V30 28 H 4.705736 -1.479327 -1.119374 0
M  V30 29 H 3.659269 -0.258374 -0.368559 0
M  V30 30 H 1.697351 0.243181 -3.977444 0
M  V30 31 H -0.282442 1.592946 -4.205055 0
M  V30 32 H -1.970580 1.579016 -2.549743 0
M  V30 33 H -3.737929 0.845657 -1.782283 0
M  V30 34 H -5.320901 0.277529 2.806278 0
M  V30 35 H -3.813507 -0.373540 4.563561 0
M  V30 36 H -0.206688 -1.179956 3.810503 0
M  V30 37 H 1.432479 0.129178 4.561207 0
M  V30 38 H 1.080892 1.120386 3.140154 0
M  V30 39 H 3.440041 0.742577 3.332221 0
M  V30 40 H 2.843312 0.015895 1.833134 0
M  V30 41 H 1.969466 -1.985983 4.735225 0
M  V30 42 H 2.896073 -3.214001 3.833327 0
M  V30 43 H 1.756370 -2.238659 1.703399 0
M  V30 44 H 0.757312 -3.178738 2.939487 0
M  V30 45 H 0.285803 -1.240302 -0.358705 0
M  V30 END ATOM
M  V30 BEGIN BOND
M  V30 1 1 1 2
M  V30 2 2 2 3
M  V30 3 2 2 4
M  V30 4 1 2 5
M  V30 5 2 5 6
M  V30 6 1 6 7
M  V30 7 2 7 8
M  V30 8 1 8 9
M  V30 9 1 9 10
M  V30 10 1 10 11
M  V30 11 1 11 12
M  V30 12 2 12 13
M  V30 13 1 13 14
M  V30 14 2 14 15
M  V30 15 1 15 16
M  V30 16 2 16 17
M  V30 17 1 17 18
M  V30 18 1 18 19
M  V30 19 1 19 20
M  V30 20 1 20 21
M  V30 21 1 21 22
M  V30 22 1 22 23
M  V30 23 1 23 24
M  V30 24 1 17 25
M  V30 25 2 9 26
M  V30 26 1 26 5
M  V30 27 2 25 10
M  V30 28 1 25 13
M  V30 29 1 24 19
M  V30 30 1 1 27
M  V30 31 1 1 28
M  V30 32 1 1 29
M  V30 33 1 6 30
M  V30 34 1 7 31
M  V30 35 1 8 32
M  V30 36 1 11 33
M  V30 37 1 14 34
M  V30 38 1 15 35
M  V30 39 1 19 36
M  V30 40 1 20 37
M  V30 41 1 20 38
M  V30 42 1 21 39
M  V30 43 1 21 40
M  V30 44 1 23 41
M  V30 45 1 23 42
M  V30 46 1 24 43
M  V30 47 1 24 44
M  V30 48 1 26 45
M  V30 END BOND
M  V30 END CTAB
M  END
>  <Dataset>  (801) 
ChEMBL_Kinases

>  <Ligand_Instance>  (801) 
nan

>  <PDB_ID>  (801) 
nan

>  <Standardized_SMILES>  (801) 
CS(=O)(=O)c1cccc(-c2[nH]nc3ccnc(OC4CCOCC4)c23)c1

>  <Name>  (801) 
nan

>  <Pocket>  (801) 
nan

>  <ATP_Site>  (801) 
nan

>  <Peripheral>  (801) 
nan

>  <Num_H_Atoms_ProtBoundConf>  (801) 
nan

>  <Num_Resolved_Atoms>  (801) 
nan

>  <Num_Not_Resolved_Atoms>  (801) 
nan

$$$$
CHEMBL3651803
     RDKit          3D

  0  0  0  0  0  0  0  0  0  0999 V3000
M  V30 BEGIN CTAB
M  V30 COUNTS 34 36 0 0 0
M  V30 BEGIN ATOM
M  V30 1 C -1.653629 -2.354810 2.500605 0
M  V30 2 O -0.594052 -1.929093 1.680936 0
M  V30 3 C 0.532519 -2.652420 1.474829 0
M  V30 4 N 0.602013 -3.828491 2.109588 0
M  V30 5 C 1.663165 -4.641324 1.999597 0
M  V30 6 C 2.723258 -4.258434 1.207351 0
M  V30 7 C 2.630622 -3.046925 0.564501 0
M  V30 8 N 3.454763 -2.361970 -0.238640 0
M  V30 9 N 2.923536 -1.216032 -0.590453 0
M  V30 10 C 1.683871 -1.063357 -0.032483 0
M  V30 11 C 0.919229 0.130442 -0.244398 0
M  V30 12 C 1.655493 1.268918 -0.599925 0
M  V30 13 C 1.137339 2.507516 -0.900061 0
M  V30 14 C -0.224219 2.671803 -0.855406 0
M  V30 15 C -1.024086 1.606452 -0.517006 0
M  V30 16 S -2.761127 1.769372 -0.448890 0
M  V30 17 C -3.346538 2.254657 1.141570 0
M  V30 18 O -3.270539 2.692705 -1.544988 0
M  V30 19 O -3.355479 0.412923 -0.787639 0
M  V30 20 C -0.409617 0.416797 -0.237060 0
M  V30 21 C 1.537036 -2.220107 0.681497 0
M  V30 22 H -2.563991 -1.756260 2.386145 0
M  V30 23 H -1.916981 -3.408408 2.214967 0
M  V30 24 H -1.350840 -2.422095 3.567733 0
M  V30 25 H 1.720326 -5.602370 2.517480 0
M  V30 26 H 3.609351 -4.874774 1.080718 0
M  V30 27 H 3.488048 -0.590905 -1.224428 0
M  V30 28 H 2.755615 1.272268 -0.671035 0
M  V30 29 H 1.737182 3.361287 -1.168762 0
M  V30 30 H -0.646265 3.634570 -1.086215 0
M  V30 31 H -3.798902 1.375418 1.669218 0
M  V30 32 H -4.191069 2.979472 1.045476 0
M  V30 33 H -2.583626 2.695085 1.798759 0
M  V30 34 H -1.084014 -0.365395 -0.035337 0
M  V30 END ATOM
M  V30 BEGIN BOND
M  V30 1 1 1 2
M  V30 2 1 2 3
M  V30 3 2 3 4
M  V30 4 1 4 5
M  V30 5 2 5 6
M  V30 6 1 6 7
M  V30 7 2 7 8
M  V30 8 1 8 9
M  V30 9 1 9 10
M  V30 10 1 10 11
M  V30 11 2 11 12
M  V30 12 1 12 13
M  V30 13 2 13 14
M  V30 14 1 14 15
M  V30 15 1 15 16
M  V30 16 1 16 17
M  V30 17 2 16 18
M  V30 18 2 16 19
M  V30 19 2 15 20
M  V30 20 2 10 21
M  V30 21 1 21 3
M  V30 22 1 21 7
M  V30 23 1 20 11
M  V30 24 1 1 22
M  V30 25 1 1 23
M  V30 26 1 1 24
M  V30 27 1 5 25
M  V30 28 1 6 26
M  V30 29 1 9 27
M  V30 30 1 12 28
M  V30 31 1 13 29
M  V30 32 1 14 30
M  V30 33 1 17 31
M  V30 34 1 17 32
M  V30 35 1 17 33
M  V30 36 1 20 34
M  V30 END BOND
M  V30 END CTAB
M  END
>  <Dataset>  (802) 
ChEMBL_Kinases

>  <Ligand_Instance>  (802) 
nan

>  <PDB_ID>  (802) 
nan

>  <Standardized_SMILES>  (802) 
COc1nccc2n[nH]c(-c3cccc(S(C)(=O)=O)c3)c12

>  <Name>  (802) 
nan

>  <Pocket>  (802) 
nan

>  <ATP_Site>  (802) 
nan

>  <Peripheral>  (802) 
nan

>  <Num_H_Atoms_ProtBoundConf>  (802) 
nan

>  <Num_Resolved_Atoms>  (802) 
nan

>  <Num_Not_Resolved_Atoms>  (802) 
nan

$$$$
CHEMBL3651804
     RDKit          3D

  0  0  0  0  0  0  0  0  0  0999 V3000
M  V30 BEGIN CTAB
M  V30 COUNTS 45 48 0 0 0
M  V30 BEGIN ATOM
M  V30 1 C 0.565813 -4.972202 1.127878 0
M  V30 2 C 1.941645 -4.491186 1.554744 0
M  V30 3 C 1.889679 -4.067182 3.003908 0
M  V30 4 C 2.449846 -3.419022 0.658562 0
M  V30 5 N 1.814786 -2.283116 0.552857 0
M  V30 6 C 2.375882 -1.438141 -0.268917 0
M  V30 7 C 2.410213 -0.117366 -0.947052 0
M  V30 8 N 3.293690 0.423235 -1.850298 0
M  V30 9 N 2.952685 1.624123 -2.195140 0
M  V30 10 C 1.829218 1.991079 -1.565315 0
M  V30 11 C 1.167767 3.188469 -1.675458 0
M  V30 12 C 0.030563 3.298953 -0.907644 0
M  V30 13 N -0.318556 2.255306 -0.142645 0
M  V30 14 C 0.356636 1.095286 -0.060934 0
M  V30 15 N -0.200097 0.132973 0.814588 0
M  V30 16 C -1.384807 0.412803 1.553051 0
M  V30 17 C -1.259967 1.603913 2.501849 0
M  V30 18 C -2.681663 2.118556 2.668841 0
M  V30 19 O -3.625874 1.115802 2.667344 0
M  V30 20 C -3.841104 0.498315 1.462701 0
M  V30 21 C -2.568550 0.690798 0.640631 0
M  V30 22 C 1.500969 0.901539 -0.792674 0
M  V30 23 N 3.415652 -2.176862 -0.650850 0
M  V30 24 N 3.507270 -3.359110 -0.131438 0
M  V30 25 H 0.113788 -5.458596 2.030017 0
M  V30 26 H 0.000404 -4.040810 0.866704 0
M  V30 27 H 0.666679 -5.674387 0.288083 0
M  V30 28 H 2.616595 -5.371087 1.504901 0
M  V30 29 H 2.874429 -4.168918 3.503678 0
M  V30 30 H 1.493291 -3.043252 3.137312 0
M  V30 31 H 1.196929 -4.744807 3.543730 0
M  V30 32 H 3.617669 2.036239 -2.877537 0
M  V30 33 H 1.526444 3.975001 -2.321196 0
M  V30 34 H -0.549450 4.211701 -0.936681 0
M  V30 35 H 0.020533 -0.816039 1.106399 0
M  V30 36 H -1.636987 -0.436478 2.240440 0
M  V30 37 H -0.580279 2.374029 2.162767 0
M  V30 38 H -0.968574 1.249757 3.530758 0
M  V30 39 H -2.741404 2.625091 3.666012 0
M  V30 40 H -2.847824 2.915516 1.913553 0
M  V30 41 H -3.946811 -0.595600 1.630102 0
M  V30 42 H -4.699810 0.931063 0.886746 0
M  V30 43 H -2.517743 1.730024 0.300876 0
M  V30 44 H -2.633389 0.022882 -0.221004 0
M  V30 45 H 4.202650 -4.121296 -0.254108 0
M  V30 END ATOM
M  V30 BEGIN BOND
M  V30 1 1 1 2
M  V30 2 1 2 3
M  V30 3 1 2 4
M  V30 4 2 4 5
M  V30 5 1 5 6
M  V30 6 1 6 7
M  V30 7 2 7 8
M  V30 8 1 8 9
M  V30 9 1 9 10
M  V30 10 2 10 11
M  V30 11 1 11 12
M  V30 12 2 12 13
M  V30 13 1 13 14
M  V30 14 1 14 15
M  V30 15 1 15 16
M  V30 16 1 16 17
M  V30 17 1 17 18
M  V30 18 1 18 19
M  V30 19 1 19 20
M  V30 20 1 20 21
M  V30 21 2 14 22
M  V30 22 2 6 23
M  V30 23 1 23 24
M  V30 24 1 24 4
M  V30 25 1 22 7
M  V30 26 1 22 10
M  V30 27 1 21 16
M  V30 28 1 1 25
M  V30 29 1 1 26
M  V30 30 1 1 27
M  V30 31 1 2 28
M  V30 32 1 3 29
M  V30 33 1 3 30
M  V30 34 1 3 31
M  V30 35 1 9 32
M  V30 36 1 11 33
M  V30 37 1 12 34
M  V30 38 1 15 35
M  V30 39 1 16 36
M  V30 40 1 17 37
M  V30 41 1 17 38
M  V30 42 1 18 39
M  V30 43 1 18 40
M  V30 44 1 20 41
M  V30 45 1 20 42
M  V30 46 1 21 43
M  V30 47 1 21 44
M  V30 48 1 24 45
M  V30 END BOND
M  V30 END CTAB
M  END
>  <Dataset>  (803) 
ChEMBL_Kinases

>  <Ligand_Instance>  (803) 
nan

>  <PDB_ID>  (803) 
nan

>  <Standardized_SMILES>  (803) 
CC(C)c1nc(-c2n[nH]c3ccnc(NC4CCOCC4)c23)n[nH]1

>  <Name>  (803) 
nan

>  <Pocket>  (803) 
nan

>  <ATP_Site>  (803) 
nan

>  <Peripheral>  (803) 
nan

>  <Num_H_Atoms_ProtBoundConf>  (803) 
nan

>  <Num_Resolved_Atoms>  (803) 
nan

>  <Num_Not_Resolved_Atoms>  (803) 
nan

$$$$
CHEMBL3651805
     RDKit          3D

  0  0  0  0  0  0  0  0  0  0999 V3000
M  V30 BEGIN CTAB
M  V30 COUNTS 49 52 0 0 0
M  V30 BEGIN ATOM
M  V30 1 C 3.375301 -6.722457 -0.941343 0
M  V30 2 N 2.878311 -5.425401 -0.478738 0
M  V30 3 C 1.846099 -5.324329 0.471539 0
M  V30 4 O 1.382929 -6.417174 0.893307 0
M  V30 5 C 1.276623 -4.095800 1.000583 0
M  V30 6 C 0.267363 -4.192276 1.928759 0
M  V30 7 C -0.292422 -3.054738 2.450297 0
M  V30 8 C 0.189590 -1.854510 2.013082 0
M  V30 9 C 1.170063 -1.599678 1.108644 0
M  V30 10 C 1.718525 -0.430374 0.480898 0
M  V30 11 N 2.977057 -0.418445 -0.055359 0
M  V30 12 N 3.241739 0.740193 -0.600904 0
M  V30 13 C 2.205833 1.584478 -0.481494 0
M  V30 14 C 1.972453 2.878317 -0.890264 0
M  V30 15 C 0.753890 3.466423 -0.625284 0
M  V30 16 C 0.502064 4.862092 -1.065074 0
M  V30 17 N -0.160662 2.702037 0.041602 0
M  V30 18 C 0.092324 1.445206 0.428760 0
M  V30 19 O -0.919979 0.794148 1.082253 0
M  V30 20 C -2.137915 1.468335 1.300830 0
M  V30 21 C -2.546579 1.534498 2.747136 0
M  V30 22 C -3.938542 0.972736 2.953907 0
M  V30 23 O -3.957282 -0.331489 2.519911 0
M  V30 24 C -3.674952 -0.490250 1.175622 0
M  V30 25 C -3.287175 0.815185 0.529642 0
M  V30 26 C 1.271683 0.833123 0.192717 0
M  V30 27 C 1.673181 -2.830715 0.640957 0
M  V30 28 H 4.288536 -7.009937 -0.368993 0
M  V30 29 H 2.557711 -7.467657 -0.825588 0
M  V30 30 H 3.656985 -6.662425 -2.018349 0
M  V30 31 H 3.289429 -4.560347 -0.853562 0
M  V30 32 H -0.101507 -5.150121 2.262430 0
M  V30 33 H -1.083119 -3.076550 3.177866 0
M  V30 34 H -0.232386 -0.993104 2.486707 0
M  V30 35 H 3.730559 -1.168244 -0.093072 0
M  V30 36 H 2.722366 3.452777 -1.417610 0
M  V30 37 H 0.281759 4.937342 -2.145002 0
M  V30 38 H -0.342578 5.328282 -0.518200 0
M  V30 39 H 1.387621 5.521115 -0.862869 0
M  V30 40 H -2.096713 2.509465 0.875549 0
M  V30 41 H -2.484977 2.582052 3.144517 0
M  V30 42 H -1.881060 0.925011 3.412486 0
M  V30 43 H -4.736225 1.600044 2.516460 0
M  V30 44 H -4.128984 0.944209 4.051948 0
M  V30 45 H -2.844595 -1.206080 1.002248 0
M  V30 46 H -4.604127 -0.837843 0.659046 0
M  V30 47 H -3.024972 0.632784 -0.519980 0
M  V30 48 H -4.113675 1.550759 0.554212 0
M  V30 49 H 2.473332 -2.868118 -0.096633 0
M  V30 END ATOM
M  V30 BEGIN BOND
M  V30 1 1 1 2
M  V30 2 1 2 3
M  V30 3 2 3 4
M  V30 4 1 3 5
M  V30 5 2 5 6
M  V30 6 1 6 7
M  V30 7 2 7 8
M  V30 8 1 8 9
M  V30 9 1 9 10
M  V30 10 1 10 11
M  V30 11 1 11 12
M  V30 12 2 12 13
M  V30 13 1 13 14
M  V30 14 2 14 15
M  V30 15 1 15 16
M  V30 16 1 15 17
M  V30 17 2 17 18
M  V30 18 1 18 19
M  V30 19 1 19 20
M  V30 20 1 20 21
M  V30 21 1 21 22
M  V30 22 1 22 23
M  V30 23 1 23 24
M  V30 24 1 24 25
M  V30 25 1 18 26
M  V30 26 2 9 27
M  V30 27 1 27 5
M  V30 28 2 26 10
M  V30 29 1 26 13
M  V30 30 1 25 20
M  V30 31 1 1 28
M  V30 32 1 1 29
M  V30 33 1 1 30
M  V30 34 1 2 31
M  V30 35 1 6 32
M  V30 36 1 7 33
M  V30 37 1 8 34
M  V30 38 1 11 35
M  V30 39 1 14 36
M  V30 40 1 16 37
M  V30 41 1 16 38
M  V30 42 1 16 39
M  V30 43 1 20 40
M  V30 44 1 21 41
M  V30 45 1 21 42
M  V30 46 1 22 43
M  V30 47 1 22 44
M  V30 48 1 24 45
M  V30 49 1 24 46
M  V30 50 1 25 47
M  V30 51 1 25 48
M  V30 52 1 27 49
M  V30 END BOND
M  V30 END CTAB
M  END
>  <Dataset>  (804) 
ChEMBL_Kinases

>  <Ligand_Instance>  (804) 
nan

>  <PDB_ID>  (804) 
nan

>  <Standardized_SMILES>  (804) 
CNC(=O)c1cccc(-c2[nH]nc3cc(C)nc(OC4CCOCC4)c23)c1

>  <Name>  (804) 
nan

>  <Pocket>  (804) 
nan

>  <ATP_Site>  (804) 
nan

>  <Peripheral>  (804) 
nan

>  <Num_H_Atoms_ProtBoundConf>  (804) 
nan

>  <Num_Resolved_Atoms>  (804) 
nan

>  <Num_Not_Resolved_Atoms>  (804) 
nan

$$$$
CHEMBL3651806
     RDKit          3D

  0  0  0  0  0  0  0  0  0  0999 V3000
M  V30 BEGIN CTAB
M  V30 COUNTS 54 58 0 0 0
M  V30 BEGIN ATOM
M  V30 1 C 2.276448 -6.400869 1.225702 0
M  V30 2 C 2.081969 -4.933252 1.108003 0
M  V30 3 C 2.983230 -4.112391 1.793046 0
M  V30 4 C 2.812821 -2.748075 1.690074 0
M  V30 5 N 3.447011 -1.645778 2.189344 0
M  V30 6 N 2.862893 -0.530625 1.777510 0
M  V30 7 C 1.810322 -0.830840 0.982870 0
M  V30 8 C 1.001215 0.231696 0.411254 0
M  V30 9 C 0.589603 0.428497 -0.885131 0
M  V30 10 C -0.196114 1.482846 -1.271754 0
M  V30 11 N -0.599167 2.392708 -0.338473 0
M  V30 12 C -0.233669 2.263793 0.949726 0
M  V30 13 N -0.712133 3.269076 1.832475 0
M  V30 14 C -1.542252 4.341034 1.300513 0
M  V30 15 C -0.913415 5.645821 1.740090 0
M  V30 16 O 0.313853 5.438470 2.364486 0
M  V30 17 C 0.194095 4.695199 3.526262 0
M  V30 18 C -0.461024 3.356485 3.256909 0
M  V30 19 C 0.545783 1.208483 1.306225 0
M  V30 20 C 1.791066 -2.204996 0.938859 0
M  V30 21 C 0.922351 -3.026943 0.278830 0
M  V30 22 O -0.111515 -2.502164 -0.478473 0
M  V30 23 C -1.036832 -3.276757 -1.176443 0
M  V30 24 C -1.014764 -3.021554 -2.689640 0
M  V30 25 C -2.357419 -3.518318 -3.207354 0
M  V30 26 O -2.779335 -4.610662 -2.458204 0
M  V30 27 C -3.344853 -4.099907 -1.290131 0
M  V30 28 C -2.469980 -2.984068 -0.760686 0
M  V30 29 N 1.103536 -4.353769 0.390316 0
M  V30 30 H 2.555884 -6.689094 2.277904 0
M  V30 31 H 1.341151 -6.965508 1.033471 0
M  V30 32 H 3.057146 -6.797416 0.544156 0
M  V30 33 H 3.816033 -4.486385 2.406573 0
M  V30 34 H 4.284483 -1.679562 2.814586 0
M  V30 35 H 0.938111 -0.304609 -1.596946 0
M  V30 36 H -0.461996 1.542424 -2.313376 0
M  V30 37 H -2.557089 4.301389 1.749067 0
M  V30 38 H -1.584967 4.296217 0.186472 0
M  V30 39 H -0.685188 6.259365 0.833827 0
M  V30 40 H -1.591731 6.233118 2.367193 0
M  V30 41 H -0.336359 5.253903 4.335101 0
M  V30 42 H 1.217655 4.504927 3.906802 0
M  V30 43 H -1.467606 3.392545 3.760915 0
M  V30 44 H 0.142583 2.540223 3.659865 0
M  V30 45 H 0.815253 1.143361 2.349948 0
M  V30 46 H -0.862869 -4.363793 -1.064363 0
M  V30 47 H -0.211406 -3.612356 -3.129103 0
M  V30 48 H -0.952018 -1.934790 -2.833069 0
M  V30 49 H -2.193355 -3.798763 -4.280948 0
M  V30 50 H -3.145229 -2.765295 -3.202350 0
M  V30 51 H -4.337296 -3.696263 -1.595624 0
M  V30 52 H -3.485319 -4.906571 -0.530876 0
M  V30 53 H -2.565030 -2.949959 0.347806 0
M  V30 54 H -2.803605 -1.993700 -1.124533 0
M  V30 END ATOM
M  V30 BEGIN BOND
M  V30 1 1 1 2
M  V30 2 2 2 3
M  V30 3 1 3 4
M  V30 4 1 4 5
M  V30 5 1 5 6
M  V30 6 2 6 7
M  V30 7 1 7 8
M  V30 8 2 8 9
M  V30 9 1 9 10
M  V30 10 2 10 11
M  V30 11 1 11 12
M  V30 12 1 12 13
M  V30 13 1 13 14
M  V30 14 1 14 15
M  V30 15 1 15 16
M  V30 16 1 16 17
M  V30 17 1 17 18
M  V30 18 2 12 19
M  V30 19 1 7 20
M  V30 20 1 20 21
M  V30 21 1 21 22
M  V30 22 1 22 23
M  V30 23 1 23 24
M  V30 24 1 24 25
M  V30 25 1 25 26
M  V30 26 1 26 27
M  V30 27 1 27 28
M  V30 28 2 21 29
M  V30 29 1 29 2
M  V30 30 2 20 4
M  V30 31 1 28 23
M  V30 32 1 19 8
M  V30 33 1 18 13
M  V30 34 1 1 30
M  V30 35 1 1 31
M  V30 36 1 1 32
M  V30 37 1 3 33
M  V30 38 1 5 34
M  V30 39 1 9 35
M  V30 40 1 10 36
M  V30 41 1 14 37
M  V30 42 1 14 38
M  V30 43 1 15 39
M  V30 44 1 15 40
M  V30 45 1 17 41
M  V30 46 1 17 42
M  V30 47 1 18 43
M  V30 48 1 18 44
M  V30 49 1 19 45
M  V30 50 1 23 46
M  V30 51 1 24 47
M  V30 52 1 24 48
M  V30 53 1 25 49
M  V30 54 1 25 50
M  V30 55 1 27 51
M  V30 56 1 27 52
M  V30 57 1 28 53
M  V30 58 1 28 54
M  V30 END BOND
M  V30 END CTAB
M  END
>  <Dataset>  (805) 
ChEMBL_Kinases

>  <Ligand_Instance>  (805) 
nan

>  <PDB_ID>  (805) 
nan

>  <Standardized_SMILES>  (805) 
Cc1cc2[nH]nc(-c3ccnc(N4CCOCC4)c3)c2c(OC2CCOCC2)n1

>  <Name>  (805) 
nan

>  <Pocket>  (805) 
nan

>  <ATP_Site>  (805) 
nan

>  <Peripheral>  (805) 
nan

>  <Num_H_Atoms_ProtBoundConf>  (805) 
nan

>  <Num_Resolved_Atoms>  (805) 
nan

>  <Num_Not_Resolved_Atoms>  (805) 
nan

$$$$
CHEMBL3651807
     RDKit          3D

  0  0  0  0  0  0  0  0  0  0999 V3000
M  V30 BEGIN CTAB
M  V30 COUNTS 34 36 0 0 0
M  V30 BEGIN ATOM
M  V30 1 C 0.515875 -3.002589 3.319835 0
M  V30 2 O 0.769688 -2.338662 2.109451 0
M  V30 3 C 1.561205 -2.864394 1.136616 0
M  V30 4 N 2.098072 -4.067697 1.378108 0
M  V30 5 C 2.892188 -4.705691 0.503992 0
M  V30 6 C 3.163099 -4.086359 -0.698209 0
M  V30 7 C 2.603436 -2.850888 -0.928818 0
M  V30 8 N 2.637726 -2.006134 -1.971119 0
M  V30 9 N 1.925211 -0.939933 -1.747632 0
M  V30 10 C 1.344997 -0.985335 -0.509988 0
M  V30 11 C 0.472253 0.042004 -0.012211 0
M  V30 12 C 0.049785 0.465100 1.196932 0
M  V30 13 C -0.884188 1.419750 1.497236 0
M  V30 14 C -1.504843 2.067842 0.454708 0
M  V30 15 S -2.698027 3.287231 0.772990 0
M  V30 16 C -4.334248 2.625571 0.884703 0
M  V30 17 O -2.665181 4.266334 -0.365506 0
M  V30 18 O -2.322929 3.992650 2.043086 0
M  V30 19 C -1.168068 1.737127 -0.835638 0
M  V30 20 C -0.216002 0.761218 -1.013776 0
M  V30 21 C 1.790775 -2.192351 -0.035719 0
M  V30 22 H 1.426031 -3.088358 3.956251 0
M  V30 23 H -0.252536 -2.515184 3.936015 0
M  V30 24 H 0.144221 -4.038960 3.127834 0
M  V30 25 H 3.335500 -5.694547 0.699378 0
M  V30 26 H 3.791851 -4.524434 -1.464297 0
M  V30 27 H 1.860962 -0.188276 -2.484893 0
M  V30 28 H 0.535559 0.035027 2.026545 0
M  V30 29 H -1.118563 1.648802 2.504401 0
M  V30 30 H -4.255808 1.530171 0.813213 0
M  V30 31 H -4.833628 2.870579 1.842124 0
M  V30 32 H -4.970613 2.957810 0.045268 0
M  V30 33 H -1.663586 2.255448 -1.632794 0
M  V30 34 H -0.031819 0.583643 -2.089842 0
M  V30 END ATOM
M  V30 BEGIN BOND
M  V30 1 1 1 2
M  V30 2 1 2 3
M  V30 3 2 3 4
M  V30 4 1 4 5
M  V30 5 2 5 6
M  V30 6 1 6 7
M  V30 7 2 7 8
M  V30 8 1 8 9
M  V30 9 1 9 10
M  V30 10 1 10 11
M  V30 11 2 11 12
M  V30 12 1 12 13
M  V30 13 2 13 14
M  V30 14 1 14 15
M  V30 15 1 15 16
M  V30 16 2 15 17
M  V30 17 2 15 18
M  V30 18 1 14 19
M  V30 19 2 19 20
M  V30 20 2 10 21
M  V30 21 1 21 3
M  V30 22 1 21 7
M  V30 23 1 20 11
M  V30 24 1 1 22
M  V30 25 1 1 23
M  V30 26 1 1 24
M  V30 27 1 5 25
M  V30 28 1 6 26
M  V30 29 1 9 27
M  V30 30 1 12 28
M  V30 31 1 13 29
M  V30 32 1 16 30
M  V30 33 1 16 31
M  V30 34 1 16 32
M  V30 35 1 19 33
M  V30 36 1 20 34
M  V30 END BOND
M  V30 END CTAB
M  END
>  <Dataset>  (806) 
ChEMBL_Kinases

>  <Ligand_Instance>  (806) 
nan

>  <PDB_ID>  (806) 
nan

>  <Standardized_SMILES>  (806) 
COc1nccc2n[nH]c(-c3ccc(S(C)(=O)=O)cc3)c12

>  <Name>  (806) 
nan

>  <Pocket>  (806) 
nan

>  <ATP_Site>  (806) 
nan

>  <Peripheral>  (806) 
nan

>  <Num_H_Atoms_ProtBoundConf>  (806) 
nan

>  <Num_Resolved_Atoms>  (806) 
nan

>  <Num_Not_Resolved_Atoms>  (806) 
nan

$$$$
CHEMBL3651799
     RDKit          3D

  0  0  0  0  0  0  0  0  0  0999 V3000
M  V30 BEGIN CTAB
M  V30 COUNTS 44 47 0 0 0
M  V30 BEGIN ATOM
M  V30 1 C -0.607149 -6.556532 2.090208 0
M  V30 2 O -0.277707 -5.266087 1.637889 0
M  V30 3 C -1.203970 -4.246226 1.530532 0
M  V30 4 C -0.650615 -3.074940 1.065815 0
M  V30 5 C -1.383299 -1.913165 0.874230 0
M  V30 6 N -0.828078 -0.701085 0.418617 0
M  V30 7 C -1.392014 0.377613 -0.298186 0
M  V30 8 N -2.601072 0.514605 -0.861566 0
M  V30 9 N -2.725716 1.723493 -1.427693 0
M  V30 10 C -1.558478 2.397430 -1.226679 0
M  V30 11 C -1.144545 3.662031 -1.588620 0
M  V30 12 C 0.121448 4.154006 -1.265016 0
M  V30 13 N 0.900286 3.302836 -0.576989 0
M  V30 14 C 0.519057 2.088191 -0.222730 0
M  V30 15 O 1.404667 1.298185 0.484143 0
M  V30 16 C 2.666360 1.839719 0.821396 0
M  V30 17 C 2.989318 1.615968 2.289891 0
M  V30 18 C 2.995459 0.148782 2.557410 0
M  V30 19 O 2.815209 -0.667312 1.476020 0
M  V30 20 C 3.602149 -0.406687 0.375095 0
M  V30 21 C 3.741283 1.046189 0.063954 0
M  V30 22 C -0.734678 1.565738 -0.528475 0
M  V30 23 C -2.730512 -2.095375 1.213054 0
M  V30 24 C -3.316774 -3.228599 1.672941 0
M  V30 25 N -2.511488 -4.314687 1.825959 0
M  V30 26 H -1.685570 -6.800944 2.003182 0
M  V30 27 H 0.015617 -7.323968 1.548752 0
M  V30 28 H -0.265912 -6.636090 3.163038 0
M  V30 29 H 0.413258 -2.968213 0.808980 0
M  V30 30 H 0.179355 -0.653997 0.689564 0
M  V30 31 H -3.384022 -0.163018 -0.909052 0
M  V30 32 H -1.824142 4.293343 -2.140558 0
M  V30 33 H 0.395227 5.151267 -1.573749 0
M  V30 34 H 2.773169 2.888590 0.543884 0
M  V30 35 H 2.261355 2.158397 2.938694 0
M  V30 36 H 4.023210 1.992679 2.437187 0
M  V30 37 H 3.895436 -0.131407 3.169046 0
M  V30 38 H 2.140609 -0.066240 3.261199 0
M  V30 39 H 3.088899 -0.879325 -0.488848 0
M  V30 40 H 4.590036 -0.930986 0.439450 0
M  V30 41 H 4.709087 1.392834 0.535015 0
M  V30 42 H 3.753630 1.318373 -0.989496 0
M  V30 43 H -3.410501 -1.266465 1.124720 0
M  V30 44 H -4.359996 -3.309738 1.915382 0
M  V30 END ATOM
M  V30 BEGIN BOND
M  V30 1 1 1 2
M  V30 2 1 2 3
M  V30 3 2 3 4
M  V30 4 1 4 5
M  V30 5 1 5 6
M  V30 6 1 6 7
M  V30 7 1 7 8
M  V30 8 1 8 9
M  V30 9 2 9 10
M  V30 10 1 10 11
M  V30 11 2 11 12
M  V30 12 1 12 13
M  V30 13 2 13 14
M  V30 14 1 14 15
M  V30 15 1 15 16
M  V30 16 1 16 17
M  V30 17 1 17 18
M  V30 18 1 18 19
M  V30 19 1 19 20
M  V30 20 1 20 21
M  V30 21 1 14 22
M  V30 22 2 5 23
M  V30 23 1 23 24
M  V30 24 2 24 25
M  V30 25 1 25 3
M  V30 26 2 22 7
M  V30 27 1 22 10
M  V30 28 1 21 16
M  V30 29 1 1 26
M  V30 30 1 1 27
M  V30 31 1 1 28
M  V30 32 1 4 29
M  V30 33 1 6 30
M  V30 34 1 8 31
M  V30 35 1 11 32
M  V30 36 1 12 33
M  V30 37 1 16 34
M  V30 38 1 17 35
M  V30 39 1 17 36
M  V30 40 1 18 37
M  V30 41 1 18 38
M  V30 42 1 20 39
M  V30 43 1 20 40
M  V30 44 1 21 41
M  V30 45 1 21 42
M  V30 46 1 23 43
M  V30 47 1 24 44
M  V30 END BOND
M  V30 END CTAB
M  END
>  <Dataset>  (807) 
ChEMBL_Kinases

>  <Ligand_Instance>  (807) 
nan

>  <PDB_ID>  (807) 
nan

>  <Standardized_SMILES>  (807) 
COc1cc(Nc2[nH]nc3ccnc(OC4CCOCC4)c23)ccn1

>  <Name>  (807) 
nan

>  <Pocket>  (807) 
nan

>  <ATP_Site>  (807) 
nan

>  <Peripheral>  (807) 
nan

>  <Num_H_Atoms_ProtBoundConf>  (807) 
nan

>  <Num_Resolved_Atoms>  (807) 
nan

>  <Num_Not_Resolved_Atoms>  (807) 
nan

$$$$
CHEMBL3652578
     RDKit          3D

  0  0  0  0  0  0  0  0  0  0999 V3000
M  V30 BEGIN CTAB
M  V30 COUNTS 61 65 0 0 0
M  V30 BEGIN ATOM
M  V30 1 C 3.330556 -0.284274 4.541912 0
M  V30 2 O 2.571342 -0.058816 3.383388 0
M  V30 3 C 3.209305 -0.508066 2.232943 0
M  V30 4 C 2.314240 -0.226967 1.034304 0
M  V30 5 O 2.944137 -0.674316 -0.106291 0
M  V30 6 C 1.933065 1.219269 0.989001 0
M  V30 7 N 1.039099 1.473161 -0.110630 0
M  V30 8 C 1.275495 1.598050 -1.497120 0
M  V30 9 C 0.225671 1.766213 -2.406204 0
M  V30 10 C 0.440991 1.920181 -3.750984 0
M  V30 11 C 1.710704 1.918182 -4.287150 0
M  V30 12 C 2.777048 1.754732 -3.420129 0
M  V30 13 C 2.510265 1.604986 -2.084099 0
M  V30 14 C -0.326867 1.632794 0.303788 0
M  V30 15 C -1.166350 0.556108 0.445521 0
M  V30 16 C -2.467582 0.585788 0.827622 0
M  V30 17 C -3.423827 -0.476751 0.991585 0
M  V30 18 C -4.775102 -0.199318 1.208321 0
M  V30 19 N -5.460976 -1.345039 1.346663 0
M  V30 20 C -4.643256 -2.398508 1.235462 0
M  V30 21 N -4.811318 -3.729906 1.300893 0
M  V30 22 C -3.781963 -4.585243 1.160072 0
M  V30 23 C -2.507923 -4.048921 0.939935 0
M  V30 24 C -1.361902 -4.960684 0.784425 0
M  V30 25 C -1.112520 -6.198197 1.343477 0
M  V30 26 N 0.088272 -6.646548 0.888798 0
M  V30 27 N 0.604775 -5.729222 0.059214 0
M  V30 28 C 1.855365 -5.736773 -0.677892 0
M  V30 29 C -0.258674 -4.683022 -0.027098 0
M  V30 30 C -2.354553 -2.685161 0.875681 0
M  V30 31 C -3.423339 -1.845582 1.022510 0
M  V30 32 N -2.873771 1.844588 1.064880 0
M  V30 33 C -2.130977 2.944743 0.953190 0
M  V30 34 N -2.684837 4.223465 1.235633 0
M  V30 35 N -0.845339 2.860546 0.571362 0
M  V30 36 H 2.783962 0.089524 5.443790 0
M  V30 37 H 3.434476 -1.379663 4.704660 0
M  V30 38 H 4.319444 0.221328 4.503568 0
M  V30 39 H 4.203576 -0.040585 2.121237 0
M  V30 40 H 3.361516 -1.608204 2.336591 0
M  V30 41 H 1.406131 -0.881371 1.162112 0
M  V30 42 H 3.909907 -0.500256 0.000449 0
M  V30 43 H 2.882909 1.835512 0.865951 0
M  V30 44 H 1.529356 1.583189 1.954335 0
M  V30 45 H -0.801261 1.776495 -2.047301 0
M  V30 46 H -0.413196 2.045448 -4.397735 0
M  V30 47 H 1.828621 2.041312 -5.341543 0
M  V30 48 H 3.741065 1.759360 -3.872177 0
M  V30 49 H 3.406707 1.506554 -1.510805 0
M  V30 50 H -0.717451 -0.364971 0.211053 0
M  V30 51 H -5.319291 0.752959 1.276881 0
M  V30 52 H -6.493234 -1.454357 1.518311 0
M  V30 53 H -3.863213 -5.678934 1.204636 0
M  V30 54 H -1.794540 -6.692439 2.029478 0
M  V30 55 H 2.368344 -4.778141 -0.460236 0
M  V30 56 H 1.565271 -5.659573 -1.765398 0
M  V30 57 H 2.460459 -6.628291 -0.480545 0
M  V30 58 H -0.151932 -3.791599 -0.599260 0
M  V30 59 H -1.373973 -2.355678 0.717319 0
M  V30 60 H -2.424769 4.987751 0.550970 0
M  V30 61 H -3.295953 4.672520 1.936106 0
M  V30 END ATOM
M  V30 BEGIN BOND
M  V30 1 1 1 2
M  V30 2 1 2 3
M  V30 3 1 3 4
M  V30 4 1 4 5
M  V30 5 1 4 6
M  V30 6 1 6 7
M  V30 7 1 7 8
M  V30 8 2 8 9
M  V30 9 1 9 10
M  V30 10 2 10 11
M  V30 11 1 11 12
M  V30 12 2 12 13
M  V30 13 1 7 14
M  V30 14 2 14 15
M  V30 15 1 15 16
M  V30 16 1 16 17
M  V30 17 2 17 18
M  V30 18 1 18 19
M  V30 19 1 19 20
M  V30 20 2 20 21
M  V30 21 1 21 22
M  V30 22 2 22 23
M  V30 23 1 23 24
M  V30 24 1 24 25
M  V30 25 2 25 26
M  V30 26 1 26 27
M  V30 27 1 27 28
M  V30 28 1 27 29
M  V30 29 1 23 30
M  V30 30 2 30 31
M  V30 31 2 16 32
M  V30 32 1 32 33
M  V30 33 1 33 34
M  V30 34 2 33 35
M  V30 35 1 13 8
M  V30 36 1 35 14
M  V30 37 1 31 17
M  V30 38 1 31 20
M  V30 39 2 29 24
M  V30 40 1 1 36
M  V30 41 1 1 37
M  V30 42 1 1 38
M  V30 43 1 3 39
M  V30 44 1 3 40
M  V30 45 1 4 41
M  V30 46 1 5 42
M  V30 47 1 6 43
M  V30 48 1 6 44
M  V30 49 1 9 45
M  V30 50 1 10 46
M  V30 51 1 11 47
M  V30 52 1 12 48
M  V30 53 1 13 49
M  V30 54 1 15 50
M  V30 55 1 18 51
M  V30 56 1 19 52
M  V30 57 1 22 53
M  V30 58 1 25 54
M  V30 59 1 28 55
M  V30 60 1 28 56
M  V30 61 1 28 57
M  V30 62 1 29 58
M  V30 63 1 30 59
M  V30 64 1 34 60
M  V30 65 1 34 61
M  V30 END BOND
M  V30 END CTAB
M  END
>  <Dataset>  (808) 
ChEMBL_Kinases

>  <Ligand_Instance>  (808) 
nan

>  <PDB_ID>  (808) 
nan

>  <Standardized_SMILES>  (808) 
COCC(O)CN(c1ccccc1)c1cc(-c2c[nH]c3ncc(-c4cnn(C)c4)cc23)nc(N)n1

>  <Name>  (808) 
nan

>  <Pocket>  (808) 
nan

>  <ATP_Site>  (808) 
nan

>  <Peripheral>  (808) 
nan

>  <Num_H_Atoms_ProtBoundConf>  (808) 
nan

>  <Num_Resolved_Atoms>  (808) 
nan

>  <Num_Not_Resolved_Atoms>  (808) 
nan

$$$$
CHEMBL3652577
     RDKit          3D

  0  0  0  0  0  0  0  0  0  0999 V3000
M  V30 BEGIN CTAB
M  V30 COUNTS 48 52 0 0 0
M  V30 BEGIN ATOM
M  V30 1 C -0.983192 -3.452827 -3.429355 0
M  V30 2 C -0.625421 -4.560781 -2.475691 0
M  V30 3 N -1.276173 -4.309797 -1.211357 0
M  V30 4 C -0.995411 -3.149079 -0.450389 0
M  V30 5 C -0.084599 -2.178508 -0.811497 0
M  V30 6 C 0.186896 -1.046693 -0.070224 0
M  V30 7 C 1.173869 -0.079196 -0.547476 0
M  V30 8 C 1.918199 -0.145170 -1.710597 0
M  V30 9 N 2.724231 0.927130 -1.814630 0
M  V30 10 C 2.490625 1.667599 -0.722470 0
M  V30 11 N 3.079751 2.836374 -0.409993 0
M  V30 12 C 2.715912 3.448796 0.744370 0
M  V30 13 C 1.758266 2.886596 1.586980 0
M  V30 14 C 1.411433 3.599806 2.817085 0
M  V30 15 C 1.436339 4.979709 2.915968 0
M  V30 16 N 1.054747 5.225723 4.197098 0
M  V30 17 N 0.818615 4.087255 4.821196 0
M  V30 18 C 0.387013 4.016197 6.223567 0
M  V30 19 C 1.018070 3.020697 4.028793 0
M  V30 20 C 1.143578 1.694092 1.288152 0
M  V30 21 C 1.531777 1.084403 0.100840 0
M  V30 22 N -0.488651 -0.890117 1.081085 0
M  V30 23 C -1.387587 -1.811555 1.474425 0
M  V30 24 N -2.064098 -1.577502 2.705156 0
M  V30 25 N -1.619444 -2.903357 0.715119 0
M  V30 26 C -2.215137 -5.235528 -0.712816 0
M  V30 27 N -3.383314 -5.446451 -0.758116 0
M  V30 28 N -4.107741 -6.343728 -0.244226 0
M  V30 29 C -3.450276 -7.273968 0.522981 0
M  V30 30 S -1.633288 -6.684585 0.408812 0
M  V30 31 H -1.660598 -3.893593 -4.197195 0
M  V30 32 H -0.066483 -3.063617 -3.926700 0
M  V30 33 H -1.579053 -2.698836 -2.902105 0
M  V30 34 H 0.469771 -4.635966 -2.306319 0
M  V30 35 H -0.941315 -5.563573 -2.871157 0
M  V30 36 H 0.465006 -2.290037 -1.728045 0
M  V30 37 H 1.848700 -0.962224 -2.434311 0
M  V30 38 H 3.386036 1.115785 -2.598756 0
M  V30 39 H 3.203708 4.403038 0.990140 0
M  V30 40 H 1.708600 5.664413 2.112495 0
M  V30 41 H -0.273985 4.886668 6.403879 0
M  V30 42 H -0.059357 3.051250 6.472838 0
M  V30 43 H 1.321986 4.125391 6.831128 0
M  V30 44 H 0.908776 1.966598 4.247537 0
M  V30 45 H 0.406179 1.239051 1.915425 0
M  V30 46 H -2.534306 -0.632822 2.788989 0
M  V30 47 H -2.135934 -2.242119 3.516951 0
M  V30 48 H -4.258695 -8.022158 0.917145 0
M  V30 END ATOM
M  V30 BEGIN BOND
M  V30 1 1 1 2
M  V30 2 1 2 3
M  V30 3 1 3 4
M  V30 4 2 4 5
M  V30 5 1 5 6
M  V30 6 1 6 7
M  V30 7 2 7 8
M  V30 8 1 8 9
M  V30 9 1 9 10
M  V30 10 2 10 11
M  V30 11 1 11 12
M  V30 12 2 12 13
M  V30 13 1 13 14
M  V30 14 1 14 15
M  V30 15 2 15 16
M  V30 16 1 16 17
M  V30 17 1 17 18
M  V30 18 1 17 19
M  V30 19 1 13 20
M  V30 20 2 20 21
M  V30 21 2 6 22
M  V30 22 1 22 23
M  V30 23 1 23 24
M  V30 24 2 23 25
M  V30 25 1 3 26
M  V30 26 2 26 27
M  V30 27 1 27 28
M  V30 28 2 28 29
M  V30 29 1 29 30
M  V30 30 1 25 4
M  V30 31 1 30 26
M  V30 32 1 21 7
M  V30 33 1 21 10
M  V30 34 2 19 14
M  V30 35 1 1 31
M  V30 36 1 1 32
M  V30 37 1 1 33
M  V30 38 1 2 34
M  V30 39 1 2 35
M  V30 40 1 5 36
M  V30 41 1 8 37
M  V30 42 1 9 38
M  V30 43 1 12 39
M  V30 44 1 15 40
M  V30 45 1 18 41
M  V30 46 1 18 42
M  V30 47 1 18 43
M  V30 48 1 19 44
M  V30 49 1 20 45
M  V30 50 1 24 46
M  V30 51 1 24 47
M  V30 52 1 29 48
M  V30 END BOND
M  V30 END CTAB
M  END
>  <Dataset>  (809) 
ChEMBL_Kinases

>  <Ligand_Instance>  (809) 
nan

>  <PDB_ID>  (809) 
nan

>  <Standardized_SMILES>  (809) 
CCN(c1cc(-c2c[nH]c3ncc(-c4cnn(C)c4)cc23)nc(N)n1)c1nncs1

>  <Name>  (809) 
nan

>  <Pocket>  (809) 
nan

>  <ATP_Site>  (809) 
nan

>  <Peripheral>  (809) 
nan

>  <Num_H_Atoms_ProtBoundConf>  (809) 
nan

>  <Num_Resolved_Atoms>  (809) 
nan

>  <Num_Not_Resolved_Atoms>  (809) 
nan

$$$$
CHEMBL3652576
     RDKit          3D

  0  0  0  0  0  0  0  0  0  0999 V3000
M  V30 BEGIN CTAB
M  V30 COUNTS 56 60 0 0 0
M  V30 BEGIN ATOM
M  V30 1 C 6.558282 0.009038 4.243540 0
M  V30 2 C 6.487958 -1.204169 3.334865 0
M  V30 3 C 6.236834 -2.406188 4.232691 0
M  V30 4 N 5.383823 -1.055648 2.394287 0
M  V30 5 C 5.078625 0.005280 1.626909 0
M  V30 6 C 3.940046 -0.271857 0.870922 0
M  V30 7 C 3.198359 0.516843 -0.109689 0
M  V30 8 C 3.759235 1.464484 -0.977994 0
M  V30 9 N 2.956114 2.142289 -1.854872 0
M  V30 10 C 1.638519 1.882091 -1.863239 0
M  V30 11 N 0.648444 2.424900 -2.638148 0
M  V30 12 C -0.539007 1.880231 -2.320485 0
M  V30 13 C -0.378203 0.951407 -1.317923 0
M  V30 14 C -1.308660 0.097780 -0.596501 0
M  V30 15 C -2.643976 0.190918 -0.900318 0
M  V30 16 C -3.530232 -0.601162 -0.205657 0
M  V30 17 N -4.962915 -0.660255 -0.364737 0
M  V30 18 C -5.651190 0.414390 0.364450 0
M  V30 19 C -5.706323 -1.615403 -1.100598 0
M  V30 20 C -5.666275 -1.810399 -2.465909 0
M  V30 21 C -6.487551 -2.805839 -2.946094 0
M  V30 22 C -7.312320 -3.587868 -2.182934 0
M  V30 23 C -7.323951 -3.363575 -0.829114 0
M  V30 24 C -6.522164 -2.371619 -0.248905 0
M  V30 25 Cl -6.609230 -2.170146 1.489525 0
M  V30 26 N -3.138332 -1.469447 0.765788 0
M  V30 27 C -1.830414 -1.538828 1.040697 0
M  V30 28 N -1.206282 -2.378035 2.023396 0
M  V30 29 N -0.968703 -0.770093 0.366335 0
M  V30 30 C 0.974711 0.980934 -1.064981 0
M  V30 31 C 1.814541 0.308423 -0.186197 0
M  V30 32 C 3.595700 -1.556466 1.238578 0
M  V30 33 N 4.470049 -2.012987 2.152498 0
M  V30 34 H 6.785796 -0.297152 5.287719 0
M  V30 35 H 7.253074 0.781596 3.862332 0
M  V30 36 H 5.547112 0.464213 4.271088 0
M  V30 37 H 7.463809 -1.382447 2.835409 0
M  V30 38 H 5.135641 -2.557643 4.389365 0
M  V30 39 H 6.734482 -3.324881 3.858899 0
M  V30 40 H 6.643787 -2.170522 5.233424 0
M  V30 41 H 5.594705 0.934927 1.569062 0
M  V30 42 H 4.832097 1.605569 -0.896928 0
M  V30 43 H 0.839005 3.163620 -3.364204 0
M  V30 44 H -1.522492 2.099920 -2.756144 0
M  V30 45 H -3.091455 0.831194 -1.640589 0
M  V30 46 H -6.743256 0.297666 0.347385 0
M  V30 47 H -5.409412 1.344935 -0.213462 0
M  V30 48 H -5.185615 0.506081 1.345130 0
M  V30 49 H -5.014088 -1.181885 -3.029229 0
M  V30 50 H -6.463752 -2.967361 -4.025171 0
M  V30 51 H -7.949252 -4.369894 -2.604763 0
M  V30 52 H -7.967016 -3.966019 -0.201574 0
M  V30 53 H -0.902237 -2.324807 3.006949 0
M  V30 54 H -1.078292 -3.263535 1.448531 0
M  V30 55 H 1.375377 -0.435744 0.498062 0
M  V30 56 H 2.789974 -2.212719 0.931368 0
M  V30 END ATOM
M  V30 BEGIN BOND
M  V30 1 1 1 2
M  V30 2 1 2 3
M  V30 3 1 2 4
M  V30 4 1 4 5
M  V30 5 2 5 6
M  V30 6 1 6 7
M  V30 7 2 7 8
M  V30 8 1 8 9
M  V30 9 2 9 10
M  V30 10 1 10 11
M  V30 11 1 11 12
M  V30 12 2 12 13
M  V30 13 1 13 14
M  V30 14 2 14 15
M  V30 15 1 15 16
M  V30 16 1 16 17
M  V30 17 1 17 18
M  V30 18 1 17 19
M  V30 19 2 19 20
M  V30 20 1 20 21
M  V30 21 2 21 22
M  V30 22 1 22 23
M  V30 23 2 23 24
M  V30 24 1 24 25
M  V30 25 2 16 26
M  V30 26 1 26 27
M  V30 27 1 27 28
M  V30 28 2 27 29
M  V30 29 1 13 30
M  V30 30 2 30 31
M  V30 31 1 6 32
M  V30 32 2 32 33
M  V30 33 1 33 4
M  V30 34 1 31 7
M  V30 35 1 30 10
M  V30 36 1 29 14
M  V30 37 1 24 19
M  V30 38 1 1 34
M  V30 39 1 1 35
M  V30 40 1 1 36
M  V30 41 1 2 37
M  V30 42 1 3 38
M  V30 43 1 3 39
M  V30 44 1 3 40
M  V30 45 1 5 41
M  V30 46 1 8 42
M  V30 47 1 11 43
M  V30 48 1 12 44
M  V30 49 1 15 45
M  V30 50 1 18 46
M  V30 51 1 18 47
M  V30 52 1 18 48
M  V30 53 1 20 49
M  V30 54 1 21 50
M  V30 55 1 22 51
M  V30 56 1 23 52
M  V30 57 1 28 53
M  V30 58 1 28 54
M  V30 59 1 31 55
M  V30 60 1 32 56
M  V30 END BOND
M  V30 END CTAB
M  END
>  <Dataset>  (810) 
ChEMBL_Kinases

>  <Ligand_Instance>  (810) 
nan

>  <PDB_ID>  (810) 
nan

>  <Standardized_SMILES>  (810) 
CC(C)n1cc(-c2cnc3[nH]cc(-c4cc(N(C)c5ccccc5Cl)nc(N)n4)c3c2)cn1

>  <Name>  (810) 
nan

>  <Pocket>  (810) 
nan

>  <ATP_Site>  (810) 
nan

>  <Peripheral>  (810) 
nan

>  <Num_H_Atoms_ProtBoundConf>  (810) 
nan

>  <Num_Resolved_Atoms>  (810) 
nan

>  <Num_Not_Resolved_Atoms>  (810) 
nan

$$$$
CHEMBL3652575
     RDKit          3D

  0  0  0  0  0  0  0  0  0  0999 V3000
M  V30 BEGIN CTAB
M  V30 COUNTS 57 62 0 0 0
M  V30 BEGIN ATOM
M  V30 1 C 7.725486 0.469342 3.012917 0
M  V30 2 C 6.917426 -0.769785 3.190468 0
M  V30 3 C 7.679178 -2.031174 2.877606 0
M  V30 4 N 5.742008 -0.696358 2.331421 0
M  V30 5 C 5.156929 0.390625 1.804584 0
M  V30 6 C 4.059456 0.002366 1.045547 0
M  V30 7 C 3.106849 0.809189 0.279189 0
M  V30 8 C 3.497325 1.993987 -0.326310 0
M  V30 9 N 2.566684 2.693442 -1.021893 0
M  V30 10 C 1.289463 2.285677 -1.146265 0
M  V30 11 N 0.260685 2.875309 -1.803940 0
M  V30 12 C -0.811467 2.086756 -1.637638 0
M  V30 13 C -0.482780 0.985696 -0.873211 0
M  V30 14 C -1.334266 -0.122032 -0.449454 0
M  V30 15 C -2.641348 -0.140634 -0.828751 0
M  V30 16 C -3.472574 -1.162691 -0.452561 0
M  V30 17 N -4.829039 -1.182111 -0.846598 0
M  V30 18 C -5.490556 -0.166478 -1.674154 0
M  V30 19 C -6.772280 -0.831535 -2.091000 0
M  V30 20 C -6.930869 -2.018463 -1.220458 0
M  V30 21 C -8.010260 -2.860067 -1.083373 0
M  V30 22 C -7.872560 -3.905664 -0.178511 0
M  V30 23 F -8.925353 -4.755065 -0.021825 0
M  V30 24 C -6.736933 -4.140773 0.573557 0
M  V30 25 C -5.679560 -3.267421 0.400163 0
M  V30 26 C -5.777883 -2.206829 -0.497140 0
M  V30 27 N -2.960633 -2.138577 0.296837 0
M  V30 28 C -1.676408 -2.160437 0.694074 0
M  V30 29 N -1.127054 -3.202837 1.496383 0
M  V30 30 N -0.880396 -1.142296 0.309703 0
M  V30 31 C 0.860909 1.098467 -0.550238 0
M  V30 32 C 1.791461 0.358677 0.169771 0
M  V30 33 C 4.030836 -1.376136 1.154998 0
M  V30 34 N 5.052266 -1.776818 1.933518 0
M  V30 35 H 7.489580 0.898923 2.009878 0
M  V30 36 H 8.803321 0.221753 3.125126 0
M  V30 37 H 7.397128 1.230130 3.755550 0
M  V30 38 H 6.632292 -0.840684 4.273906 0
M  V30 39 H 6.986453 -2.882924 2.715550 0
M  V30 40 H 8.200275 -1.914033 1.883521 0
M  V30 41 H 8.385084 -2.240069 3.688201 0
M  V30 42 H 5.469714 1.418443 1.934536 0
M  V30 43 H 4.522509 2.344133 -0.240449 0
M  V30 44 H 0.252520 3.765955 -2.346334 0
M  V30 45 H -1.799131 2.288692 -2.047945 0
M  V30 46 H -3.059085 0.643020 -1.432712 0
M  V30 47 H -5.626159 0.716062 -1.020367 0
M  V30 48 H -4.900258 0.037463 -2.591614 0
M  V30 49 H -6.687406 -1.232667 -3.141957 0
M  V30 50 H -7.630197 -0.161291 -2.104905 0
M  V30 51 H -8.948619 -2.760461 -1.629045 0
M  V30 52 H -6.725225 -4.990008 1.258316 0
M  V30 53 H -4.805805 -3.465960 0.993809 0
M  V30 54 H -1.124397 -3.008208 2.523176 0
M  V30 55 H -0.806604 -4.013895 0.923680 0
M  V30 56 H 1.445960 -0.574140 0.635969 0
M  V30 57 H 3.265323 -1.989339 0.657782 0
M  V30 END ATOM
M  V30 BEGIN BOND
M  V30 1 1 1 2
M  V30 2 1 2 3
M  V30 3 1 2 4
M  V30 4 1 4 5
M  V30 5 2 5 6
M  V30 6 1 6 7
M  V30 7 2 7 8
M  V30 8 1 8 9
M  V30 9 2 9 10
M  V30 10 1 10 11
M  V30 11 1 11 12
M  V30 12 2 12 13
M  V30 13 1 13 14
M  V30 14 2 14 15
M  V30 15 1 15 16
M  V30 16 1 16 17
M  V30 17 1 17 18
M  V30 18 1 18 19
M  V30 19 1 19 20
M  V30 20 2 20 21
M  V30 21 1 21 22
M  V30 22 1 22 23
M  V30 23 2 22 24
M  V30 24 1 24 25
M  V30 25 2 25 26
M  V30 26 2 16 27
M  V30 27 1 27 28
M  V30 28 1 28 29
M  V30 29 2 28 30
M  V30 30 1 13 31
M  V30 31 2 31 32
M  V30 32 1 6 33
M  V30 33 2 33 34
M  V30 34 1 34 4
M  V30 35 1 32 7
M  V30 36 1 31 10
M  V30 37 1 30 14
M  V30 38 1 26 17
M  V30 39 1 26 20
M  V30 40 1 1 35
M  V30 41 1 1 36
M  V30 42 1 1 37
M  V30 43 1 2 38
M  V30 44 1 3 39
M  V30 45 1 3 40
M  V30 46 1 3 41
M  V30 47 1 5 42
M  V30 48 1 8 43
M  V30 49 1 11 44
M  V30 50 1 12 45
M  V30 51 1 15 46
M  V30 52 1 18 47
M  V30 53 1 18 48
M  V30 54 1 19 49
M  V30 55 1 19 50
M  V30 56 1 21 51
M  V30 57 1 24 52
M  V30 58 1 25 53
M  V30 59 1 29 54
M  V30 60 1 29 55
M  V30 61 1 32 56
M  V30 62 1 33 57
M  V30 END BOND
M  V30 END CTAB
M  END
>  <Dataset>  (811) 
ChEMBL_Kinases

>  <Ligand_Instance>  (811) 
nan

>  <PDB_ID>  (811) 
nan

>  <Standardized_SMILES>  (811) 
CC(C)n1cc(-c2cnc3[nH]cc(-c4cc(N5CCc6cc(F)ccc65)nc(N)n4)c3c2)cn1

>  <Name>  (811) 
nan

>  <Pocket>  (811) 
nan

>  <ATP_Site>  (811) 
nan

>  <Peripheral>  (811) 
nan

>  <Num_H_Atoms_ProtBoundConf>  (811) 
nan

>  <Num_Resolved_Atoms>  (811) 
nan

>  <Num_Not_Resolved_Atoms>  (811) 
nan

$$$$
CHEMBL3652574
     RDKit          3D

  0  0  0  0  0  0  0  0  0  0999 V3000
M  V30 BEGIN CTAB
M  V30 COUNTS 51 56 0 0 0
M  V30 BEGIN ATOM
M  V30 1 C 4.127291 -1.687812 6.499288 0
M  V30 2 N 3.711546 -1.699210 5.102015 0
M  V30 3 C 4.359595 -1.105242 4.078026 0
M  V30 4 C 3.648792 -1.345961 2.919493 0
M  V30 5 C 3.850455 -0.967504 1.522778 0
M  V30 6 C 5.163471 -0.836733 1.067151 0
M  V30 7 N 5.312321 -0.487365 -0.224012 0
M  V30 8 C 4.286684 -0.266425 -1.064398 0
M  V30 9 N 4.132582 0.072215 -2.349975 0
M  V30 10 C 2.838279 0.153016 -2.691191 0
M  V30 11 C 2.042525 -0.146166 -1.579151 0
M  V30 12 C 0.605819 -0.138492 -1.687473 0
M  V30 13 C -0.359939 -0.251566 -0.731711 0
M  V30 14 C -1.712544 -0.221397 -0.907535 0
M  V30 15 N -2.626075 -0.349444 0.171160 0
M  V30 16 C -2.226901 -0.509248 1.555605 0
M  V30 17 C -3.506801 -0.649755 2.317082 0
M  V30 18 C -4.543523 -0.512033 1.269997 0
M  V30 19 C -5.898148 -0.552673 1.506535 0
M  V30 20 C -6.794965 -0.413122 0.453998 0
M  V30 21 F -8.136796 -0.452048 0.679325 0
M  V30 22 C -6.267572 -0.236235 -0.807892 0
M  V30 23 C -4.897259 -0.194442 -1.052256 0
M  V30 24 C -4.017609 -0.335523 0.010093 0
M  V30 25 N -2.125453 -0.058149 -2.196570 0
M  V30 26 C -1.236983 0.061527 -3.196710 0
M  V30 27 N -1.626746 0.232696 -4.555818 0
M  V30 28 N 0.068736 0.016223 -2.897560 0
M  V30 29 C 2.997334 -0.391383 -0.627919 0
M  V30 30 C 2.785933 -0.746130 0.679805 0
M  V30 31 C 2.549423 -2.109042 3.298291 0
M  V30 32 N 2.613379 -2.308646 4.631484 0
M  V30 33 H 3.798529 -0.714490 6.951117 0
M  V30 34 H 3.624499 -2.532292 7.013164 0
M  V30 35 H 5.230625 -1.748747 6.613508 0
M  V30 36 H 5.256869 -0.538424 4.077728 0
M  V30 37 H 6.034593 -0.998693 1.686683 0
M  V30 38 H 4.969742 0.242611 -2.971651 0
M  V30 39 H 2.585864 0.425545 -3.729374 0
M  V30 40 H -0.069413 -0.366972 0.273765 0
M  V30 41 H -1.641205 -1.446519 1.612786 0
M  V30 42 H -1.609553 0.350004 1.901624 0
M  V30 43 H -3.618402 0.156619 3.099442 0
M  V30 44 H -3.529200 -1.650679 2.793231 0
M  V30 45 H -6.359966 -0.690480 2.488276 0
M  V30 46 H -6.989752 -0.130272 -1.608867 0
M  V30 47 H -4.511850 -0.053839 -2.057210 0
M  V30 48 H -1.828676 1.007216 -5.246683 0
M  V30 49 H -1.795555 -0.623132 -5.161130 0
M  V30 50 H 1.829668 -0.877504 1.116752 0
M  V30 51 H 1.754033 -2.500592 2.679541 0
M  V30 END ATOM
M  V30 BEGIN BOND
M  V30 1 1 1 2
M  V30 2 1 2 3
M  V30 3 2 3 4
M  V30 4 1 4 5
M  V30 5 2 5 6
M  V30 6 1 6 7
M  V30 7 2 7 8
M  V30 8 1 8 9
M  V30 9 1 9 10
M  V30 10 2 10 11
M  V30 11 1 11 12
M  V30 12 2 12 13
M  V30 13 1 13 14
M  V30 14 1 14 15
M  V30 15 1 15 16
M  V30 16 1 16 17
M  V30 17 1 17 18
M  V30 18 2 18 19
M  V30 19 1 19 20
M  V30 20 1 20 21
M  V30 21 2 20 22
M  V30 22 1 22 23
M  V30 23 2 23 24
M  V30 24 2 14 25
M  V30 25 1 25 26
M  V30 26 1 26 27
M  V30 27 2 26 28
M  V30 28 1 11 29
M  V30 29 2 29 30
M  V30 30 1 4 31
M  V30 31 2 31 32
M  V30 32 1 32 2
M  V30 33 1 30 5
M  V30 34 1 29 8
M  V30 35 1 28 12
M  V30 36 1 24 15
M  V30 37 1 24 18
M  V30 38 1 1 33
M  V30 39 1 1 34
M  V30 40 1 1 35
M  V30 41 1 3 36
M  V30 42 1 6 37
M  V30 43 1 9 38
M  V30 44 1 10 39
M  V30 45 1 13 40
M  V30 46 1 16 41
M  V30 47 1 16 42
M  V30 48 1 17 43
M  V30 49 1 17 44
M  V30 50 1 19 45
M  V30 51 1 22 46
M  V30 52 1 23 47
M  V30 53 1 27 48
M  V30 54 1 27 49
M  V30 55 1 30 50
M  V30 56 1 31 51
M  V30 END BOND
M  V30 END CTAB
M  END
>  <Dataset>  (812) 
ChEMBL_Kinases

>  <Ligand_Instance>  (812) 
nan

>  <PDB_ID>  (812) 
nan

>  <Standardized_SMILES>  (812) 
Cn1cc(-c2cnc3[nH]cc(-c4cc(N5CCc6cc(F)ccc65)nc(N)n4)c3c2)cn1

>  <Name>  (812) 
nan

>  <Pocket>  (812) 
nan

>  <ATP_Site>  (812) 
nan

>  <Peripheral>  (812) 
nan

>  <Num_H_Atoms_ProtBoundConf>  (812) 
nan

>  <Num_Resolved_Atoms>  (812) 
nan

>  <Num_Not_Resolved_Atoms>  (812) 
nan

$$$$
CHEMBL3652573
     RDKit          3D

  0  0  0  0  0  0  0  0  0  0999 V3000
M  V30 BEGIN CTAB
M  V30 COUNTS 54 58 0 0 0
M  V30 BEGIN ATOM
M  V30 1 C 7.574009 -3.729216 3.382390 0
M  V30 2 N 6.397998 -3.267634 2.637118 0
M  V30 3 C 6.157616 -1.989672 2.254079 0
M  V30 4 C 4.954293 -1.961112 1.577718 0
M  V30 5 C 4.203759 -0.904601 0.953768 0
M  V30 6 C 4.911038 0.134594 0.398519 0
M  V30 7 N 4.309542 1.182163 -0.213269 0
M  V30 8 C 2.946882 1.146151 -0.247029 0
M  V30 9 N 2.121908 2.067871 -0.796924 0
M  V30 10 C 0.852874 1.657954 -0.616943 0
M  V30 11 C 0.867116 0.449613 0.061693 0
M  V30 12 C -0.291359 -0.343809 0.461467 0
M  V30 13 C -1.556181 0.116622 0.157445 0
M  V30 14 C -2.714983 -0.576085 0.501564 0
M  V30 15 N -4.025884 -0.116024 0.198750 0
M  V30 16 C -4.486687 0.677374 1.292825 0
M  V30 17 C -3.656635 1.887944 1.598095 0
M  V30 18 O -3.552463 2.795859 0.574497 0
M  V30 19 C -4.688966 -0.427614 -0.992130 0
M  V30 20 C -5.954886 0.060231 -1.236346 0
M  V30 21 C -6.663354 -0.206077 -2.388282 0
M  V30 22 C -6.091753 -1.011723 -3.379886 0
M  V30 23 C -4.811018 -1.517173 -3.155195 0
M  V30 24 C -4.156448 -1.214937 -1.985076 0
M  V30 25 Cl -2.555367 -1.893076 -1.789419 0
M  V30 26 N -2.564412 -1.743603 1.159386 0
M  V30 27 C -1.324889 -2.215194 1.468669 0
M  V30 28 N -1.177710 -3.448305 2.163330 0
M  V30 29 N -0.215737 -1.518465 1.120465 0
M  V30 30 C 2.186142 0.122263 0.297481 0
M  V30 31 C 2.824844 -0.919834 0.907701 0
M  V30 32 C 4.496847 -3.282180 1.580034 0
M  V30 33 N 5.396256 -4.040782 2.229273 0
M  V30 34 H 7.800132 -4.744732 2.998191 0
M  V30 35 H 7.421116 -3.690305 4.461807 0
M  V30 36 H 8.411150 -3.072853 3.062780 0
M  V30 37 H 6.749565 -1.119257 2.414043 0
M  V30 38 H 6.011340 0.186289 0.413210 0
M  V30 39 H 2.426130 2.958970 -1.284791 0
M  V30 40 H 0.009079 2.218376 -0.964722 0
M  V30 41 H -1.650900 1.056197 -0.371357 0
M  V30 42 H -5.532412 1.004239 1.182878 0
M  V30 43 H -4.475867 0.045896 2.215250 0
M  V30 44 H -4.186375 2.419443 2.431934 0
M  V30 45 H -2.658108 1.646783 2.007077 0
M  V30 46 H -2.645758 3.177029 0.464974 0
M  V30 47 H -6.503611 0.680808 -0.572006 0
M  V30 48 H -7.652050 0.153569 -2.620220 0
M  V30 49 H -6.580991 -1.267037 -4.308898 0
M  V30 50 H -4.375720 -2.132768 -3.913835 0
M  V30 51 H -1.140587 -3.071228 3.156284 0
M  V30 52 H -1.109103 -4.476703 1.948109 0
M  V30 53 H 2.256195 -1.731792 1.340969 0
M  V30 54 H 3.605343 -3.735897 1.171256 0
M  V30 END ATOM
M  V30 BEGIN BOND
M  V30 1 1 1 2
M  V30 2 1 2 3
M  V30 3 2 3 4
M  V30 4 1 4 5
M  V30 5 2 5 6
M  V30 6 1 6 7
M  V30 7 2 7 8
M  V30 8 1 8 9
M  V30 9 1 9 10
M  V30 10 2 10 11
M  V30 11 1 11 12
M  V30 12 2 12 13
M  V30 13 1 13 14
M  V30 14 1 14 15
M  V30 15 1 15 16
M  V30 16 1 16 17
M  V30 17 1 17 18
M  V30 18 1 15 19
M  V30 19 2 19 20
M  V30 20 1 20 21
M  V30 21 2 21 22
M  V30 22 1 22 23
M  V30 23 2 23 24
M  V30 24 1 24 25
M  V30 25 2 14 26
M  V30 26 1 26 27
M  V30 27 1 27 28
M  V30 28 2 27 29
M  V30 29 1 11 30
M  V30 30 2 30 31
M  V30 31 1 4 32
M  V30 32 2 32 33
M  V30 33 1 33 2
M  V30 34 1 31 5
M  V30 35 1 30 8
M  V30 36 1 29 12
M  V30 37 1 24 19
M  V30 38 1 1 34
M  V30 39 1 1 35
M  V30 40 1 1 36
M  V30 41 1 3 37
M  V30 42 1 6 38
M  V30 43 1 9 39
M  V30 44 1 10 40
M  V30 45 1 13 41
M  V30 46 1 16 42
M  V30 47 1 16 43
M  V30 48 1 17 44
M  V30 49 1 17 45
M  V30 50 1 18 46
M  V30 51 1 20 47
M  V30 52 1 21 48
M  V30 53 1 22 49
M  V30 54 1 23 50
M  V30 55 1 28 51
M  V30 56 1 28 52
M  V30 57 1 31 53
M  V30 58 1 32 54
M  V30 END BOND
M  V30 END CTAB
M  END
>  <Dataset>  (813) 
ChEMBL_Kinases

>  <Ligand_Instance>  (813) 
nan

>  <PDB_ID>  (813) 
nan

>  <Standardized_SMILES>  (813) 
Cn1cc(-c2cnc3[nH]cc(-c4cc(N(CCO)c5ccccc5Cl)nc(N)n4)c3c2)cn1

>  <Name>  (813) 
nan

>  <Pocket>  (813) 
nan

>  <ATP_Site>  (813) 
nan

>  <Peripheral>  (813) 
nan

>  <Num_H_Atoms_ProtBoundConf>  (813) 
nan

>  <Num_Resolved_Atoms>  (813) 
nan

>  <Num_Not_Resolved_Atoms>  (813) 
nan

$$$$
CHEMBL3652572
     RDKit          3D

  0  0  0  0  0  0  0  0  0  0999 V3000
M  V30 BEGIN CTAB
M  V30 COUNTS 60 64 0 0 0
M  V30 BEGIN ATOM
M  V30 1 C 5.654732 0.326464 4.023084 0
M  V30 2 C 6.390537 1.008523 2.900416 0
M  V30 3 C 7.323647 -0.001986 2.291326 0
M  V30 4 N 5.530889 1.559650 1.887551 0
M  V30 5 C 4.194312 1.397278 1.826157 0
M  V30 6 C 3.774154 2.084999 0.705033 0
M  V30 7 C 2.464693 2.328106 0.048255 0
M  V30 8 C 2.249723 3.527963 -0.650736 0
M  V30 9 N 1.057276 3.730242 -1.257893 0
M  V30 10 C 0.087374 2.782848 -1.188348 0
M  V30 11 N -1.168080 2.754665 -1.719794 0
M  V30 12 C -1.797596 1.609207 -1.412326 0
M  V30 13 C -0.907643 0.872606 -0.650673 0
M  V30 14 C -1.172910 -0.455633 -0.095166 0
M  V30 15 C -2.342968 -1.108707 -0.416184 0
M  V30 16 C -2.585160 -2.355539 0.106228 0
M  V30 17 N -3.769263 -3.119484 -0.200587 0
M  V30 18 C -3.229380 -4.149141 -1.098816 0
M  V30 19 C -2.570153 -3.550124 -2.321493 0
M  V30 20 O -2.060764 -4.534114 -3.163553 0
M  V30 21 C -5.164883 -3.196205 0.058989 0
M  V30 22 C -5.995360 -2.177453 -0.392881 0
M  V30 23 C -7.341629 -2.306184 -0.138154 0
M  V30 24 C -7.796762 -3.423971 0.543779 0
M  V30 25 C -6.958886 -4.422989 0.984299 0
M  V30 26 C -5.608361 -4.323067 0.745136 0
M  V30 27 Cl -4.434642 -5.542095 1.271824 0
M  V30 28 N -1.682906 -2.941872 0.931763 0
M  V30 29 C -0.519278 -2.303439 1.256307 0
M  V30 30 N 0.503496 -2.803029 2.104806 0
M  V30 31 N -0.320227 -1.087080 0.725193 0
M  V30 32 C 0.256501 1.595729 -0.513536 0
M  V30 33 C 1.482571 1.367774 0.120924 0
M  V30 34 C 4.898630 2.648974 0.118487 0
M  V30 35 N 5.964388 2.292495 0.892912 0
M  V30 36 H 4.893841 -0.383687 3.656523 0
M  V30 37 H 5.225075 1.055788 4.755375 0
M  V30 38 H 6.396508 -0.251661 4.607956 0
M  V30 39 H 7.027607 1.791392 3.374384 0
M  V30 40 H 7.731789 0.341277 1.309106 0
M  V30 41 H 8.222689 -0.196634 2.931242 0
M  V30 42 H 6.826323 -0.990217 2.098043 0
M  V30 43 H 3.487875 0.875049 2.442395 0
M  V30 44 H 3.078342 4.226795 -0.655251 0
M  V30 45 H -1.620881 3.504800 -2.296717 0
M  V30 46 H -2.783159 1.254388 -1.662918 0
M  V30 47 H -3.103423 -0.704794 -1.061348 0
M  V30 48 H -4.033411 -4.816817 -1.462753 0
M  V30 49 H -2.508381 -4.809286 -0.585042 0
M  V30 50 H -1.721470 -2.910927 -2.006611 0
M  V30 51 H -3.293269 -2.977013 -2.948040 0
M  V30 52 H -1.087429 -4.412269 -3.275598 0
M  V30 53 H -5.548130 -1.333456 -0.923188 0
M  V30 54 H -8.026085 -1.525275 -0.479618 0
M  V30 55 H -8.860575 -3.541789 0.750682 0
M  V30 56 H -7.300488 -5.310872 1.524211 0
M  V30 57 H 1.233953 -3.506795 1.841581 0
M  V30 58 H 0.616505 -2.497836 3.095618 0
M  V30 59 H 1.636060 0.433061 0.661750 0
M  V30 60 H 5.060733 3.256402 -0.749238 0
M  V30 END ATOM
M  V30 BEGIN BOND
M  V30 1 1 1 2
M  V30 2 1 2 3
M  V30 3 1 2 4
M  V30 4 1 4 5
M  V30 5 2 5 6
M  V30 6 1 6 7
M  V30 7 2 7 8
M  V30 8 1 8 9
M  V30 9 2 9 10
M  V30 10 1 10 11
M  V30 11 1 11 12
M  V30 12 2 12 13
M  V30 13 1 13 14
M  V30 14 2 14 15
M  V30 15 1 15 16
M  V30 16 1 16 17
M  V30 17 1 17 18
M  V30 18 1 18 19
M  V30 19 1 19 20
M  V30 20 1 17 21
M  V30 21 2 21 22
M  V30 22 1 22 23
M  V30 23 2 23 24
M  V30 24 1 24 25
M  V30 25 2 25 26
M  V30 26 1 26 27
M  V30 27 2 16 28
M  V30 28 1 28 29
M  V30 29 1 29 30
M  V30 30 2 29 31
M  V30 31 1 13 32
M  V30 32 2 32 33
M  V30 33 1 6 34
M  V30 34 2 34 35
M  V30 35 1 35 4
M  V30 36 1 33 7
M  V30 37 1 32 10
M  V30 38 1 31 14
M  V30 39 1 26 21
M  V30 40 1 1 36
M  V30 41 1 1 37
M  V30 42 1 1 38
M  V30 43 1 2 39
M  V30 44 1 3 40
M  V30 45 1 3 41
M  V30 46 1 3 42
M  V30 47 1 5 43
M  V30 48 1 8 44
M  V30 49 1 11 45
M  V30 50 1 12 46
M  V30 51 1 15 47
M  V30 52 1 18 48
M  V30 53 1 18 49
M  V30 54 1 19 50
M  V30 55 1 19 51
M  V30 56 1 20 52
M  V30 57 1 22 53
M  V30 58 1 23 54
M  V30 59 1 24 55
M  V30 60 1 25 56
M  V30 61 1 30 57
M  V30 62 1 30 58
M  V30 63 1 33 59
M  V30 64 1 34 60
M  V30 END BOND
M  V30 END CTAB
M  END
>  <Dataset>  (814) 
ChEMBL_Kinases

>  <Ligand_Instance>  (814) 
nan

>  <PDB_ID>  (814) 
nan

>  <Standardized_SMILES>  (814) 
CC(C)n1cc(-c2cnc3[nH]cc(-c4cc(N(CCO)c5ccccc5Cl)nc(N)n4)c3c2)cn1

>  <Name>  (814) 
nan

>  <Pocket>  (814) 
nan

>  <ATP_Site>  (814) 
nan

>  <Peripheral>  (814) 
nan

>  <Num_H_Atoms_ProtBoundConf>  (814) 
nan

>  <Num_Resolved_Atoms>  (814) 
nan

>  <Num_Not_Resolved_Atoms>  (814) 
nan

$$$$
CHEMBL3652571
     RDKit          3D

  0  0  0  0  0  0  0  0  0  0999 V3000
M  V30 BEGIN CTAB
M  V30 COUNTS 56 60 0 0 0
M  V30 BEGIN ATOM
M  V30 1 C 2.545750 -2.942682 0.668140 0
M  V30 2 C 1.994746 -1.888184 1.561306 0
M  V30 3 N 2.122879 -0.550830 1.126220 0
M  V30 4 C 3.500591 -0.224427 1.161845 0
M  V30 5 C 3.830510 1.146652 0.713103 0
M  V30 6 C 4.068532 1.243877 -0.649175 0
M  V30 7 C 4.396947 2.445114 -1.243407 0
M  V30 8 C 4.495249 3.589795 -0.476014 0
M  V30 9 C 4.257367 3.502348 0.896946 0
M  V30 10 C 3.929950 2.301671 1.486380 0
M  V30 11 C 1.141708 0.383931 0.703208 0
M  V30 12 C -0.190625 0.106684 0.630309 0
M  V30 13 C -1.198415 0.934554 0.239825 0
M  V30 14 C -2.616937 0.710912 0.158894 0
M  V30 15 C -3.484084 1.789484 -0.069200 0
M  V30 16 N -4.747221 1.340741 -0.117952 0
M  V30 17 C -4.815106 0.012247 0.061642 0
M  V30 18 N -5.790377 -0.912137 0.096142 0
M  V30 19 C -5.509559 -2.230632 0.294981 0
M  V30 20 C -4.186090 -2.604801 0.462420 0
M  V30 21 C -3.850221 -4.028961 0.677598 0
M  V30 22 C -4.522222 -5.068848 1.297286 0
M  V30 23 N -3.738181 -6.153560 1.192621 0
M  V30 24 N -2.633634 -5.865042 0.556244 0
M  V30 25 C -1.488720 -6.715886 0.205734 0
M  V30 26 C -2.641943 -4.550194 0.206746 0
M  V30 27 C -3.194632 -1.653997 0.426329 0
M  V30 28 C -3.498514 -0.334159 0.226244 0
M  V30 29 N -0.724426 2.144711 -0.092192 0
M  V30 30 C 0.560534 2.522779 -0.057174 0
M  V30 31 N 0.938747 3.839872 -0.435846 0
M  V30 32 N 1.490950 1.631414 0.343460 0
M  V30 33 H 3.627886 -3.058745 0.651379 0
M  V30 34 H 2.116055 -3.918648 1.007663 0
M  V30 35 H 2.148100 -2.809825 -0.366343 0
M  V30 36 H 0.923418 -2.128746 1.713173 0
M  V30 37 H 2.435455 -1.981551 2.593813 0
M  V30 38 H 3.823300 -0.259384 2.249233 0
M  V30 39 H 4.185104 -0.933311 0.666507 0
M  V30 40 H 4.022886 0.426003 -1.351253 0
M  V30 41 H 4.593743 2.575628 -2.309123 0
M  V30 42 H 4.750131 4.561176 -0.890160 0
M  V30 43 H 4.318440 4.357796 1.543248 0
M  V30 44 H 3.730524 2.142508 2.534802 0
M  V30 45 H -0.430887 -0.882135 0.935252 0
M  V30 46 H -3.304965 2.864907 -0.204050 0
M  V30 47 H -5.624548 1.909180 -0.274536 0
M  V30 48 H -6.275395 -2.998668 0.327905 0
M  V30 49 H -5.488944 -4.913611 1.744354 0
M  V30 50 H -1.337668 -6.685667 -0.905301 0
M  V30 51 H -0.577332 -6.262201 0.646351 0
M  V30 52 H -1.642693 -7.746163 0.560742 0
M  V30 53 H -1.866057 -4.007955 -0.331771 0
M  V30 54 H -2.205429 -2.025510 0.554195 0
M  V30 55 H 0.965261 4.737896 0.095470 0
M  V30 56 H 1.293568 4.308714 -1.321369 0
M  V30 END ATOM
M  V30 BEGIN BOND
M  V30 1 1 1 2
M  V30 2 1 2 3
M  V30 3 1 3 4
M  V30 4 1 4 5
M  V30 5 2 5 6
M  V30 6 1 6 7
M  V30 7 2 7 8
M  V30 8 1 8 9
M  V30 9 2 9 10
M  V30 10 1 3 11
M  V30 11 2 11 12
M  V30 12 1 12 13
M  V30 13 1 13 14
M  V30 14 2 14 15
M  V30 15 1 15 16
M  V30 16 1 16 17
M  V30 17 2 17 18
M  V30 18 1 18 19
M  V30 19 2 19 20
M  V30 20 1 20 21
M  V30 21 1 21 22
M  V30 22 2 22 23
M  V30 23 1 23 24
M  V30 24 1 24 25
M  V30 25 1 24 26
M  V30 26 1 20 27
M  V30 27 2 27 28
M  V30 28 2 13 29
M  V30 29 1 29 30
M  V30 30 1 30 31
M  V30 31 2 30 32
M  V30 32 1 10 5
M  V30 33 1 32 11
M  V30 34 1 28 14
M  V30 35 1 28 17
M  V30 36 2 26 21
M  V30 37 1 1 33
M  V30 38 1 1 34
M  V30 39 1 1 35
M  V30 40 1 2 36
M  V30 41 1 2 37
M  V30 42 1 4 38
M  V30 43 1 4 39
M  V30 44 1 6 40
M  V30 45 1 7 41
M  V30 46 1 8 42
M  V30 47 1 9 43
M  V30 48 1 10 44
M  V30 49 1 12 45
M  V30 50 1 15 46
M  V30 51 1 16 47
M  V30 52 1 19 48
M  V30 53 1 22 49
M  V30 54 1 25 50
M  V30 55 1 25 51
M  V30 56 1 25 52
M  V30 57 1 26 53
M  V30 58 1 27 54
M  V30 59 1 31 55
M  V30 60 1 31 56
M  V30 END BOND
M  V30 END CTAB
M  END
>  <Dataset>  (815) 
ChEMBL_Kinases

>  <Ligand_Instance>  (815) 
nan

>  <PDB_ID>  (815) 
nan

>  <Standardized_SMILES>  (815) 
CCN(Cc1ccccc1)c1cc(-c2c[nH]c3ncc(-c4cnn(C)c4)cc23)nc(N)n1

>  <Name>  (815) 
nan

>  <Pocket>  (815) 
nan

>  <ATP_Site>  (815) 
nan

>  <Peripheral>  (815) 
nan

>  <Num_H_Atoms_ProtBoundConf>  (815) 
nan

>  <Num_Resolved_Atoms>  (815) 
nan

>  <Num_Not_Resolved_Atoms>  (815) 
nan

$$$$
CHEMBL3652570
     RDKit          3D

  0  0  0  0  0  0  0  0  0  0999 V3000
M  V30 BEGIN CTAB
M  V30 COUNTS 53 57 0 0 0
M  V30 BEGIN ATOM
M  V30 1 C 1.974492 -2.819396 -0.227528 0
M  V30 2 C 2.089317 -1.718707 -1.272896 0
M  V30 3 N 2.379702 -0.439389 -0.656949 0
M  V30 4 C 3.572073 -0.221072 0.081802 0
M  V30 5 C 4.563924 -1.191161 0.270377 0
M  V30 6 C 5.707220 -0.928566 0.998541 0
M  V30 7 C 5.907535 0.313746 1.567958 0
M  V30 8 Cl 7.352952 0.693079 2.505692 0
M  V30 9 C 4.965152 1.326870 1.421797 0
M  V30 10 C 3.855045 0.982870 0.682503 0
M  V30 11 C 1.472012 0.650597 -0.788716 0
M  V30 12 C 0.206411 0.560693 -0.252495 0
M  V30 13 C -0.753326 1.529893 -0.304681 0
M  V30 14 C -2.099637 1.565979 0.220974 0
M  V30 15 C -2.828764 2.739796 0.240650 0
M  V30 16 N -4.049366 2.509298 0.754493 0
M  V30 17 C -4.192128 1.219313 1.090707 0
M  V30 18 N -5.213695 0.524223 1.620276 0
M  V30 19 C -5.027697 -0.815136 1.830131 0
M  V30 20 C -3.833558 -1.419689 1.506900 0
M  V30 21 C -3.757473 -2.853372 1.773624 0
M  V30 22 C -4.820778 -3.737450 1.706721 0
M  V30 23 N -4.394979 -4.979639 2.009371 0
M  V30 24 N -3.079148 -4.923139 2.271607 0
M  V30 25 C -2.198399 -6.030235 2.646513 0
M  V30 26 C -2.654467 -3.639684 2.137642 0
M  V30 27 C -2.806476 -0.680278 0.966445 0
M  V30 28 C -2.986112 0.662376 0.754395 0
M  V30 29 N -0.320457 2.620895 -0.955288 0
M  V30 30 C 0.893165 2.782018 -1.502138 0
M  V30 31 N 1.179079 4.028938 -2.161338 0
M  V30 32 N 1.795353 1.788728 -1.417991 0
M  V30 33 H 0.918507 -3.150561 -0.111266 0
M  V30 34 H 2.601886 -3.663494 -0.553825 0
M  V30 35 H 2.295466 -2.507562 0.777503 0
M  V30 36 H 2.790908 -1.993648 -2.085998 0
M  V30 37 H 1.080605 -1.641585 -1.769547 0
M  V30 38 H 4.438163 -2.163529 -0.165153 0
M  V30 39 H 6.463848 -1.713363 1.126699 0
M  V30 40 H 5.095437 2.304499 1.854719 0
M  V30 41 H 3.124193 1.799991 0.580803 0
M  V30 42 H -0.006921 -0.340847 0.247929 0
M  V30 43 H -2.588841 3.767794 -0.076237 0
M  V30 44 H -4.829219 3.196819 0.900112 0
M  V30 45 H -5.912659 -1.296647 2.263971 0
M  V30 46 H -5.840828 -3.477822 1.451052 0
M  V30 47 H -1.361741 -5.650864 3.270150 0
M  V30 48 H -1.745770 -6.489199 1.742864 0
M  V30 49 H -2.824213 -6.724054 3.222143 0
M  V30 50 H -1.674836 -3.193320 2.263209 0
M  V30 51 H -1.922953 -1.198954 0.733089 0
M  V30 52 H 1.383352 5.024346 -1.930168 0
M  V30 53 H 1.204707 3.995616 -3.193545 0
M  V30 END ATOM
M  V30 BEGIN BOND
M  V30 1 1 1 2
M  V30 2 1 2 3
M  V30 3 1 3 4
M  V30 4 2 4 5
M  V30 5 1 5 6
M  V30 6 2 6 7
M  V30 7 1 7 8
M  V30 8 1 7 9
M  V30 9 2 9 10
M  V30 10 1 3 11
M  V30 11 2 11 12
M  V30 12 1 12 13
M  V30 13 1 13 14
M  V30 14 2 14 15
M  V30 15 1 15 16
M  V30 16 1 16 17
M  V30 17 2 17 18
M  V30 18 1 18 19
M  V30 19 2 19 20
M  V30 20 1 20 21
M  V30 21 1 21 22
M  V30 22 2 22 23
M  V30 23 1 23 24
M  V30 24 1 24 25
M  V30 25 1 24 26
M  V30 26 1 20 27
M  V30 27 2 27 28
M  V30 28 2 13 29
M  V30 29 1 29 30
M  V30 30 1 30 31
M  V30 31 2 30 32
M  V30 32 1 10 4
M  V30 33 1 32 11
M  V30 34 1 28 14
M  V30 35 1 28 17
M  V30 36 2 26 21
M  V30 37 1 1 33
M  V30 38 1 1 34
M  V30 39 1 1 35
M  V30 40 1 2 36
M  V30 41 1 2 37
M  V30 42 1 5 38
M  V30 43 1 6 39
M  V30 44 1 9 40
M  V30 45 1 10 41
M  V30 46 1 12 42
M  V30 47 1 15 43
M  V30 48 1 16 44
M  V30 49 1 19 45
M  V30 50 1 22 46
M  V30 51 1 25 47
M  V30 52 1 25 48
M  V30 53 1 25 49
M  V30 54 1 26 50
M  V30 55 1 27 51
M  V30 56 1 31 52
M  V30 57 1 31 53
M  V30 END BOND
M  V30 END CTAB
M  END
>  <Dataset>  (816) 
ChEMBL_Kinases

>  <Ligand_Instance>  (816) 
nan

>  <PDB_ID>  (816) 
nan

>  <Standardized_SMILES>  (816) 
CCN(c1ccc(Cl)cc1)c1cc(-c2c[nH]c3ncc(-c4cnn(C)c4)cc23)nc(N)n1

>  <Name>  (816) 
nan

>  <Pocket>  (816) 
nan

>  <ATP_Site>  (816) 
nan

>  <Peripheral>  (816) 
nan

>  <Num_H_Atoms_ProtBoundConf>  (816) 
nan

>  <Num_Resolved_Atoms>  (816) 
nan

>  <Num_Not_Resolved_Atoms>  (816) 
nan

$$$$
CHEMBL3652569
     RDKit          3D

  0  0  0  0  0  0  0  0  0  0999 V3000
M  V30 BEGIN CTAB
M  V30 COUNTS 53 57 0 0 0
M  V30 BEGIN ATOM
M  V30 1 C 1.118361 -3.918311 0.977096 0
M  V30 2 C 1.960614 -3.378342 -0.146909 0
M  V30 3 N 2.372302 -2.004506 0.037810 0
M  V30 4 C 3.187634 -1.616935 1.142425 0
M  V30 5 C 3.649226 -2.485407 2.122501 0
M  V30 6 C 4.437347 -2.103859 3.177549 0
M  V30 7 C 4.802774 -0.781146 3.287252 0
M  V30 8 C 4.392584 0.151012 2.363423 0
M  V30 9 C 3.603688 -0.316696 1.335688 0
M  V30 10 C 2.003129 -0.956093 -0.846834 0
M  V30 11 C 0.824041 -0.291682 -0.717195 0
M  V30 12 C 0.357874 0.735816 -1.485219 0
M  V30 13 C -0.859706 1.506931 -1.403392 0
M  V30 14 C -1.005861 2.678860 -2.128015 0
M  V30 15 N -2.221395 3.201997 -1.902752 0
M  V30 16 C -2.931244 2.444365 -1.052054 0
M  V30 17 N -4.163537 2.503935 -0.517955 0
M  V30 18 C -4.573837 1.519372 0.328759 0
M  V30 19 C -3.749315 0.439085 0.663806 0
M  V30 20 C -4.287392 -0.561966 1.577824 0
M  V30 21 C -5.582980 -0.961688 1.714452 0
M  V30 22 N -5.574065 -1.903379 2.680283 0
M  V30 23 N -4.372174 -2.105209 3.139749 0
M  V30 24 C -3.941082 -3.026400 4.170495 0
M  V30 25 C -3.548597 -1.295520 2.484248 0
M  V30 26 C -2.502976 0.433007 0.088287 0
M  V30 27 C -2.065388 1.408928 -0.763711 0
M  V30 28 N 1.233723 1.049265 -2.444174 0
M  V30 29 C 2.420360 0.461902 -2.661033 0
M  V30 30 N 3.206136 0.955707 -3.746652 0
M  V30 31 N 2.805688 -0.546076 -1.857980 0
M  V30 32 H 0.934155 -3.193013 1.797198 0
M  V30 33 H 1.560219 -4.878193 1.303787 0
M  V30 34 H 0.095864 -4.196523 0.599984 0
M  V30 35 H 2.882483 -4.004884 -0.293119 0
M  V30 36 H 1.341978 -3.392281 -1.092900 0
M  V30 37 H 3.376763 -3.524302 2.057929 0
M  V30 38 H 4.772906 -2.815566 3.916608 0
M  V30 39 H 5.433809 -0.396672 4.104391 0
M  V30 40 H 4.667096 1.195680 2.428646 0
M  V30 41 H 3.290533 0.446142 0.612736 0
M  V30 42 H 0.224214 -0.626697 0.097773 0
M  V30 43 H -0.333210 3.210065 -2.809671 0
M  V30 44 H -2.636137 4.086922 -2.303294 0
M  V30 45 H -5.586291 1.592921 0.751565 0
M  V30 46 H -6.428813 -0.565133 1.131125 0
M  V30 47 H -4.141205 -2.556715 5.156793 0
M  V30 48 H -4.540945 -3.964440 4.166409 0
M  V30 49 H -2.859946 -3.218418 4.112957 0
M  V30 50 H -2.461031 -1.226572 2.643906 0
M  V30 51 H -1.912846 -0.412139 0.361527 0
M  V30 52 H 3.880766 1.742059 -3.652719 0
M  V30 53 H 3.029771 0.446808 -4.641797 0
M  V30 END ATOM
M  V30 BEGIN BOND
M  V30 1 1 1 2
M  V30 2 1 2 3
M  V30 3 1 3 4
M  V30 4 2 4 5
M  V30 5 1 5 6
M  V30 6 2 6 7
M  V30 7 1 7 8
M  V30 8 2 8 9
M  V30 9 1 3 10
M  V30 10 2 10 11
M  V30 11 1 11 12
M  V30 12 1 12 13
M  V30 13 2 13 14
M  V30 14 1 14 15
M  V30 15 1 15 16
M  V30 16 2 16 17
M  V30 17 1 17 18
M  V30 18 2 18 19
M  V30 19 1 19 20
M  V30 20 1 20 21
M  V30 21 2 21 22
M  V30 22 1 22 23
M  V30 23 1 23 24
M  V30 24 1 23 25
M  V30 25 1 19 26
M  V30 26 2 26 27
M  V30 27 2 12 28
M  V30 28 1 28 29
M  V30 29 1 29 30
M  V30 30 2 29 31
M  V30 31 1 9 4
M  V30 32 1 31 10
M  V30 33 1 27 13
M  V30 34 1 27 16
M  V30 35 2 25 20
M  V30 36 1 1 32
M  V30 37 1 1 33
M  V30 38 1 1 34
M  V30 39 1 2 35
M  V30 40 1 2 36
M  V30 41 1 5 37
M  V30 42 1 6 38
M  V30 43 1 7 39
M  V30 44 1 8 40
M  V30 45 1 9 41
M  V30 46 1 11 42
M  V30 47 1 14 43
M  V30 48 1 15 44
M  V30 49 1 18 45
M  V30 50 1 21 46
M  V30 51 1 24 47
M  V30 52 1 24 48
M  V30 53 1 24 49
M  V30 54 1 25 50
M  V30 55 1 26 51
M  V30 56 1 30 52
M  V30 57 1 30 53
M  V30 END BOND
M  V30 END CTAB
M  END
>  <Dataset>  (817) 
ChEMBL_Kinases

>  <Ligand_Instance>  (817) 
nan

>  <PDB_ID>  (817) 
nan

>  <Standardized_SMILES>  (817) 
CCN(c1ccccc1)c1cc(-c2c[nH]c3ncc(-c4cnn(C)c4)cc23)nc(N)n1

>  <Name>  (817) 
nan

>  <Pocket>  (817) 
nan

>  <ATP_Site>  (817) 
nan

>  <Peripheral>  (817) 
nan

>  <Num_H_Atoms_ProtBoundConf>  (817) 
nan

>  <Num_Resolved_Atoms>  (817) 
nan

>  <Num_Not_Resolved_Atoms>  (817) 
nan

$$$$
CHEMBL3652568
     RDKit          3D

  0  0  0  0  0  0  0  0  0  0999 V3000
M  V30 BEGIN CTAB
M  V30 COUNTS 50 54 0 0 0
M  V30 BEGIN ATOM
M  V30 1 C 1.379234 -1.574992 2.235896 0
M  V30 2 N 2.639752 -1.195036 1.633706 0
M  V30 3 C 3.871525 -1.668201 2.061166 0
M  V30 4 C 5.131552 -1.397005 1.592865 0
M  V30 5 C 6.330841 -1.891515 2.037034 0
M  V30 6 C 6.305919 -2.792321 3.105621 0
M  V30 7 C 5.055604 -3.115378 3.634852 0
M  V30 8 C 3.907908 -2.573099 3.128695 0
M  V30 9 C 2.494316 -0.296726 0.541609 0
M  V30 10 C 1.316025 0.049838 -0.004596 0
M  V30 11 C 0.932641 0.871538 -1.009332 0
M  V30 12 C -0.331233 1.219367 -1.589364 0
M  V30 13 C -0.391294 2.040820 -2.729833 0
M  V30 14 N -1.678795 2.206309 -3.050863 0
M  V30 15 C -2.511991 1.571993 -2.232476 0
M  V30 16 N -3.865010 1.459987 -2.169844 0
M  V30 17 C -4.338089 0.695539 -1.140414 0
M  V30 18 C -3.546589 0.046643 -0.185810 0
M  V30 19 C -4.195150 -0.741927 0.853832 0
M  V30 20 C -3.671700 -0.890766 2.118861 0
M  V30 21 N -4.564602 -1.679110 2.744378 0
M  V30 22 N -5.556630 -1.992565 1.936390 0
M  V30 23 C -6.716442 -2.831209 2.253590 0
M  V30 24 C -5.398384 -1.434034 0.707623 0
M  V30 25 C -2.201795 0.226202 -0.342904 0
M  V30 26 C -1.655591 0.972643 -1.341907 0
M  V30 27 N 2.042821 1.436925 -1.534649 0
M  V30 28 C 3.292982 1.205556 -1.114014 0
M  V30 29 N 4.387301 1.866438 -1.750183 0
M  V30 30 N 3.492203 0.359188 -0.102727 0
M  V30 31 H 0.773600 -2.161378 1.482760 0
M  V30 32 H 0.798273 -0.638560 2.439688 0
M  V30 33 H 1.440949 -2.221739 3.107703 0
M  V30 34 H 5.234648 -0.720354 0.782411 0
M  V30 35 H 7.277094 -1.620090 1.601190 0
M  V30 36 H 7.246677 -3.182953 3.457282 0
M  V30 37 H 5.165945 -3.815070 4.450424 0
M  V30 38 H 3.092245 -2.970576 3.690046 0
M  V30 39 H 0.471404 -0.453361 0.459292 0
M  V30 40 H 0.384245 2.514406 -3.328701 0
M  V30 41 H -2.050662 2.776515 -3.866695 0
M  V30 42 H -5.421383 0.639788 -1.139133 0
M  V30 43 H -2.762018 -0.479010 2.529289 0
M  V30 44 H -6.590430 -3.185230 3.308064 0
M  V30 45 H -7.638753 -2.235104 2.240923 0
M  V30 46 H -6.751393 -3.727786 1.611021 0
M  V30 47 H -6.021998 -1.492301 -0.174826 0
M  V30 48 H -1.633268 -0.270211 0.395146 0
M  V30 49 H 5.155844 1.620683 -2.418921 0
M  V30 50 H 4.773172 2.825793 -1.744901 0
M  V30 END ATOM
M  V30 BEGIN BOND
M  V30 1 1 1 2
M  V30 2 1 2 3
M  V30 3 2 3 4
M  V30 4 1 4 5
M  V30 5 2 5 6
M  V30 6 1 6 7
M  V30 7 2 7 8
M  V30 8 1 2 9
M  V30 9 2 9 10
M  V30 10 1 10 11
M  V30 11 1 11 12
M  V30 12 2 12 13
M  V30 13 1 13 14
M  V30 14 1 14 15
M  V30 15 2 15 16
M  V30 16 1 16 17
M  V30 17 2 17 18
M  V30 18 1 18 19
M  V30 19 1 19 20
M  V30 20 2 20 21
M  V30 21 1 21 22
M  V30 22 1 22 23
M  V30 23 1 22 24
M  V30 24 1 18 25
M  V30 25 2 25 26
M  V30 26 2 11 27
M  V30 27 1 27 28
M  V30 28 1 28 29
M  V30 29 2 28 30
M  V30 30 1 8 3
M  V30 31 1 30 9
M  V30 32 1 26 12
M  V30 33 1 26 15
M  V30 34 2 24 19
M  V30 35 1 1 31
M  V30 36 1 1 32
M  V30 37 1 1 33
M  V30 38 1 4 34
M  V30 39 1 5 35
M  V30 40 1 6 36
M  V30 41 1 7 37
M  V30 42 1 8 38
M  V30 43 1 10 39
M  V30 44 1 13 40
M  V30 45 1 14 41
M  V30 46 1 17 42
M  V30 47 1 20 43
M  V30 48 1 23 44
M  V30 49 1 23 45
M  V30 50 1 23 46
M  V30 51 1 24 47
M  V30 52 1 25 48
M  V30 53 1 29 49
M  V30 54 1 29 50
M  V30 END BOND
M  V30 END CTAB
M  END
>  <Dataset>  (818) 
ChEMBL_Kinases

>  <Ligand_Instance>  (818) 
nan

>  <PDB_ID>  (818) 
nan

>  <Standardized_SMILES>  (818) 
CN(c1ccccc1)c1cc(-c2c[nH]c3ncc(-c4cnn(C)c4)cc23)nc(N)n1

>  <Name>  (818) 
nan

>  <Pocket>  (818) 
nan

>  <ATP_Site>  (818) 
nan

>  <Peripheral>  (818) 
nan

>  <Num_H_Atoms_ProtBoundConf>  (818) 
nan

>  <Num_Resolved_Atoms>  (818) 
nan

>  <Num_Not_Resolved_Atoms>  (818) 
nan

$$$$
CHEMBL3652567
     RDKit          3D

  0  0  0  0  0  0  0  0  0  0999 V3000
M  V30 BEGIN CTAB
M  V30 COUNTS 50 54 0 0 0
M  V30 BEGIN ATOM
M  V30 1 C -4.500542 -3.478705 0.506587 0
M  V30 2 N -3.174614 -3.291407 -0.047533 0
M  V30 3 C -2.327713 -2.249273 0.424400 0
M  V30 4 C -1.054362 -2.010212 -0.054162 0
M  V30 5 C -0.265822 -0.973246 0.443452 0
M  V30 6 C 1.069924 -0.808702 -0.135486 0
M  V30 7 C 1.686921 -1.536121 -1.114614 0
M  V30 8 N 2.905881 -1.041123 -1.336558 0
M  V30 9 C 3.156347 0.021765 -0.530241 0
M  V30 10 N 4.194376 0.857690 -0.351810 0
M  V30 11 C 4.166298 1.864149 0.555405 0
M  V30 12 C 3.018727 2.012964 1.308969 0
M  V30 13 C 2.973518 3.094044 2.291145 0
M  V30 14 C 1.780556 3.740631 2.625440 0
M  V30 15 N 2.094538 4.672916 3.548456 0
M  V30 16 N 3.397154 4.637873 3.798618 0
M  V30 17 C 4.080042 5.513323 4.749015 0
M  V30 18 C 3.980347 3.682946 3.049350 0
M  V30 19 C 1.931361 1.171548 1.152525 0
M  V30 20 C 2.000908 0.153187 0.212473 0
M  V30 21 N -0.782682 -0.192240 1.422086 0
M  V30 22 C -2.023007 -0.419506 1.893200 0
M  V30 23 N -2.544650 0.402887 2.912051 0
M  V30 24 N -2.776271 -1.435515 1.395002 0
M  V30 25 C -2.699648 -4.164360 -1.090338 0
M  V30 26 C -1.608536 -5.003584 -1.088038 0
M  V30 27 C -1.371887 -5.737984 -2.219100 0
M  V30 28 C -2.154044 -5.686823 -3.348647 0
M  V30 29 C -3.260776 -4.833295 -3.346322 0
M  V30 30 C -3.522824 -4.074034 -2.204262 0
M  V30 31 Cl -4.941890 -3.055234 -2.356010 0
M  V30 32 H -5.030658 -4.252073 -0.103468 0
M  V30 33 H -5.076948 -2.530338 0.567005 0
M  V30 34 H -4.424666 -3.857243 1.566716 0
M  V30 35 H -0.674642 -2.654551 -0.835510 0
M  V30 36 H 1.204120 -2.383674 -1.603846 0
M  V30 37 H 3.570196 -1.436533 -2.046934 0
M  V30 38 H 5.039282 2.519565 0.663120 0
M  V30 39 H 0.782448 3.525726 2.212157 0
M  V30 40 H 5.166453 5.332373 4.707311 0
M  V30 41 H 3.738500 5.251786 5.775237 0
M  V30 42 H 3.847175 6.576383 4.561020 0
M  V30 43 H 5.007551 3.383477 2.997791 0
M  V30 44 H 1.039120 1.313541 1.762105 0
M  V30 45 H -3.037680 1.326180 2.880846 0
M  V30 46 H -2.334535 -0.120813 3.813165 0
M  V30 47 H -1.058493 -4.980443 -0.172048 0
M  V30 48 H -0.509607 -6.388861 -2.190170 0
M  V30 49 H -1.908661 -6.292791 -4.203866 0
M  V30 50 H -3.865064 -4.807704 -4.246417 0
M  V30 END ATOM
M  V30 BEGIN BOND
M  V30 1 1 1 2
M  V30 2 1 2 3
M  V30 3 2 3 4
M  V30 4 1 4 5
M  V30 5 1 5 6
M  V30 6 2 6 7
M  V30 7 1 7 8
M  V30 8 1 8 9
M  V30 9 2 9 10
M  V30 10 1 10 11
M  V30 11 2 11 12
M  V30 12 1 12 13
M  V30 13 1 13 14
M  V30 14 2 14 15
M  V30 15 1 15 16
M  V30 16 1 16 17
M  V30 17 1 16 18
M  V30 18 1 12 19
M  V30 19 2 19 20
M  V30 20 2 5 21
M  V30 21 1 21 22
M  V30 22 1 22 23
M  V30 23 2 22 24
M  V30 24 1 2 25
M  V30 25 2 25 26
M  V30 26 1 26 27
M  V30 27 2 27 28
M  V30 28 1 28 29
M  V30 29 2 29 30
M  V30 30 1 30 31
M  V30 31 1 24 3
M  V30 32 1 30 25
M  V30 33 1 20 6
M  V30 34 1 20 9
M  V30 35 2 18 13
M  V30 36 1 1 32
M  V30 37 1 1 33
M  V30 38 1 1 34
M  V30 39 1 4 35
M  V30 40 1 7 36
M  V30 41 1 8 37
M  V30 42 1 11 38
M  V30 43 1 14 39
M  V30 44 1 17 40
M  V30 45 1 17 41
M  V30 46 1 17 42
M  V30 47 1 18 43
M  V30 48 1 19 44
M  V30 49 1 23 45
M  V30 50 1 23 46
M  V30 51 1 26 47
M  V30 52 1 27 48
M  V30 53 1 28 49
M  V30 54 1 29 50
M  V30 END BOND
M  V30 END CTAB
M  END
>  <Dataset>  (819) 
ChEMBL_Kinases

>  <Ligand_Instance>  (819) 
nan

>  <PDB_ID>  (819) 
nan

>  <Standardized_SMILES>  (819) 
CN(c1cc(-c2c[nH]c3ncc(-c4cnn(C)c4)cc23)nc(N)n1)c1ccccc1Cl

>  <Name>  (819) 
nan

>  <Pocket>  (819) 
nan

>  <ATP_Site>  (819) 
nan

>  <Peripheral>  (819) 
nan

>  <Num_H_Atoms_ProtBoundConf>  (819) 
nan

>  <Num_Resolved_Atoms>  (819) 
nan

>  <Num_Not_Resolved_Atoms>  (819) 
nan

$$$$
CHEMBL3652566
     RDKit          3D

  0  0  0  0  0  0  0  0  0  0999 V3000
M  V30 BEGIN CTAB
M  V30 COUNTS 50 54 0 0 0
M  V30 BEGIN ATOM
M  V30 1 C 0.303832 -1.720964 2.092846 0
M  V30 2 N 0.818452 -2.411712 0.902193 0
M  V30 3 C -0.366765 -2.864701 0.223208 0
M  V30 4 C -1.020922 -1.982032 -0.604534 0
M  V30 5 C -2.166108 -2.291525 -1.286697 0
M  V30 6 C -2.991348 -1.518626 -2.177927 0
M  V30 7 C -4.052549 -2.045529 -2.865365 0
M  V30 8 N -4.660349 -1.108838 -3.600254 0
M  V30 9 C -4.036312 0.055058 -3.430726 0
M  V30 10 N -4.275720 1.274084 -3.939573 0
M  V30 11 C -3.483487 2.325494 -3.593125 0
M  V30 12 C -2.414755 2.122336 -2.699812 0
M  V30 13 C -1.593739 3.283646 -2.339088 0
M  V30 14 C -2.195319 4.519321 -2.264812 0
M  V30 15 N -1.275484 5.470146 -1.921228 0
M  V30 16 N -0.110877 4.811368 -1.787056 0
M  V30 17 C 1.178243 5.392195 -1.428690 0
M  V30 18 C -0.259742 3.500021 -2.028663 0
M  V30 19 C -2.226750 0.849226 -2.216563 0
M  V30 20 C -3.019283 -0.203418 -2.562202 0
M  V30 21 N -2.559045 -3.553298 -1.047646 0
M  V30 22 C -1.962684 -4.443645 -0.260637 0
M  V30 23 N -2.512115 -5.746855 -0.121085 0
M  V30 24 N -0.820925 -4.109987 0.411946 0
M  V30 25 C 2.232409 -2.465202 0.731823 0
M  V30 26 C 2.895688 -1.976605 -0.376951 0
M  V30 27 C 4.285683 -2.076920 -0.456434 0
M  V30 28 C 4.953653 -2.677460 0.607302 0
M  V30 29 C 4.247752 -3.145514 1.683004 0
M  V30 30 C 2.871611 -3.056001 1.782143 0
M  V30 31 F 2.308334 -3.561514 2.908778 0
M  V30 32 H 1.112021 -1.112962 2.522418 0
M  V30 33 H -0.488729 -0.970643 1.802633 0
M  V30 34 H -0.178433 -2.430007 2.777361 0
M  V30 35 H -0.596292 -1.016390 -0.718935 0
M  V30 36 H -4.443866 -3.066477 -2.890538 0
M  V30 37 H -5.492771 -1.226600 -4.221175 0
M  V30 38 H -3.632815 3.340709 -3.980084 0
M  V30 39 H -3.180840 4.950763 -2.398154 0
M  V30 40 H 1.065428 6.373552 -0.952872 0
M  V30 41 H 1.836170 5.410252 -2.334038 0
M  V30 42 H 1.667894 4.701760 -0.707016 0
M  V30 43 H 0.408663 2.653970 -2.026229 0
M  V30 44 H -1.426573 0.752451 -1.553189 0
M  V30 45 H -3.236596 -5.542956 0.601645 0
M  V30 46 H -1.911304 -6.276439 -0.821470 0
M  V30 47 H 2.351997 -1.526662 -1.168988 0
M  V30 48 H 4.828878 -1.699979 -1.318641 0
M  V30 49 H 6.027835 -2.722091 0.480587 0
M  V30 50 H 4.882646 -3.581058 2.423999 0
M  V30 END ATOM
M  V30 BEGIN BOND
M  V30 1 1 1 2
M  V30 2 1 2 3
M  V30 3 2 3 4
M  V30 4 1 4 5
M  V30 5 1 5 6
M  V30 6 2 6 7
M  V30 7 1 7 8
M  V30 8 1 8 9
M  V30 9 2 9 10
M  V30 10 1 10 11
M  V30 11 2 11 12
M  V30 12 1 12 13
M  V30 13 1 13 14
M  V30 14 2 14 15
M  V30 15 1 15 16
M  V30 16 1 16 17
M  V30 17 1 16 18
M  V30 18 1 12 19
M  V30 19 2 19 20
M  V30 20 2 5 21
M  V30 21 1 21 22
M  V30 22 1 22 23
M  V30 23 2 22 24
M  V30 24 1 2 25
M  V30 25 2 25 26
M  V30 26 1 26 27
M  V30 27 2 27 28
M  V30 28 1 28 29
M  V30 29 2 29 30
M  V30 30 1 30 31
M  V30 31 1 24 3
M  V30 32 1 30 25
M  V30 33 1 20 6
M  V30 34 1 20 9
M  V30 35 2 18 13
M  V30 36 1 1 32
M  V30 37 1 1 33
M  V30 38 1 1 34
M  V30 39 1 4 35
M  V30 40 1 7 36
M  V30 41 1 8 37
M  V30 42 1 11 38
M  V30 43 1 14 39
M  V30 44 1 17 40
M  V30 45 1 17 41
M  V30 46 1 17 42
M  V30 47 1 18 43
M  V30 48 1 19 44
M  V30 49 1 23 45
M  V30 50 1 23 46
M  V30 51 1 26 47
M  V30 52 1 27 48
M  V30 53 1 28 49
M  V30 54 1 29 50
M  V30 END BOND
M  V30 END CTAB
M  END
>  <Dataset>  (820) 
ChEMBL_Kinases

>  <Ligand_Instance>  (820) 
nan

>  <PDB_ID>  (820) 
nan

>  <Standardized_SMILES>  (820) 
CN(c1cc(-c2c[nH]c3ncc(-c4cnn(C)c4)cc23)nc(N)n1)c1ccccc1F

>  <Name>  (820) 
nan

>  <Pocket>  (820) 
nan

>  <ATP_Site>  (820) 
nan

>  <Peripheral>  (820) 
nan

>  <Num_H_Atoms_ProtBoundConf>  (820) 
nan

>  <Num_Resolved_Atoms>  (820) 
nan

>  <Num_Not_Resolved_Atoms>  (820) 
nan

$$$$
CHEMBL3652565
     RDKit          3D

  0  0  0  0  0  0  0  0  0  0999 V3000
M  V30 BEGIN CTAB
M  V30 COUNTS 50 54 0 0 0
M  V30 BEGIN ATOM
M  V30 1 C 0.936142 -1.290502 2.497381 0
M  V30 2 N 2.155630 -1.589066 1.779341 0
M  V30 3 C 3.142466 -2.443073 2.272345 0
M  V30 4 C 4.342589 -2.804424 1.710134 0
M  V30 5 C 5.291752 -3.655466 2.215836 0
M  V30 6 C 5.043027 -4.241395 3.442701 0
M  V30 7 C 3.836655 -3.918828 4.075682 0
M  V30 8 Cl 3.634271 -4.723710 5.624952 0
M  V30 9 C 2.944187 -3.054253 3.492303 0
M  V30 10 C 2.236562 -0.940081 0.517318 0
M  V30 11 C 1.215846 -0.204469 -0.001386 0
M  V30 12 C 1.146323 0.477148 -1.180944 0
M  V30 13 C 0.108337 1.279254 -1.770190 0
M  V30 14 C 0.361681 2.061808 -2.906255 0
M  V30 15 N -0.764863 2.689243 -3.254720 0
M  V30 16 C -1.795550 2.403065 -2.444058 0
M  V30 17 N -3.091708 2.743885 -2.358473 0
M  V30 18 C -3.886537 2.251446 -1.392505 0
M  V30 19 C -3.348230 1.376734 -0.473469 0
M  V30 20 C -4.221560 0.851216 0.564278 0
M  V30 21 C -5.303771 1.340045 1.241167 0
M  V30 22 N -5.697240 0.364575 2.101873 0
M  V30 23 N -4.925955 -0.694861 1.998239 0
M  V30 24 C -5.036503 -1.941673 2.758411 0
M  V30 25 C -4.003309 -0.439377 1.062895 0
M  V30 26 C -2.020785 1.027435 -0.560089 0
M  V30 27 C -1.219508 1.535787 -1.547952 0
M  V30 28 N 2.292070 0.356068 -1.873413 0
M  V30 29 C 3.368717 -0.334989 -1.480118 0
M  V30 30 N 4.520785 -0.382812 -2.313254 0
M  V30 31 N 3.298296 -0.953906 -0.303891 0
M  V30 32 H 0.033491 -1.627987 1.943732 0
M  V30 33 H 0.907887 -1.622941 3.544650 0
M  V30 34 H 0.862126 -0.155347 2.528298 0
M  V30 35 H 4.613567 -2.393739 0.755034 0
M  V30 36 H 6.210183 -3.882940 1.702190 0
M  V30 37 H 5.781282 -4.914587 3.854531 0
M  V30 38 H 2.106508 -2.967732 4.156401 0
M  V30 39 H 0.335502 -0.136464 0.604596 0
M  V30 40 H 1.273835 2.223792 -3.504792 0
M  V30 41 H -0.891433 3.350867 -4.070391 0
M  V30 42 H -4.933391 2.581167 -1.394485 0
M  V30 43 H -5.662060 2.325528 1.026854 0
M  V30 44 H -6.096534 -2.297398 2.784842 0
M  V30 45 H -4.498557 -2.752197 2.189411 0
M  V30 46 H -4.552458 -1.868904 3.735418 0
M  V30 47 H -3.236123 -1.155289 0.779811 0
M  V30 48 H -1.693631 0.339333 0.183368 0
M  V30 49 H 5.048365 -1.294263 -2.267703 0
M  V30 50 H 4.733146 0.462841 -2.876639 0
M  V30 END ATOM
M  V30 BEGIN BOND
M  V30 1 1 1 2
M  V30 2 1 2 3
M  V30 3 2 3 4
M  V30 4 1 4 5
M  V30 5 2 5 6
M  V30 6 1 6 7
M  V30 7 1 7 8
M  V30 8 2 7 9
M  V30 9 1 2 10
M  V30 10 2 10 11
M  V30 11 1 11 12
M  V30 12 1 12 13
M  V30 13 2 13 14
M  V30 14 1 14 15
M  V30 15 1 15 16
M  V30 16 2 16 17
M  V30 17 1 17 18
M  V30 18 2 18 19
M  V30 19 1 19 20
M  V30 20 1 20 21
M  V30 21 2 21 22
M  V30 22 1 22 23
M  V30 23 1 23 24
M  V30 24 1 23 25
M  V30 25 1 19 26
M  V30 26 2 26 27
M  V30 27 2 12 28
M  V30 28 1 28 29
M  V30 29 1 29 30
M  V30 30 2 29 31
M  V30 31 1 9 3
M  V30 32 1 31 10
M  V30 33 1 27 13
M  V30 34 1 27 16
M  V30 35 2 25 20
M  V30 36 1 1 32
M  V30 37 1 1 33
M  V30 38 1 1 34
M  V30 39 1 4 35
M  V30 40 1 5 36
M  V30 41 1 6 37
M  V30 42 1 9 38
M  V30 43 1 11 39
M  V30 44 1 14 40
M  V30 45 1 15 41
M  V30 46 1 18 42
M  V30 47 1 21 43
M  V30 48 1 24 44
M  V30 49 1 24 45
M  V30 50 1 24 46
M  V30 51 1 25 47
M  V30 52 1 26 48
M  V30 53 1 30 49
M  V30 54 1 30 50
M  V30 END BOND
M  V30 END CTAB
M  END
>  <Dataset>  (821) 
ChEMBL_Kinases

>  <Ligand_Instance>  (821) 
nan

>  <PDB_ID>  (821) 
nan

>  <Standardized_SMILES>  (821) 
CN(c1cccc(Cl)c1)c1cc(-c2c[nH]c3ncc(-c4cnn(C)c4)cc23)nc(N)n1

>  <Name>  (821) 
nan

>  <Pocket>  (821) 
nan

>  <ATP_Site>  (821) 
nan

>  <Peripheral>  (821) 
nan

>  <Num_H_Atoms_ProtBoundConf>  (821) 
nan

>  <Num_Resolved_Atoms>  (821) 
nan

>  <Num_Not_Resolved_Atoms>  (821) 
nan

$$$$
CHEMBL3652564
     RDKit          3D

  0  0  0  0  0  0  0  0  0  0999 V3000
M  V30 BEGIN CTAB
M  V30 COUNTS 58 63 0 0 0
M  V30 BEGIN ATOM
M  V30 1 C 5.140980 -2.438876 6.276962 0
M  V30 2 N 5.084028 -1.274575 5.388618 0
M  V30 3 C 4.458394 -1.266854 4.199807 0
M  V30 4 C 4.612048 -0.002430 3.644423 0
M  V30 5 C 4.137930 0.554560 2.376054 0
M  V30 6 C 4.862199 1.531999 1.714679 0
M  V30 7 N 4.489049 2.091197 0.549049 0
M  V30 8 C 3.335109 1.686626 -0.030651 0
M  V30 9 N 2.701074 2.045661 -1.171709 0
M  V30 10 C 1.565871 1.330791 -1.292320 0
M  V30 11 C 1.478157 0.484870 -0.182262 0
M  V30 12 C 0.401223 -0.466450 0.092297 0
M  V30 13 C -0.649819 -0.557223 -0.802825 0
M  V30 14 C -1.708841 -1.418096 -0.632831 0
M  V30 15 C -2.852755 -1.522765 -1.589462 0
M  V30 16 C -3.772826 -0.350246 -1.517427 0
M  V30 17 C -3.531365 0.889813 -2.065515 0
M  V30 18 C -4.463753 1.899896 -1.926283 0
M  V30 19 C -5.659139 1.737234 -1.250769 0
M  V30 20 Cl -6.833806 3.036354 -1.084939 0
M  V30 21 C -5.885088 0.478193 -0.704414 0
M  V30 22 C -4.960006 -0.551217 -0.833128 0
M  V30 23 C -3.599838 -2.821079 -1.377752 0
M  V30 24 C -2.789006 -3.782078 -2.255585 0
M  V30 25 C -2.748029 -2.958406 -3.541788 0
M  V30 26 C -2.289584 -1.619489 -3.009221 0
M  V30 27 N -1.693359 -2.196729 0.466630 0
M  V30 28 C -0.673247 -2.133654 1.370070 0
M  V30 29 N -0.625346 -2.942859 2.544486 0
M  V30 30 N 0.344058 -1.277141 1.165770 0
M  V30 31 C 2.593964 0.719249 0.599404 0
M  V30 32 C 2.938407 0.111178 1.805314 0
M  V30 33 C 5.360355 0.746828 4.558940 0
M  V30 34 N 5.611195 -0.082381 5.588342 0
M  V30 35 H 6.150490 -2.394077 6.736286 0
M  V30 36 H 5.001308 -3.351147 5.694714 0
M  V30 37 H 4.336998 -2.383497 7.025838 0
M  V30 38 H 3.909079 -2.045536 3.681219 0
M  V30 39 H 5.807119 1.892695 2.148716 0
M  V30 40 H 3.023325 2.761909 -1.864508 0
M  V30 41 H 0.859943 1.422219 -2.125366 0
M  V30 42 H -0.620273 0.083699 -1.670313 0
M  V30 43 H -2.603652 1.032511 -2.596915 0
M  V30 44 H -4.249868 2.866091 -2.367840 0
M  V30 45 H -6.840502 0.389956 -0.178747 0
M  V30 46 H -5.306922 -1.451723 -0.345161 0
M  V30 47 H -4.643728 -2.761287 -1.752163 0
M  V30 48 H -3.544117 -3.104947 -0.301955 0
M  V30 49 H -3.318960 -4.740324 -2.390699 0
M  V30 50 H -1.777414 -3.853539 -1.855001 0
M  V30 51 H -3.784012 -2.907948 -3.945761 0
M  V30 52 H -2.040648 -3.379762 -4.276636 0
M  V30 53 H -2.689959 -0.784334 -3.610258 0
M  V30 54 H -1.172338 -1.598024 -2.992988 0
M  V30 55 H -1.114519 -2.703339 3.445107 0
M  V30 56 H -0.074886 -3.846004 2.549169 0
M  V30 57 H 2.353220 -0.639826 2.283973 0
M  V30 58 H 5.706690 1.776479 4.524586 0
M  V30 END ATOM
M  V30 BEGIN BOND
M  V30 1 1 1 2
M  V30 2 1 2 3
M  V30 3 2 3 4
M  V30 4 1 4 5
M  V30 5 2 5 6
M  V30 6 1 6 7
M  V30 7 2 7 8
M  V30 8 1 8 9
M  V30 9 1 9 10
M  V30 10 2 10 11
M  V30 11 1 11 12
M  V30 12 2 12 13
M  V30 13 1 13 14
M  V30 14 1 14 15
M  V30 15 1 15 16
M  V30 16 2 16 17
M  V30 17 1 17 18
M  V30 18 2 18 19
M  V30 19 1 19 20
M  V30 20 1 19 21
M  V30 21 2 21 22
M  V30 22 1 15 23
M  V30 23 1 23 24
M  V30 24 1 24 25
M  V30 25 1 25 26
M  V30 26 2 14 27
M  V30 27 1 27 28
M  V30 28 1 28 29
M  V30 29 2 28 30
M  V30 30 1 11 31
M  V30 31 2 31 32
M  V30 32 1 4 33
M  V30 33 2 33 34
M  V30 34 1 34 2
M  V30 35 1 32 5
M  V30 36 1 31 8
M  V30 37 1 30 12
M  V30 38 1 26 15
M  V30 39 1 22 16
M  V30 40 1 1 35
M  V30 41 1 1 36
M  V30 42 1 1 37
M  V30 43 1 3 38
M  V30 44 1 6 39
M  V30 45 1 9 40
M  V30 46 1 10 41
M  V30 47 1 13 42
M  V30 48 1 17 43
M  V30 49 1 18 44
M  V30 50 1 21 45
M  V30 51 1 22 46
M  V30 52 1 23 47
M  V30 53 1 23 48
M  V30 54 1 24 49
M  V30 55 1 24 50
M  V30 56 1 25 51
M  V30 57 1 25 52
M  V30 58 1 26 53
M  V30 59 1 26 54
M  V30 60 1 29 55
M  V30 61 1 29 56
M  V30 62 1 32 57
M  V30 63 1 33 58
M  V30 END BOND
M  V30 END CTAB
M  END
>  <Dataset>  (822) 
ChEMBL_Kinases

>  <Ligand_Instance>  (822) 
nan

>  <PDB_ID>  (822) 
nan

>  <Standardized_SMILES>  (822) 
Cn1cc(-c2cnc3[nH]cc(-c4cc(C5(c6ccc(Cl)cc6)CCCC5)nc(N)n4)c3c2)cn1

>  <Name>  (822) 
nan

>  <Pocket>  (822) 
nan

>  <ATP_Site>  (822) 
nan

>  <Peripheral>  (822) 
nan

>  <Num_H_Atoms_ProtBoundConf>  (822) 
nan

>  <Num_Resolved_Atoms>  (822) 
nan

>  <Num_Not_Resolved_Atoms>  (822) 
nan

$$$$
CHEMBL3652223
     RDKit          3D

  0  0  0  0  0  0  0  0  0  0999 V3000
M  V30 BEGIN CTAB
M  V30 COUNTS 75 79 0 0 0
M  V30 BEGIN ATOM
M  V30 1 C 3.412542 -4.693369 4.751236 0
M  V30 2 N 2.277911 -3.815674 4.614750 0
M  V30 3 C 1.343270 -4.152314 5.696974 0
M  V30 4 C 1.559198 -4.028836 3.396538 0
M  V30 5 C 2.339572 -3.621392 2.156243 0
M  V30 6 C 1.432030 -3.904724 0.986621 0
M  V30 7 N 2.064921 -3.562136 -0.219548 0
M  V30 8 C 1.354510 -3.725790 -1.435894 0
M  V30 9 C 0.916521 -2.327370 -1.873314 0
M  V30 10 N 2.156109 -1.564004 -2.073861 0
M  V30 11 C 2.090514 -0.248329 -2.623227 0
M  V30 12 C 3.171737 0.474832 -3.073569 0
M  V30 13 C 3.065419 1.748802 -3.581372 0
M  V30 14 C 1.835042 2.370857 -3.661697 0
M  V30 15 O 1.718899 3.637620 -4.165436 0
M  V30 16 C 1.828616 4.761047 -3.281295 0
M  V30 17 F 1.682960 5.925986 -4.010388 0
M  V30 18 F 3.132026 4.830467 -2.767026 0
M  V30 19 F 0.923506 4.683317 -2.232403 0
M  V30 20 C 0.749381 1.648448 -3.210157 0
M  V30 21 N -0.547422 2.218033 -3.247388 0
M  V30 22 C -1.702724 1.538969 -2.787857 0
M  V30 23 N -2.652385 0.759319 -3.336264 0
M  V30 24 C -3.660260 0.230727 -2.628694 0
M  V30 25 C -3.814461 0.437776 -1.274555 0
M  V30 26 C -2.828808 1.243685 -0.718114 0
M  V30 27 N -1.830903 1.759449 -1.454149 0
M  V30 28 C -2.964045 1.474399 0.735954 0
M  V30 29 C -4.027603 0.882734 1.378629 0
M  V30 30 C -3.873246 1.281156 2.692309 0
M  V30 31 C -4.627097 1.037371 3.941568 0
M  V30 32 N -5.796287 0.216102 3.834610 0
M  V30 33 O -4.370031 1.464217 5.098457 0
M  V30 34 N -2.768593 2.064318 2.783667 0
M  V30 35 N -2.211445 2.181674 1.579661 0
M  V30 36 C -1.015483 2.915387 1.171747 0
M  V30 37 C -5.093240 0.022350 0.836803 0
M  V30 38 C -4.963162 -0.199184 -0.630029 0
M  V30 39 C 0.862111 0.369630 -2.701787 0
M  V30 40 C 3.373290 -2.238088 -1.668564 0
M  V30 41 C 3.168162 -2.683766 -0.210011 0
M  V30 42 H 3.821932 -4.695293 5.771839 0
M  V30 43 H 3.203900 -5.715534 4.401777 0
M  V30 44 H 4.219656 -4.241532 4.106098 0
M  V30 45 H 1.399017 -5.253373 5.827255 0
M  V30 46 H 0.322621 -3.911702 5.361899 0
M  V30 47 H 1.633813 -3.631122 6.630862 0
M  V30 48 H 0.646039 -3.392134 3.414871 0
M  V30 49 H 1.297020 -5.111302 3.238422 0
M  V30 50 H 2.658661 -2.563155 2.206138 0
M  V30 51 H 3.244645 -4.252084 2.078423 0
M  V30 52 H 0.532300 -3.239237 1.114157 0
M  V30 53 H 1.096638 -4.961623 1.060832 0
M  V30 54 H 1.920160 -4.185050 -2.273387 0
M  V30 55 H 0.474438 -4.385023 -1.271199 0
M  V30 56 H 0.215683 -1.852454 -1.193800 0
M  V30 57 H 0.442406 -2.349127 -2.884094 0
M  V30 58 H 4.151872 0.025146 -3.029799 0
M  V30 59 H 3.913954 2.310814 -3.934009 0
M  V30 60 H -0.818808 3.159677 -3.597698 0
M  V30 61 H -4.295652 -0.356418 -3.285551 0
M  V30 62 H -6.777411 0.475125 3.587590 0
M  V30 63 H -6.646965 -0.393678 3.758853 0
M  V30 64 H -0.343046 2.246138 0.577518 0
M  V30 65 H -1.323843 3.749808 0.502228 0
M  V30 66 H -0.486046 3.345421 2.032173 0
M  V30 67 H -6.067434 0.505340 1.086373 0
M  V30 68 H -5.018965 -0.981539 1.347320 0
M  V30 69 H -5.023843 -1.297270 -0.846379 0
M  V30 70 H -5.894786 0.206582 -1.126341 0
M  V30 71 H -0.007760 -0.171814 -2.355520 0
M  V30 72 H 3.628782 -3.088734 -2.330160 0
M  V30 73 H 4.215676 -1.519596 -1.729978 0
M  V30 74 H 3.009656 -1.757473 0.373352 0
M  V30 75 H 4.100756 -3.212592 0.091614 0
M  V30 END ATOM
M  V30 BEGIN BOND
M  V30 1 1 1 2
M  V30 2 1 2 3
M  V30 3 1 2 4
M  V30 4 1 4 5
M  V30 5 1 5 6
M  V30 6 1 6 7
M  V30 7 1 7 8
M  V30 8 1 8 9
M  V30 9 1 9 10
M  V30 10 1 10 11
M  V30 11 2 11 12
M  V30 12 1 12 13
M  V30 13 2 13 14
M  V30 14 1 14 15
M  V30 15 1 15 16
M  V30 16 1 16 17
M  V30 17 1 16 18
M  V30 18 1 16 19
M  V30 19 1 14 20
M  V30 20 1 20 21
M  V30 21 1 21 22
M  V30 22 2 22 23
M  V30 23 1 23 24
M  V30 24 2 24 25
M  V30 25 1 25 26
M  V30 26 2 26 27
M  V30 27 1 26 28
M  V30 28 2 28 29
M  V30 29 1 29 30
M  V30 30 1 30 31
M  V30 31 1 31 32
M  V30 32 2 31 33
M  V30 33 2 30 34
M  V30 34 1 34 35
M  V30 35 1 35 36
M  V30 36 1 29 37
M  V30 37 1 37 38
M  V30 38 2 20 39
M  V30 39 1 10 40
M  V30 40 1 40 41
M  V30 41 1 41 7
M  V30 42 1 39 11
M  V30 43 1 27 22
M  V30 44 1 35 28
M  V30 45 1 38 25
M  V30 46 1 1 42
M  V30 47 1 1 43
M  V30 48 1 1 44
M  V30 49 1 3 45
M  V30 50 1 3 46
M  V30 51 1 3 47
M  V30 52 1 4 48
M  V30 53 1 4 49
M  V30 54 1 5 50
M  V30 55 1 5 51
M  V30 56 1 6 52
M  V30 57 1 6 53
M  V30 58 1 8 54
M  V30 59 1 8 55
M  V30 60 1 9 56
M  V30 61 1 9 57
M  V30 62 1 12 58
M  V30 63 1 13 59
M  V30 64 1 21 60
M  V30 65 1 24 61
M  V30 66 1 32 62
M  V30 67 1 32 63
M  V30 68 1 36 64
M  V30 69 1 36 65
M  V30 70 1 36 66
M  V30 71 1 37 67
M  V30 72 1 37 68
M  V30 73 1 38 69
M  V30 74 1 38 70
M  V30 75 1 39 71
M  V30 76 1 40 72
M  V30 77 1 40 73
M  V30 78 1 41 74
M  V30 79 1 41 75
M  V30 END BOND
M  V30 END CTAB
M  END
>  <Dataset>  (823) 
ChEMBL_Kinases

>  <Ligand_Instance>  (823) 
nan

>  <PDB_ID>  (823) 
nan

>  <Standardized_SMILES>  (823) 
CN(C)CCCN1CCN(c2ccc(OC(F)(F)F)c(Nc3ncc4c(n3)-c3c(c(C(N)=O)nn3C)CC4)c2)CC1

>  <Name>  (823) 
nan

>  <Pocket>  (823) 
nan

>  <ATP_Site>  (823) 
nan

>  <Peripheral>  (823) 
nan

>  <Num_H_Atoms_ProtBoundConf>  (823) 
nan

>  <Num_Resolved_Atoms>  (823) 
nan

>  <Num_Not_Resolved_Atoms>  (823) 
nan

$$$$
CHEMBL3652224
     RDKit          3D

  0  0  0  0  0  0  0  0  0  0999 V3000
M  V30 BEGIN CTAB
M  V30 COUNTS 48 51 0 0 0
M  V30 BEGIN ATOM
M  V30 1 C 2.267599 -0.046932 -4.922617 0
M  V30 2 O 1.789345 0.167437 -3.628649 0
M  V30 3 C 2.620399 0.407670 -2.557279 0
M  V30 4 C 3.988126 0.465635 -2.631314 0
M  V30 5 C 4.643568 0.720471 -1.429730 0
M  V30 6 C 4.025802 0.914435 -0.196022 0
M  V30 7 C 4.896763 1.181417 0.989458 0
M  V30 8 O 5.170780 -0.065765 1.567191 0
M  V30 9 C 2.648469 0.841278 -0.200765 0
M  V30 10 C 1.947083 0.590672 -1.368568 0
M  V30 11 N 0.536996 0.557646 -1.268782 0
M  V30 12 C -0.164490 0.689378 -0.049522 0
M  V30 13 N -0.272093 1.764937 0.785204 0
M  V30 14 C -0.999987 1.709645 1.904371 0
M  V30 15 C -1.684649 0.582134 2.291510 0
M  V30 16 C -1.560399 -0.503180 1.421190 0
M  V30 17 N -0.823211 -0.428783 0.301322 0
M  V30 18 C -2.312062 -1.738172 1.745795 0
M  V30 19 C -3.083230 -1.709854 2.888688 0
M  V30 20 C -3.599109 -2.980754 2.906402 0
M  V30 21 C -4.493428 -3.648309 3.839573 0
M  V30 22 N -4.963007 -2.914994 4.992221 0
M  V30 23 O -5.067569 -4.745652 4.030087 0
M  V30 24 N -3.150922 -3.677611 1.844445 0
M  V30 25 N -2.350524 -2.919081 1.113050 0
M  V30 26 C -1.704435 -3.353002 -0.093248 0
M  V30 27 C -3.306684 -0.591553 3.804710 0
M  V30 28 C -2.435689 0.593501 3.554380 0
M  V30 29 H 3.253943 0.397905 -5.129161 0
M  V30 30 H 1.562472 0.381844 -5.696456 0
M  V30 31 H 2.287658 -1.142356 -5.201876 0
M  V30 32 H 4.503700 0.323496 -3.550240 0
M  V30 33 H 5.724105 0.764607 -1.509283 0
M  V30 34 H 5.869036 1.584881 0.616583 0
M  V30 35 H 4.448397 1.891479 1.702532 0
M  V30 36 H 5.266851 0.022063 2.560722 0
M  V30 37 H 2.163085 0.989454 0.758688 0
M  V30 38 H -0.028167 0.429370 -2.134511 0
M  V30 39 H -0.976888 2.641023 2.445649 0
M  V30 40 H -4.519725 -2.816084 5.934476 0
M  V30 41 H -4.380022 -2.928016 5.863819 0
M  V30 42 H -1.193573 -4.320209 0.103028 0
M  V30 43 H -2.494433 -3.603925 -0.846494 0
M  V30 44 H -0.991339 -2.658975 -0.523556 0
M  V30 45 H -4.361553 -0.230270 3.564641 0
M  V30 46 H -3.380893 -0.901305 4.853819 0
M  V30 47 H -2.923520 1.577829 3.680208 0
M  V30 48 H -1.648549 0.567363 4.369039 0
M  V30 END ATOM
M  V30 BEGIN BOND
M  V30 1 1 1 2
M  V30 2 1 2 3
M  V30 3 2 3 4
M  V30 4 1 4 5
M  V30 5 2 5 6
M  V30 6 1 6 7
M  V30 7 1 7 8
M  V30 8 1 6 9
M  V30 9 2 9 10
M  V30 10 1 10 11
M  V30 11 1 11 12
M  V30 12 2 12 13
M  V30 13 1 13 14
M  V30 14 2 14 15
M  V30 15 1 15 16
M  V30 16 2 16 17
M  V30 17 1 16 18
M  V30 18 2 18 19
M  V30 19 1 19 20
M  V30 20 1 20 21
M  V30 21 1 21 22
M  V30 22 2 21 23
M  V30 23 2 20 24
M  V30 24 1 24 25
M  V30 25 1 25 26
M  V30 26 1 19 27
M  V30 27 1 27 28
M  V30 28 1 10 3
M  V30 29 1 17 12
M  V30 30 1 25 18
M  V30 31 1 28 15
M  V30 32 1 1 29
M  V30 33 1 1 30
M  V30 34 1 1 31
M  V30 35 1 4 32
M  V30 36 1 5 33
M  V30 37 1 7 34
M  V30 38 1 7 35
M  V30 39 1 8 36
M  V30 40 1 9 37
M  V30 41 1 11 38
M  V30 42 1 14 39
M  V30 43 1 22 40
M  V30 44 1 22 41
M  V30 45 1 26 42
M  V30 46 1 26 43
M  V30 47 1 26 44
M  V30 48 1 27 45
M  V30 49 1 27 46
M  V30 50 1 28 47
M  V30 51 1 28 48
M  V30 END BOND
M  V30 END CTAB
M  END
>  <Dataset>  (824) 
ChEMBL_Kinases

>  <Ligand_Instance>  (824) 
nan

>  <PDB_ID>  (824) 
nan

>  <Standardized_SMILES>  (824) 
COc1ccc(CO)cc1Nc1ncc2c(n1)-c1c(c(C(N)=O)nn1C)CC2

>  <Name>  (824) 
nan

>  <Pocket>  (824) 
nan

>  <ATP_Site>  (824) 
nan

>  <Peripheral>  (824) 
nan

>  <Num_H_Atoms_ProtBoundConf>  (824) 
nan

>  <Num_Resolved_Atoms>  (824) 
nan

>  <Num_Not_Resolved_Atoms>  (824) 
nan

$$$$
CHEMBL365251
     RDKit          3D

  0  0  0  0  0  0  0  0  0  0999 V3000
M  V30 BEGIN CTAB
M  V30 COUNTS 47 51 0 0 0
M  V30 BEGIN ATOM
M  V30 1 F 5.760112 -2.459094 5.089702 0
M  V30 2 C 5.196165 -3.355212 4.198550 0
M  V30 3 F 4.925688 -4.537560 4.876138 0
M  V30 4 F 6.083652 -3.626338 3.197290 0
M  V30 5 C 3.934875 -2.814817 3.630561 0
M  V30 6 C 3.828879 -2.632061 2.279725 0
M  V30 7 C 2.689404 -2.130980 1.663803 0
M  V30 8 N 2.621260 -1.957138 0.279530 0
M  V30 9 C 1.558278 -1.447369 -0.508802 0
M  V30 10 N 1.716204 -1.344697 -1.837106 0
M  V30 11 C 0.795577 -0.877889 -2.688686 0
M  V30 12 C -0.407749 -0.471544 -2.159278 0
M  V30 13 C -0.614787 -0.558513 -0.802183 0
M  V30 14 C -1.887257 -0.124058 -0.231596 0
M  V30 15 C -2.317646 1.180032 -0.030462 0
M  V30 16 C -1.567273 2.409758 -0.343117 0
M  V30 17 C -1.147579 2.863328 -1.575638 0
M  V30 18 C -0.440606 4.064091 -1.608068 0
M  V30 19 C -0.163074 4.783162 -0.467485 0
M  V30 20 C -0.579273 4.337277 0.768380 0
M  V30 21 C -1.287657 3.137772 0.821496 0
M  V30 22 N -3.538175 1.116484 0.503253 0
M  V30 23 N -3.936704 -0.151142 0.665360 0
M  V30 24 N -5.047666 -0.696946 1.145206 0
M  V30 25 C -5.197708 -2.029979 1.197352 0
M  V30 26 C -4.183972 -2.843634 0.746200 0
M  V30 27 C -2.996566 -2.322605 0.232681 0
M  V30 28 C -2.917964 -0.934105 0.211954 0
M  V30 29 N 0.377775 -1.041866 -0.044779 0
M  V30 30 C 1.683520 -1.840169 2.557895 0
M  V30 31 C 1.727109 -2.001073 3.924656 0
M  V30 32 C 2.892199 -2.504422 4.473322 0
M  V30 33 Cl 3.087881 -2.758418 6.195127 0
M  V30 34 H 4.685003 -2.895041 1.667160 0
M  V30 35 H 3.497246 -2.252378 -0.251858 0
M  V30 36 H 0.969822 -0.815012 -3.752586 0
M  V30 37 H -1.134674 -0.099194 -2.868926 0
M  V30 38 H -1.417118 2.227627 -2.390575 0
M  V30 39 H -0.134477 4.373326 -2.607653 0
M  V30 40 H 0.397444 5.721613 -0.565267 0
M  V30 41 H -0.339986 4.933053 1.636563 0
M  V30 42 H -1.583849 2.847181 1.830773 0
M  V30 43 H -6.131770 -2.366440 1.601338 0
M  V30 44 H -4.320411 -3.913047 0.794044 0
M  V30 45 H -2.191445 -2.936027 -0.123387 0
M  V30 46 H 0.746083 -1.445610 2.212574 0
M  V30 47 H 0.901296 -1.754600 4.578413 0
M  V30 END ATOM
M  V30 BEGIN BOND
M  V30 1 1 1 2
M  V30 2 1 2 3
M  V30 3 1 2 4
M  V30 4 1 2 5
M  V30 5 2 5 6
M  V30 6 1 6 7
M  V30 7 1 7 8
M  V30 8 1 8 9
M  V30 9 2 9 10
M  V30 10 1 10 11
M  V30 11 2 11 12
M  V30 12 1 12 13
M  V30 13 1 13 14
M  V30 14 1 14 15
M  V30 15 1 15 16
M  V30 16 2 16 17
M  V30 17 1 17 18
M  V30 18 2 18 19
M  V30 19 1 19 20
M  V30 20 2 20 21
M  V30 21 2 15 22
M  V30 22 1 22 23
M  V30 23 1 23 24
M  V30 24 2 24 25
M  V30 25 1 25 26
M  V30 26 2 26 27
M  V30 27 1 27 28
M  V30 28 2 13 29
M  V30 29 2 7 30
M  V30 30 1 30 31
M  V30 31 2 31 32
M  V30 32 1 32 33
M  V30 33 1 32 5
M  V30 34 1 29 9
M  V30 35 2 28 14
M  V30 36 1 21 16
M  V30 37 1 28 23
M  V30 38 1 6 34
M  V30 39 1 8 35
M  V30 40 1 11 36
M  V30 41 1 12 37
M  V30 42 1 17 38
M  V30 43 1 18 39
M  V30 44 1 19 40
M  V30 45 1 20 41
M  V30 46 1 21 42
M  V30 47 1 25 43
M  V30 48 1 26 44
M  V30 49 1 27 45
M  V30 50 1 30 46
M  V30 51 1 31 47
M  V30 END BOND
M  V30 END CTAB
M  END
>  <Dataset>  (825) 
ChEMBL_Kinases

>  <Ligand_Instance>  (825) 
nan

>  <PDB_ID>  (825) 
nan

>  <Standardized_SMILES>  (825) 
FC(F)(F)c1cc(Nc2nccc(-c3c(-c4ccccc4)nn4ncccc34)n2)ccc1Cl

>  <Name>  (825) 
nan

>  <Pocket>  (825) 
nan

>  <ATP_Site>  (825) 
nan

>  <Peripheral>  (825) 
nan

>  <Num_H_Atoms_ProtBoundConf>  (825) 
nan

>  <Num_Resolved_Atoms>  (825) 
nan

>  <Num_Not_Resolved_Atoms>  (825) 
nan

$$$$
CHEMBL3652531
     RDKit          3D

  0  0  0  0  0  0  0  0  0  0999 V3000
M  V30 BEGIN CTAB
M  V30 COUNTS 56 58 0 0 0
M  V30 BEGIN ATOM
M  V30 1 C 1.390176 -2.762088 2.661484 0
M  V30 2 O 0.934642 -1.547437 3.193189 0
M  V30 3 C 1.210864 -0.296256 2.670616 0
M  V30 4 C 2.307556 0.470084 3.034471 0
M  V30 5 C 3.193808 -0.159639 4.052738 0
M  V30 6 O 3.937221 -1.145146 3.364839 0
M  V30 7 C 2.521824 1.707571 2.474543 0
M  V30 8 C 1.630595 2.194911 1.534614 0
M  V30 9 C 1.841717 3.519929 0.922687 0
M  V30 10 C 3.077848 4.210082 1.448751 0
M  V30 11 C 1.938252 3.350158 -0.575046 0
M  V30 12 C 0.624744 4.376529 1.208665 0
M  V30 13 C 0.521769 1.477902 1.132820 0
M  V30 14 C 0.341801 0.233561 1.722160 0
M  V30 15 N -0.820478 -0.510486 1.297358 0
M  V30 16 C -0.618728 -1.381546 0.163534 0
M  V30 17 O 0.570506 -1.316315 -0.241534 0
M  V30 18 N -1.664100 -2.178415 -0.373755 0
M  V30 19 C -1.319150 -3.004394 -1.514464 0 CFG=2
M  V30 20 C -2.155461 -2.678239 -2.735867 0
M  V30 21 C -3.361086 -3.498575 -2.476513 0
M  V30 22 C -4.606936 -3.282013 -2.986754 0
M  V30 23 F -4.954115 -2.267921 -3.824522 0
M  V30 24 C -5.645269 -4.145683 -2.650946 0
M  V30 25 C -5.416568 -5.220322 -1.803145 0
M  V30 26 C -4.123848 -5.395297 -1.310075 0
M  V30 27 C -3.067979 -4.551348 -1.626483 0
M  V30 28 C -1.637041 -4.448420 -1.297347 0 CFG=2
M  V30 29 O -1.308883 -4.927436 -0.034943 0
M  V30 30 H 0.504959 -3.440693 2.575129 0
M  V30 31 H 1.938036 -2.686504 1.719828 0
M  V30 32 H 2.070204 -3.231555 3.431172 0
M  V30 33 H 3.942299 0.594003 4.413066 0
M  V30 34 H 2.645146 -0.600410 4.884792 0
M  V30 35 H 4.549998 -0.704894 2.721185 0
M  V30 36 H 3.374767 2.256989 2.784138 0
M  V30 37 H 3.053954 4.379173 2.522912 0
M  V30 38 H 3.979659 3.613115 1.156162 0
M  V30 39 H 3.209575 5.181387 0.929835 0
M  V30 40 H 2.979224 3.550178 -0.881721 0
M  V30 41 H 1.244971 4.008342 -1.128466 0
M  V30 42 H 1.675269 2.304883 -0.868588 0
M  V30 43 H 0.338436 4.370460 2.281949 0
M  V30 44 H -0.193134 4.100722 0.529960 0
M  V30 45 H 0.917295 5.415993 0.906978 0
M  V30 46 H -0.187671 1.847256 0.394825 0
M  V30 47 H -1.775037 -0.458240 1.749726 0
M  V30 48 H -2.604182 -2.151494 0.042359 0
M  V30 49 H -0.239188 -2.835313 -1.753248 0
M  V30 50 H -2.403593 -1.601105 -2.796457 0
M  V30 51 H -1.597981 -2.985417 -3.630378 0
M  V30 52 H -6.644457 -4.013296 -3.030097 0
M  V30 53 H -6.157260 -5.945052 -1.483427 0
M  V30 54 H -3.820508 -6.205589 -0.633518 0
M  V30 55 H -1.096524 -5.045614 -2.082188 0
M  V30 56 H -0.424434 -5.346943 -0.064159 0
M  V30 END ATOM
M  V30 BEGIN BOND
M  V30 1 1 1 2
M  V30 2 1 2 3
M  V30 3 2 3 4
M  V30 4 1 4 5
M  V30 5 1 5 6
M  V30 6 1 4 7
M  V30 7 2 7 8
M  V30 8 1 8 9
M  V30 9 1 9 10
M  V30 10 1 9 11
M  V30 11 1 9 12
M  V30 12 1 8 13
M  V30 13 2 13 14
M  V30 14 1 14 15
M  V30 15 1 15 16
M  V30 16 2 16 17
M  V30 17 1 16 18
M  V30 18 1 18 19
M  V30 19 1 19 20
M  V30 20 1 20 21
M  V30 21 2 21 22
M  V30 22 1 22 23
M  V30 23 1 22 24
M  V30 24 2 24 25
M  V30 25 1 25 26
M  V30 26 2 26 27
M  V30 27 1 27 28
M  V30 28 1 28 29
M  V30 29 1 14 3
M  V30 30 1 28 19
M  V30 31 1 27 21
M  V30 32 1 1 30
M  V30 33 1 1 31
M  V30 34 1 1 32
M  V30 35 1 5 33
M  V30 36 1 5 34
M  V30 37 1 6 35
M  V30 38 1 7 36
M  V30 39 1 10 37
M  V30 40 1 10 38
M  V30 41 1 10 39
M  V30 42 1 11 40
M  V30 43 1 11 41
M  V30 44 1 11 42
M  V30 45 1 12 43
M  V30 46 1 12 44
M  V30 47 1 12 45
M  V30 48 1 13 46
M  V30 49 1 15 47
M  V30 50 1 18 48
M  V30 51 1 19 49 CFG=3
M  V30 52 1 20 50
M  V30 53 1 20 51
M  V30 54 1 24 52
M  V30 55 1 25 53
M  V30 56 1 26 54
M  V30 57 1 28 55 CFG=3
M  V30 58 1 29 56
M  V30 END BOND
M  V30 END CTAB
M  END
>  <Dataset>  (826) 
ChEMBL_Kinases

>  <Ligand_Instance>  (826) 
nan

>  <PDB_ID>  (826) 
nan

>  <Standardized_SMILES>  (826) 
COc1c(CO)cc(C(C)(C)C)cc1NC(=O)N[C@@H]1Cc2c(F)cccc2[C@@H]1O

>  <Name>  (826) 
nan

>  <Pocket>  (826) 
nan

>  <ATP_Site>  (826) 
nan

>  <Peripheral>  (826) 
nan

>  <Num_H_Atoms_ProtBoundConf>  (826) 
nan

>  <Num_Resolved_Atoms>  (826) 
nan

>  <Num_Not_Resolved_Atoms>  (826) 
nan

$$$$
CHEMBL3652532
     RDKit          3D

  0  0  0  0  0  0  0  0  0  0999 V3000
M  V30 BEGIN CTAB
M  V30 COUNTS 59 61 0 0 0
M  V30 BEGIN ATOM
M  V30 1 C -0.956516 -3.061506 3.828970 0
M  V30 2 O -0.163237 -3.447608 2.703499 0
M  V30 3 C -0.695589 -3.248505 1.414678 0
M  V30 4 C -0.454463 -2.053358 0.778648 0
M  V30 5 N 0.314010 -1.056783 1.420573 0
M  V30 6 C 0.695196 0.218165 0.998026 0
M  V30 7 O 0.326542 0.608970 -0.134670 0
M  V30 8 N 1.479346 1.130000 1.752761 0
M  V30 9 C 1.803314 2.425224 1.192698 0 CFG=2
M  V30 10 C 3.324063 2.557257 1.172815 0
M  V30 11 C 3.493165 4.041615 1.033766 0
M  V30 12 C 4.539043 4.758081 0.496025 0
M  V30 13 C 4.456598 6.134721 0.483852 0
M  V30 14 C 3.314608 6.741757 1.018113 0
M  V30 15 C 2.266183 6.025071 1.557103 0
M  V30 16 C 2.349516 4.633899 1.569398 0
M  V30 17 C 1.412107 3.581500 2.067009 0 CFG=2
M  V30 18 O 1.662174 3.333501 3.416121 0
M  V30 19 C -1.017870 -1.964363 -0.469842 0
M  V30 20 C -1.766336 -2.941190 -1.089187 0
M  V30 21 C -2.347047 -2.796473 -2.426289 0
M  V30 22 C -2.007779 -1.439071 -3.014087 0
M  V30 23 C -3.876895 -2.889635 -2.378652 0
M  V30 24 C -1.836475 -3.872747 -3.350003 0
M  V30 25 C -1.980332 -4.122499 -0.410240 0
M  V30 26 C -1.431993 -4.254505 0.847934 0
M  V30 27 C -1.634585 -5.502352 1.613652 0 CFG=1
M  V30 28 O -2.825056 -6.118282 1.210490 0
M  V30 29 C -0.512743 -6.476666 1.299645 0
M  V30 30 F -0.444414 -6.812087 -0.028305 0
M  V30 31 F 0.714906 -5.936028 1.651486 0
M  V30 32 F -0.684996 -7.616226 2.083344 0
M  V30 33 H -2.038932 -2.982504 3.517301 0
M  V30 34 H -0.875051 -3.874635 4.563069 0
M  V30 35 H -0.679237 -2.093234 4.250363 0
M  V30 36 H 0.684616 -1.265294 2.384299 0
M  V30 37 H 1.806516 0.844753 2.699588 0
M  V30 38 H 1.369365 2.528709 0.198015 0
M  V30 39 H 3.663135 2.019417 0.247079 0
M  V30 40 H 3.761557 2.167241 2.096478 0
M  V30 41 H 5.402726 4.252551 0.093741 0
M  V30 42 H 5.282061 6.675820 0.060367 0
M  V30 43 H 3.310174 7.837689 0.978566 0
M  V30 44 H 1.392136 6.536667 1.964208 0
M  V30 45 H 0.352595 3.816133 1.882999 0
M  V30 46 H 0.990114 2.737387 3.791814 0
M  V30 47 H -0.889610 -1.069255 -1.054295 0
M  V30 48 H -0.889844 -1.387309 -3.068823 0
M  V30 49 H -2.379759 -1.374258 -4.062644 0
M  V30 50 H -2.354077 -0.610390 -2.397528 0
M  V30 51 H -4.268083 -2.676802 -1.373284 0
M  V30 52 H -4.204558 -3.884487 -2.758793 0
M  V30 53 H -4.322058 -2.146578 -3.070728 0
M  V30 54 H -2.537305 -4.041575 -4.167048 0
M  V30 55 H -0.878384 -3.500608 -3.793508 0
M  V30 56 H -1.599389 -4.771744 -2.758717 0
M  V30 57 H -2.549413 -4.943668 -0.806673 0
M  V30 58 H -1.613536 -5.342727 2.706747 0
M  V30 59 H -2.781336 -7.046114 1.577623 0
M  V30 END ATOM
M  V30 BEGIN BOND
M  V30 1 1 1 2
M  V30 2 1 2 3
M  V30 3 2 3 4
M  V30 4 1 4 5
M  V30 5 1 5 6
M  V30 6 2 6 7
M  V30 7 1 6 8
M  V30 8 1 8 9
M  V30 9 1 9 10
M  V30 10 1 10 11
M  V30 11 2 11 12
M  V30 12 1 12 13
M  V30 13 2 13 14
M  V30 14 1 14 15
M  V30 15 2 15 16
M  V30 16 1 16 17
M  V30 17 1 17 18
M  V30 18 1 4 19
M  V30 19 2 19 20
M  V30 20 1 20 21
M  V30 21 1 21 22
M  V30 22 1 21 23
M  V30 23 1 21 24
M  V30 24 1 20 25
M  V30 25 2 25 26
M  V30 26 1 26 27
M  V30 27 1 27 28
M  V30 28 1 27 29
M  V30 29 1 29 30
M  V30 30 1 29 31
M  V30 31 1 29 32
M  V30 32 1 26 3
M  V30 33 1 17 9
M  V30 34 1 16 11
M  V30 35 1 1 33
M  V30 36 1 1 34
M  V30 37 1 1 35
M  V30 38 1 5 36
M  V30 39 1 8 37
M  V30 40 1 9 38 CFG=3
M  V30 41 1 10 39
M  V30 42 1 10 40
M  V30 43 1 12 41
M  V30 44 1 13 42
M  V30 45 1 14 43
M  V30 46 1 15 44
M  V30 47 1 17 45 CFG=1
M  V30 48 1 18 46
M  V30 49 1 19 47
M  V30 50 1 22 48
M  V30 51 1 22 49
M  V30 52 1 22 50
M  V30 53 1 23 51
M  V30 54 1 23 52
M  V30 55 1 23 53
M  V30 56 1 24 54
M  V30 57 1 24 55
M  V30 58 1 24 56
M  V30 59 1 25 57
M  V30 60 1 27 58 CFG=1
M  V30 61 1 28 59
M  V30 END BOND
M  V30 END CTAB
M  END
>  <Dataset>  (827) 
ChEMBL_Kinases

>  <Ligand_Instance>  (827) 
nan

>  <PDB_ID>  (827) 
nan

>  <Standardized_SMILES>  (827) 
COc1c(NC(=O)N[C@@H]2Cc3ccccc3[C@@H]2O)cc(C(C)(C)C)cc1[C@@H](O)C(F)(F)F

>  <Name>  (827) 
nan

>  <Pocket>  (827) 
nan

>  <ATP_Site>  (827) 
nan

>  <Peripheral>  (827) 
nan

>  <Num_H_Atoms_ProtBoundConf>  (827) 
nan

>  <Num_Resolved_Atoms>  (827) 
nan

>  <Num_Not_Resolved_Atoms>  (827) 
nan

$$$$
CHEMBL3652533
     RDKit          3D

  0  0  0  0  0  0  0  0  0  0999 V3000
M  V30 BEGIN CTAB
M  V30 COUNTS 59 61 0 0 0
M  V30 BEGIN ATOM
M  V30 1 C 3.182328 -1.738528 1.364092 0
M  V30 2 O 2.113260 -2.485894 1.838122 0
M  V30 3 C 0.996857 -2.910302 1.184608 0
M  V30 4 C -0.123509 -2.095842 1.166622 0
M  V30 5 N -0.162149 -0.805247 1.812664 0
M  V30 6 C 0.259864 0.216486 0.915536 0
M  V30 7 O 0.600234 -0.069020 -0.260049 0
M  V30 8 N 0.318153 1.578963 1.289175 0
M  V30 9 C 0.754670 2.627994 0.358039 0 CFG=2
M  V30 10 C 1.930672 3.386675 0.877786 0
M  V30 11 C 1.329072 4.548046 1.558940 0
M  V30 12 C 1.834158 5.446247 2.504564 0
M  V30 13 F 3.114171 5.323793 2.957869 0
M  V30 14 C 1.017599 6.463466 2.976131 0
M  V30 15 C -0.281325 6.618872 2.541357 0
M  V30 16 C -0.786481 5.727360 1.601120 0
M  V30 17 C 0.029396 4.714952 1.133157 0
M  V30 18 C -0.292461 3.671830 0.149258 0 CFG=2
M  V30 19 O -1.588085 3.176310 0.315379 0
M  V30 20 C -1.305508 -2.469305 0.516228 0
M  V30 21 C -1.398561 -3.686841 -0.143559 0
M  V30 22 C -2.649152 -4.054915 -0.817620 0
M  V30 23 C -2.541371 -5.424059 -1.477076 0
M  V30 24 C -3.761251 -4.034403 0.209161 0
M  V30 25 C -3.027416 -3.075157 -1.913323 0
M  V30 26 C -0.275433 -4.520215 -0.134383 0
M  V30 27 C 0.883558 -4.114812 0.523265 0
M  V30 28 C 2.019291 -5.068404 0.464041 0 CFG=1
M  V30 29 O 1.568214 -6.372500 0.650083 0
M  V30 30 C 2.693911 -4.905088 -0.879768 0
M  V30 31 F 3.772782 -5.762914 -1.015002 0
M  V30 32 F 1.749739 -5.255660 -1.858224 0
M  V30 33 F 3.071826 -3.633748 -1.166021 0
M  V30 34 H 3.584466 -1.019956 2.105889 0
M  V30 35 H 3.001515 -1.253226 0.383982 0
M  V30 36 H 4.031085 -2.458543 1.179118 0
M  V30 37 H -0.430618 -0.522959 2.763197 0
M  V30 38 H 0.049966 1.886524 2.249103 0
M  V30 39 H 1.012644 2.180938 -0.626677 0
M  V30 40 H 2.568299 3.696242 0.015338 0
M  V30 41 H 2.530586 2.750668 1.586981 0
M  V30 42 H 1.395924 7.170742 3.712379 0
M  V30 43 H -0.864997 7.420814 2.939059 0
M  V30 44 H -1.800247 5.895102 1.299421 0
M  V30 45 H -0.203902 4.067005 -0.895303 0
M  V30 46 H -1.909223 2.731964 -0.502458 0
M  V30 47 H -2.172839 -1.802270 0.521015 0
M  V30 48 H -1.711402 -5.321405 -2.230445 0
M  V30 49 H -3.451698 -5.600286 -2.085921 0
M  V30 50 H -2.365222 -6.229217 -0.765109 0
M  V30 51 H -3.836489 -2.992053 0.580659 0
M  V30 52 H -4.737499 -4.330290 -0.224751 0
M  V30 53 H -3.451941 -4.675637 1.057596 0
M  V30 54 H -3.694304 -3.620722 -2.609773 0
M  V30 55 H -2.143426 -2.786174 -2.500903 0
M  V30 56 H -3.617948 -2.214022 -1.550146 0
M  V30 57 H -0.362420 -5.466023 -0.652639 0
M  V30 58 H 2.723281 -4.775223 1.284176 0
M  V30 59 H 1.478228 -6.765068 -0.266415 0
M  V30 END ATOM
M  V30 BEGIN BOND
M  V30 1 1 1 2
M  V30 2 1 2 3
M  V30 3 2 3 4
M  V30 4 1 4 5
M  V30 5 1 5 6
M  V30 6 2 6 7
M  V30 7 1 6 8
M  V30 8 1 8 9
M  V30 9 1 9 10
M  V30 10 1 10 11
M  V30 11 2 11 12
M  V30 12 1 12 13
M  V30 13 1 12 14
M  V30 14 2 14 15
M  V30 15 1 15 16
M  V30 16 2 16 17
M  V30 17 1 17 18
M  V30 18 1 18 19
M  V30 19 1 4 20
M  V30 20 2 20 21
M  V30 21 1 21 22
M  V30 22 1 22 23
M  V30 23 1 22 24
M  V30 24 1 22 25
M  V30 25 1 21 26
M  V30 26 2 26 27
M  V30 27 1 27 28
M  V30 28 1 28 29
M  V30 29 1 28 30
M  V30 30 1 30 31
M  V30 31 1 30 32
M  V30 32 1 30 33
M  V30 33 1 27 3
M  V30 34 1 18 9
M  V30 35 1 17 11
M  V30 36 1 1 34
M  V30 37 1 1 35
M  V30 38 1 1 36
M  V30 39 1 5 37
M  V30 40 1 8 38
M  V30 41 1 9 39 CFG=3
M  V30 42 1 10 40
M  V30 43 1 10 41
M  V30 44 1 14 42
M  V30 45 1 15 43
M  V30 46 1 16 44
M  V30 47 1 18 45 CFG=3
M  V30 48 1 19 46
M  V30 49 1 20 47
M  V30 50 1 23 48
M  V30 51 1 23 49
M  V30 52 1 23 50
M  V30 53 1 24 51
M  V30 54 1 24 52
M  V30 55 1 24 53
M  V30 56 1 25 54
M  V30 57 1 25 55
M  V30 58 1 25 56
M  V30 59 1 26 57
M  V30 60 1 28 58 CFG=1
M  V30 61 1 29 59
M  V30 END BOND
M  V30 END CTAB
M  END
>  <Dataset>  (828) 
ChEMBL_Kinases

>  <Ligand_Instance>  (828) 
nan

>  <PDB_ID>  (828) 
nan

>  <Standardized_SMILES>  (828) 
COc1c(NC(=O)N[C@@H]2Cc3c(F)cccc3[C@@H]2O)cc(C(C)(C)C)cc1[C@@H](O)C(F)(F)F

>  <Name>  (828) 
nan

>  <Pocket>  (828) 
nan

>  <ATP_Site>  (828) 
nan

>  <Peripheral>  (828) 
nan

>  <Num_H_Atoms_ProtBoundConf>  (828) 
nan

>  <Num_Resolved_Atoms>  (828) 
nan

>  <Num_Not_Resolved_Atoms>  (828) 
nan

$$$$
CHEMBL3652534
     RDKit          3D

  0  0  0  0  0  0  0  0  0  0999 V3000
M  V30 BEGIN CTAB
M  V30 COUNTS 63 65 0 0 0
M  V30 BEGIN ATOM
M  V30 1 C 4.848351 -0.153547 5.825466 0
M  V30 2 O 4.548328 0.174016 4.500878 0
M  V30 3 C 3.915367 1.350477 4.143383 0
M  V30 4 C 3.536484 2.280547 5.063277 0
M  V30 5 C 2.904986 3.443341 4.651635 0
M  V30 6 C 2.639109 3.702813 3.323136 0
M  V30 7 C 3.022490 2.757839 2.372945 0
M  V30 8 C 3.657288 1.591658 2.800246 0
M  V30 9 C 3.958021 0.761681 1.609292 0
M  V30 10 C 2.878075 1.223132 0.638794 0 CFG=1
M  V30 11 N 1.559583 0.734777 1.013759 0
M  V30 12 C 0.828049 0.000286 0.065535 0
M  V30 13 O 1.285641 -0.244434 -1.097895 0
M  V30 14 N -0.448527 -0.480283 0.409372 0
M  V30 15 C -1.378060 -1.246075 -0.377684 0
M  V30 16 C -2.317811 -0.637484 -1.164061 0
M  V30 17 C -3.207140 -1.376925 -1.917105 0
M  V30 18 C -4.246550 -0.792996 -2.787209 0
M  V30 19 C -5.512234 -0.610683 -1.967611 0
M  V30 20 C -4.579439 -1.732590 -3.945833 0
M  V30 21 C -3.894786 0.550538 -3.346113 0
M  V30 22 C -3.097013 -2.769290 -1.834055 0
M  V30 23 C -2.151059 -3.416771 -1.042915 0
M  V30 24 C -2.157045 -4.898416 -1.069531 0 CFG=2
M  V30 25 O -1.538573 -5.352483 0.087082 0
M  V30 26 C -1.221188 -5.309648 -2.214026 0
M  V30 27 F -1.665980 -4.804248 -3.417809 0
M  V30 28 F -1.295008 -6.707228 -2.250438 0
M  V30 29 F 0.059569 -4.904651 -1.891676 0
M  V30 30 C -1.285450 -2.639115 -0.309173 0
M  V30 31 O -0.330509 -3.202960 0.490026 0
M  V30 32 C -0.480216 -3.534255 1.858643 0
M  V30 33 C 2.891294 2.718578 0.877932 0 CFG=1
M  V30 34 O 1.666579 3.220096 0.475533 0
M  V30 35 H 5.656189 0.479683 6.256894 0
M  V30 36 H 5.262023 -1.197244 5.812321 0
M  V30 37 H 3.966655 -0.143176 6.493574 0
M  V30 38 H 3.726048 2.116058 6.113583 0
M  V30 39 H 2.622950 4.153456 5.425607 0
M  V30 40 H 2.140469 4.627070 3.028621 0
M  V30 41 H 4.911441 1.119611 1.168536 0
M  V30 42 H 3.920668 -0.323361 1.790419 0
M  V30 43 H 3.143244 0.936196 -0.397828 0
M  V30 44 H 1.245756 0.970431 1.980769 0
M  V30 45 H -0.851592 -0.293451 1.362461 0
M  V30 46 H -2.381866 0.444718 -1.210636 0
M  V30 47 H -6.294577 -0.061220 -2.532407 0
M  V30 48 H -5.915884 -1.629309 -1.733054 0
M  V30 49 H -5.308205 -0.096474 -1.012872 0
M  V30 50 H -4.935406 -1.165956 -4.823231 0
M  V30 51 H -3.672789 -2.336783 -4.200084 0
M  V30 52 H -5.369197 -2.452911 -3.667478 0
M  V30 53 H -4.445686 0.656079 -4.324590 0
M  V30 54 H -2.828148 0.704170 -3.558912 0
M  V30 55 H -4.284283 1.365494 -2.702191 0
M  V30 56 H -3.801494 -3.361029 -2.430630 0
M  V30 57 H -3.163588 -5.318854 -1.211647 0
M  V30 58 H -2.018338 -6.097492 0.521887 0
M  V30 59 H 0.132800 -4.434332 2.051554 0
M  V30 60 H -1.510723 -3.614889 2.201101 0
M  V30 61 H -0.006148 -2.738746 2.505943 0
M  V30 62 H 3.745447 3.223902 0.385808 0
M  V30 63 H 1.266147 3.840094 1.152976 0
M  V30 END ATOM
M  V30 BEGIN BOND
M  V30 1 1 1 2
M  V30 2 1 2 3
M  V30 3 2 3 4
M  V30 4 1 4 5
M  V30 5 2 5 6
M  V30 6 1 6 7
M  V30 7 2 7 8
M  V30 8 1 8 9
M  V30 9 1 9 10
M  V30 10 1 10 11
M  V30 11 1 11 12
M  V30 12 2 12 13
M  V30 13 1 12 14
M  V30 14 1 14 15
M  V30 15 2 15 16
M  V30 16 1 16 17
M  V30 17 1 17 18
M  V30 18 1 18 19
M  V30 19 1 18 20
M  V30 20 1 18 21
M  V30 21 2 17 22
M  V30 22 1 22 23
M  V30 23 1 23 24
M  V30 24 1 24 25
M  V30 25 1 24 26
M  V30 26 1 26 27
M  V30 27 1 26 28
M  V30 28 1 26 29
M  V30 29 2 23 30
M  V30 30 1 30 31
M  V30 31 1 31 32
M  V30 32 1 10 33
M  V30 33 1 33 34
M  V30 34 1 8 3
M  V30 35 1 30 15
M  V30 36 1 33 7
M  V30 37 1 1 35
M  V30 38 1 1 36
M  V30 39 1 1 37
M  V30 40 1 4 38
M  V30 41 1 5 39
M  V30 42 1 6 40
M  V30 43 1 9 41
M  V30 44 1 9 42
M  V30 45 1 10 43 CFG=3
M  V30 46 1 11 44
M  V30 47 1 14 45
M  V30 48 1 16 46
M  V30 49 1 19 47
M  V30 50 1 19 48
M  V30 51 1 19 49
M  V30 52 1 20 50
M  V30 53 1 20 51
M  V30 54 1 20 52
M  V30 55 1 21 53
M  V30 56 1 21 54
M  V30 57 1 21 55
M  V30 58 1 22 56
M  V30 59 1 24 57 CFG=3
M  V30 60 1 25 58
M  V30 61 1 32 59
M  V30 62 1 32 60
M  V30 63 1 32 61
M  V30 64 1 33 62 CFG=3
M  V30 65 1 34 63
M  V30 END BOND
M  V30 END CTAB
M  END
>  <Dataset>  (829) 
ChEMBL_Kinases

>  <Ligand_Instance>  (829) 
nan

>  <PDB_ID>  (829) 
nan

>  <Standardized_SMILES>  (829) 
COc1cccc2c1C[C@@H](NC(=O)Nc1cc(C(C)(C)C)cc([C@H](O)C(F)(F)F)c1OC)[C@H]2O

>  <Name>  (829) 
nan

>  <Pocket>  (829) 
nan

>  <ATP_Site>  (829) 
nan

>  <Peripheral>  (829) 
nan

>  <Num_H_Atoms_ProtBoundConf>  (829) 
nan

>  <Num_Resolved_Atoms>  (829) 
nan

>  <Num_Not_Resolved_Atoms>  (829) 
nan

$$$$
CHEMBL3652535
     RDKit          3D

  0  0  0  0  0  0  0  0  0  0999 V3000
M  V30 BEGIN CTAB
M  V30 COUNTS 60 63 0 0 0
M  V30 BEGIN ATOM
M  V30 1 C 1.191833 -1.680134 4.325326 0
M  V30 2 O 0.276550 -1.146326 3.394560 0
M  V30 3 C -0.352492 -1.954527 2.484087 0
M  V30 4 C 0.254349 -2.183225 1.266654 0
M  V30 5 N 1.518311 -1.571329 0.993038 0
M  V30 6 C 1.385289 -0.286617 0.383547 0
M  V30 7 O 0.224135 0.118991 0.177141 0
M  V30 8 N 2.441289 0.569366 -0.008250 0
M  V30 9 C 2.234698 1.849822 -0.616455 0 CFG=2
M  V30 10 C 2.903240 2.075219 -1.929316 0
M  V30 11 C 2.686935 3.559146 -2.070278 0
M  V30 12 C 2.542950 4.449426 -3.119799 0
M  V30 13 F 2.596004 3.953825 -4.381730 0
M  V30 14 C 2.351520 5.796756 -2.905354 0
M  V30 15 C 2.296131 6.310267 -1.627116 0
M  V30 16 C 2.434342 5.460254 -0.574674 0
M  V30 17 C 2.627415 4.102482 -0.780022 0
M  V30 18 C 2.802079 2.992939 0.197711 0 CFG=2
M  V30 19 O 4.149539 2.815848 0.509824 0
M  V30 20 C -0.373653 -2.995768 0.345514 0
M  V30 21 C -1.601939 -3.607473 0.575879 0
M  V30 22 N -2.222488 -4.440387 -0.396383 0
M  V30 23 C -3.513762 -5.023175 -0.019685 0
M  V30 24 C -4.150942 -5.799364 -1.125023 0
M  V30 25 O -3.218083 -6.214273 -2.069306 0
M  V30 26 C -2.600609 -5.109854 -2.652108 0
M  V30 27 C -1.536440 -4.637589 -1.653704 0
M  V30 28 C -2.154152 -3.338568 1.809708 0
M  V30 29 C -1.567286 -2.532018 2.768279 0
M  V30 30 C -2.315659 -2.349167 4.038403 0 CFG=1
M  V30 31 O -1.494925 -2.012085 5.101785 0
M  V30 32 C -3.218597 -1.131170 3.794573 0
M  V30 33 F -4.064147 -1.423378 2.719256 0
M  V30 34 F -3.951216 -0.827691 4.911560 0
M  V30 35 F -2.478810 -0.046683 3.391424 0
M  V30 36 H 2.211799 -1.469835 3.886972 0
M  V30 37 H 1.065326 -2.763507 4.509562 0
M  V30 38 H 1.093459 -1.148687 5.276100 0
M  V30 39 H 2.499961 -1.900610 1.161196 0
M  V30 40 H 3.420495 0.212465 0.172685 0
M  V30 41 H 1.162897 2.044188 -0.720856 0
M  V30 42 H 3.991791 1.861224 -1.913621 0
M  V30 43 H 2.456161 1.520292 -2.774485 0
M  V30 44 H 2.240251 6.483262 -3.733987 0
M  V30 45 H 2.145152 7.371011 -1.476249 0
M  V30 46 H 2.393099 5.849381 0.444487 0
M  V30 47 H 2.268793 3.151006 1.142369 0
M  V30 48 H 4.744859 3.193504 -0.201909 0
M  V30 49 H 0.144801 -3.137200 -0.582187 0
M  V30 50 H -4.199994 -4.225727 0.331632 0
M  V30 51 H -3.333381 -5.746819 0.828453 0
M  V30 52 H -4.718901 -6.682894 -0.800471 0
M  V30 53 H -4.858849 -5.121592 -1.675068 0
M  V30 54 H -2.142296 -5.337568 -3.627022 0
M  V30 55 H -3.356247 -4.302428 -2.704916 0
M  V30 56 H -1.096963 -3.731192 -2.085332 0
M  V30 57 H -0.766460 -5.434873 -1.501882 0
M  V30 58 H -3.115304 -3.808572 2.008008 0
M  V30 59 H -2.915981 -3.247153 4.240487 0
M  V30 60 H -1.479204 -2.716181 5.801838 0
M  V30 END ATOM
M  V30 BEGIN BOND
M  V30 1 1 1 2
M  V30 2 1 2 3
M  V30 3 2 3 4
M  V30 4 1 4 5
M  V30 5 1 5 6
M  V30 6 2 6 7
M  V30 7 1 6 8
M  V30 8 1 8 9
M  V30 9 1 9 10
M  V30 10 1 10 11
M  V30 11 2 11 12
M  V30 12 1 12 13
M  V30 13 1 12 14
M  V30 14 2 14 15
M  V30 15 1 15 16
M  V30 16 2 16 17
M  V30 17 1 17 18
M  V30 18 1 18 19
M  V30 19 1 4 20
M  V30 20 2 20 21
M  V30 21 1 21 22
M  V30 22 1 22 23
M  V30 23 1 23 24
M  V30 24 1 24 25
M  V30 25 1 25 26
M  V30 26 1 26 27
M  V30 27 1 21 28
M  V30 28 2 28 29
M  V30 29 1 29 30
M  V30 30 1 30 31
M  V30 31 1 30 32
M  V30 32 1 32 33
M  V30 33 1 32 34
M  V30 34 1 32 35
M  V30 35 1 29 3
M  V30 36 1 18 9
M  V30 37 1 27 22
M  V30 38 1 17 11
M  V30 39 1 1 36
M  V30 40 1 1 37
M  V30 41 1 1 38
M  V30 42 1 5 39
M  V30 43 1 8 40
M  V30 44 1 9 41 CFG=3
M  V30 45 1 10 42
M  V30 46 1 10 43
M  V30 47 1 14 44
M  V30 48 1 15 45
M  V30 49 1 16 46
M  V30 50 1 18 47 CFG=1
M  V30 51 1 19 48
M  V30 52 1 20 49
M  V30 53 1 23 50
M  V30 54 1 23 51
M  V30 55 1 24 52
M  V30 56 1 24 53
M  V30 57 1 26 54
M  V30 58 1 26 55
M  V30 59 1 27 56
M  V30 60 1 27 57
M  V30 61 1 28 58
M  V30 62 1 30 59 CFG=1
M  V30 63 1 31 60
M  V30 END BOND
M  V30 END CTAB
M  END
>  <Dataset>  (830) 
ChEMBL_Kinases

>  <Ligand_Instance>  (830) 
nan

>  <PDB_ID>  (830) 
nan

>  <Standardized_SMILES>  (830) 
COc1c(NC(=O)N[C@@H]2Cc3c(F)cccc3[C@@H]2O)cc(N2CCOCC2)cc1[C@@H](O)C(F)(F)F

>  <Name>  (830) 
nan

>  <Pocket>  (830) 
nan

>  <ATP_Site>  (830) 
nan

>  <Peripheral>  (830) 
nan

>  <Num_H_Atoms_ProtBoundConf>  (830) 
nan

>  <Num_Resolved_Atoms>  (830) 
nan

>  <Num_Not_Resolved_Atoms>  (830) 
nan

$$$$
CHEMBL3652563
     RDKit          3D

  0  0  0  0  0  0  0  0  0  0999 V3000
M  V30 BEGIN CTAB
M  V30 COUNTS 58 63 0 0 0
M  V30 BEGIN ATOM
M  V30 1 C -9.034616 -2.069052 -1.070772 0
M  V30 2 N -7.718794 -1.887387 -0.485260 0
M  V30 3 C -6.626702 -2.621138 -0.765455 0
M  V30 4 C -5.559889 -2.136932 0.000124 0
M  V30 5 C -4.270275 -2.764635 -0.124896 0
M  V30 6 C -4.178096 -4.113114 -0.403846 0
M  V30 7 N -2.960354 -4.696099 -0.525771 0
M  V30 8 C -1.866828 -3.901126 -0.362563 0
M  V30 9 N -0.593178 -4.342586 -0.458744 0
M  V30 10 C 0.213030 -3.283438 -0.242952 0
M  V30 11 C -0.582532 -2.180988 -0.011942 0
M  V30 12 C -0.154781 -0.813611 0.262843 0
M  V30 13 C 1.192906 -0.526403 0.265165 0
M  V30 14 C 1.775257 0.700910 0.496460 0
M  V30 15 C 3.258664 0.873328 0.461611 0
M  V30 16 C 3.973911 0.099148 1.473160 0
M  V30 17 C 3.737685 0.374708 2.801892 0
M  V30 18 C 4.427970 -0.371400 3.738103 0
M  V30 19 C 5.342199 -1.378627 3.408568 0
M  V30 20 C 5.551779 -1.625255 2.050264 0
M  V30 21 C 4.865919 -0.884409 1.094254 0
M  V30 22 C 3.520157 2.368529 0.706044 0
M  V30 23 C 4.965090 2.447875 0.328485 0
M  V30 24 C 4.993817 1.643880 -0.960162 0
M  V30 25 C 3.773645 0.754461 -0.933522 0
M  V30 26 N 0.874393 1.690575 0.742068 0
M  V30 27 C -0.434893 1.463364 0.750888 0
M  V30 28 N -1.345398 2.537681 1.015520 0
M  V30 29 N -0.970905 0.235320 0.517081 0
M  V30 30 C -1.918713 -2.556187 -0.084212 0
M  V30 31 C -3.165893 -1.946684 0.043383 0
M  V30 32 C -6.108261 -1.097747 0.721274 0
M  V30 33 N -7.430758 -0.952066 0.417940 0
M  V30 34 H -9.794063 -2.305600 -0.298214 0
M  V30 35 H -9.346437 -1.139481 -1.628908 0
M  V30 36 H -9.002921 -2.899259 -1.822666 0
M  V30 37 H -6.648966 -3.449926 -1.489675 0
M  V30 38 H -5.116794 -4.668202 -0.517722 0
M  V30 39 H -0.232386 -5.308802 -0.659651 0
M  V30 40 H 1.275941 -3.315885 -0.253959 0
M  V30 41 H 1.900001 -1.347416 0.063320 0
M  V30 42 H 3.039042 1.144961 3.123418 0
M  V30 43 H 4.292697 -0.209750 4.817998 0
M  V30 44 H 5.849549 -1.925309 4.190507 0
M  V30 45 H 6.259860 -2.405551 1.756423 0
M  V30 46 H 5.088942 -1.141250 0.073558 0
M  V30 47 H 3.291730 2.663564 1.727349 0
M  V30 48 H 2.873297 2.896095 -0.056082 0
M  V30 49 H 5.537906 1.840694 1.067134 0
M  V30 50 H 5.353681 3.478442 0.199632 0
M  V30 51 H 4.958957 2.391673 -1.794260 0
M  V30 52 H 5.941895 1.080393 -1.097879 0
M  V30 53 H 3.018376 1.265077 -1.590962 0
M  V30 54 H 3.913540 -0.247403 -1.326740 0
M  V30 55 H -1.704836 3.204584 1.732677 0
M  V30 56 H -1.892197 2.773778 0.143733 0
M  V30 57 H -3.183812 -0.907428 0.259145 0
M  V30 58 H -5.473950 -0.546743 1.404061 0
M  V30 END ATOM
M  V30 BEGIN BOND
M  V30 1 1 1 2
M  V30 2 1 2 3
M  V30 3 2 3 4
M  V30 4 1 4 5
M  V30 5 2 5 6
M  V30 6 1 6 7
M  V30 7 2 7 8
M  V30 8 1 8 9
M  V30 9 1 9 10
M  V30 10 2 10 11
M  V30 11 1 11 12
M  V30 12 2 12 13
M  V30 13 1 13 14
M  V30 14 1 14 15
M  V30 15 1 15 16
M  V30 16 2 16 17
M  V30 17 1 17 18
M  V30 18 2 18 19
M  V30 19 1 19 20
M  V30 20 2 20 21
M  V30 21 1 15 22
M  V30 22 1 22 23
M  V30 23 1 23 24
M  V30 24 1 24 25
M  V30 25 2 14 26
M  V30 26 1 26 27
M  V30 27 1 27 28
M  V30 28 2 27 29
M  V30 29 1 11 30
M  V30 30 2 30 31
M  V30 31 1 4 32
M  V30 32 2 32 33
M  V30 33 1 33 2
M  V30 34 1 31 5
M  V30 35 1 30 8
M  V30 36 1 29 12
M  V30 37 1 25 15
M  V30 38 1 21 16
M  V30 39 1 1 34
M  V30 40 1 1 35
M  V30 41 1 1 36
M  V30 42 1 3 37
M  V30 43 1 6 38
M  V30 44 1 9 39
M  V30 45 1 10 40
M  V30 46 1 13 41
M  V30 47 1 17 42
M  V30 48 1 18 43
M  V30 49 1 19 44
M  V30 50 1 20 45
M  V30 51 1 21 46
M  V30 52 1 22 47
M  V30 53 1 22 48
M  V30 54 1 23 49
M  V30 55 1 23 50
M  V30 56 1 24 51
M  V30 57 1 24 52
M  V30 58 1 25 53
M  V30 59 1 25 54
M  V30 60 1 28 55
M  V30 61 1 28 56
M  V30 62 1 31 57
M  V30 63 1 32 58
M  V30 END BOND
M  V30 END CTAB
M  END
>  <Dataset>  (831) 
ChEMBL_Kinases

>  <Ligand_Instance>  (831) 
nan

>  <PDB_ID>  (831) 
nan

>  <Standardized_SMILES>  (831) 
Cn1cc(-c2cnc3[nH]cc(-c4cc(C5(c6ccccc6)CCCC5)nc(N)n4)c3c2)cn1

>  <Name>  (831) 
nan

>  <Pocket>  (831) 
nan

>  <ATP_Site>  (831) 
nan

>  <Peripheral>  (831) 
nan

>  <Num_H_Atoms_ProtBoundConf>  (831) 
nan

>  <Num_Resolved_Atoms>  (831) 
nan

>  <Num_Not_Resolved_Atoms>  (831) 
nan

$$$$
CHEMBL3652537
     RDKit          3D

  0  0  0  0  0  0  0  0  0  0999 V3000
M  V30 BEGIN CTAB
M  V30 COUNTS 64 67 0 0 0
M  V30 BEGIN ATOM
M  V30 1 C -2.001103 1.442813 3.054377 0
M  V30 2 O -2.216793 0.795001 1.820774 0
M  V30 3 C -2.047624 -0.562576 1.596510 0
M  V30 4 C -0.757815 -0.929477 1.192930 0
M  V30 5 N 0.285929 0.054979 1.034129 0
M  V30 6 C 0.377811 0.624701 -0.265140 0
M  V30 7 O -0.437669 0.226227 -1.127058 0
M  V30 8 N 1.368724 1.591325 -0.501323 0
M  V30 9 C 1.528933 2.221362 -1.799451 0 CFG=2
M  V30 10 C 2.956552 2.050988 -2.278127 0
M  V30 11 C 3.709101 3.101636 -1.525902 0
M  V30 12 C 5.033351 3.273877 -1.125506 0
M  V30 13 C 5.368504 4.413012 -0.420806 0
M  V30 14 C 4.465472 5.406168 -0.082190 0
M  V30 15 C 3.158619 5.228968 -0.481281 0
M  V30 16 C 2.788665 4.085544 -1.196368 0
M  V30 17 C 1.443019 3.737817 -1.698384 0 CFG=2
M  V30 18 O 0.427876 4.184225 -0.885220 0
M  V30 19 C -0.462221 -2.273491 0.935376 0
M  V30 20 C -1.447850 -3.250641 1.078981 0
M  V30 21 C -1.102985 -4.673139 0.797887 0
M  V30 22 C -2.357958 -5.492006 1.036330 0
M  V30 23 C -0.736436 -4.885799 -0.645135 0
M  V30 24 C 0.175260 -6.027077 -0.911798 0
M  V30 25 O 0.512936 -6.771437 0.220185 0
M  V30 26 C 1.095642 -5.838599 1.095660 0
M  V30 27 C -0.063220 -5.138430 1.759544 0
M  V30 28 C -2.705300 -2.846607 1.478413 0
M  V30 29 C -3.008476 -1.515658 1.736307 0
M  V30 30 C -4.371362 -1.125983 2.159157 0 CFG=1
M  V30 31 O -4.324360 -0.112685 3.079712 0
M  V30 32 C -5.259116 -0.787465 0.988917 0
M  V30 33 F -4.738791 0.252629 0.278870 0
M  V30 34 F -5.523600 -1.915833 0.253982 0
M  V30 35 F -6.480586 -0.390143 1.524232 0
M  V30 36 H -2.816396 2.169384 3.259006 0
M  V30 37 H -1.856629 0.744924 3.908217 0
M  V30 38 H -1.060530 2.057770 3.032864 0
M  V30 39 H 0.921024 0.315601 1.837631 0
M  V30 40 H 2.035433 1.903809 0.238087 0
M  V30 41 H 0.780666 1.836370 -2.535376 0
M  V30 42 H 3.036007 2.201274 -3.378452 0
M  V30 43 H 3.385171 1.063173 -2.024295 0
M  V30 44 H 5.760263 2.508526 -1.379242 0
M  V30 45 H 6.412578 4.516653 -0.122843 0
M  V30 46 H 4.820120 6.262116 0.471079 0
M  V30 47 H 2.423640 5.998594 -0.227006 0
M  V30 48 H 1.362395 4.105151 -2.740542 0
M  V30 49 H -0.418528 4.273479 -1.414795 0
M  V30 50 H 0.558930 -2.497318 0.624648 0
M  V30 51 H -2.725910 -5.405762 2.087371 0
M  V30 52 H -2.030074 -6.568784 0.957665 0
M  V30 53 H -3.129411 -5.349072 0.273389 0
M  V30 54 H -1.629706 -4.951416 -1.298716 0
M  V30 55 H -0.218569 -3.940945 -0.984353 0
M  V30 56 H -0.273609 -6.708779 -1.657440 0
M  V30 57 H 1.152431 -5.692150 -1.363009 0
M  V30 58 H 1.660479 -6.373528 1.859649 0
M  V30 59 H 1.746368 -5.148910 0.535547 0
M  V30 60 H -0.467185 -5.857021 2.502499 0
M  V30 61 H 0.315562 -4.284532 2.355012 0
M  V30 62 H -3.491538 -3.579561 1.598998 0
M  V30 63 H -4.815153 -2.010710 2.686154 0
M  V30 64 H -4.880490 0.672058 2.853382 0
M  V30 END ATOM
M  V30 BEGIN BOND
M  V30 1 1 1 2
M  V30 2 1 2 3
M  V30 3 2 3 4
M  V30 4 1 4 5
M  V30 5 1 5 6
M  V30 6 2 6 7
M  V30 7 1 6 8
M  V30 8 1 8 9
M  V30 9 1 9 10
M  V30 10 1 10 11
M  V30 11 2 11 12
M  V30 12 1 12 13
M  V30 13 2 13 14
M  V30 14 1 14 15
M  V30 15 2 15 16
M  V30 16 1 16 17
M  V30 17 1 17 18
M  V30 18 1 4 19
M  V30 19 2 19 20
M  V30 20 1 20 21
M  V30 21 1 21 22
M  V30 22 1 21 23
M  V30 23 1 23 24
M  V30 24 1 24 25
M  V30 25 1 25 26
M  V30 26 1 26 27
M  V30 27 1 20 28
M  V30 28 2 28 29
M  V30 29 1 29 30
M  V30 30 1 30 31
M  V30 31 1 30 32
M  V30 32 1 32 33
M  V30 33 1 32 34
M  V30 34 1 32 35
M  V30 35 1 29 3
M  V30 36 1 17 9
M  V30 37 1 27 21
M  V30 38 1 16 11
M  V30 39 1 1 36
M  V30 40 1 1 37
M  V30 41 1 1 38
M  V30 42 1 5 39
M  V30 43 1 8 40
M  V30 44 1 9 41 CFG=3
M  V30 45 1 10 42
M  V30 46 1 10 43
M  V30 47 1 12 44
M  V30 48 1 13 45
M  V30 49 1 14 46
M  V30 50 1 15 47
M  V30 51 1 17 48 CFG=3
M  V30 52 1 18 49
M  V30 53 1 19 50
M  V30 54 1 22 51
M  V30 55 1 22 52
M  V30 56 1 22 53
M  V30 57 1 23 54
M  V30 58 1 23 55
M  V30 59 1 24 56
M  V30 60 1 24 57
M  V30 61 1 26 58
M  V30 62 1 26 59
M  V30 63 1 27 60
M  V30 64 1 27 61
M  V30 65 1 28 62
M  V30 66 1 30 63 CFG=1
M  V30 67 1 31 64
M  V30 END BOND
M  V30 END CTAB
M  END
>  <Dataset>  (832) 
ChEMBL_Kinases

>  <Ligand_Instance>  (832) 
nan

>  <PDB_ID>  (832) 
nan

>  <Standardized_SMILES>  (832) 
COc1c(NC(=O)N[C@@H]2Cc3ccccc3[C@@H]2O)cc(C2(C)CCOCC2)cc1[C@@H](O)C(F)(F)F

>  <Name>  (832) 
nan

>  <Pocket>  (832) 
nan

>  <ATP_Site>  (832) 
nan

>  <Peripheral>  (832) 
nan

>  <Num_H_Atoms_ProtBoundConf>  (832) 
nan

>  <Num_Resolved_Atoms>  (832) 
nan

>  <Num_Not_Resolved_Atoms>  (832) 
nan

$$$$
CHEMBL3652538
     RDKit          3D

  0  0  0  0  0  0  0  0  0  0999 V3000
M  V30 BEGIN CTAB
M  V30 COUNTS 62 64 0 0 0
M  V30 BEGIN ATOM
M  V30 1 C 4.900259 -1.624322 4.542615 0
M  V30 2 C 3.626627 -2.180457 3.952754 0
M  V30 3 C 3.033245 -1.178112 3.006135 0
M  V30 4 C 3.964148 -0.835280 1.861158 0
M  V30 5 C 2.709835 0.101519 3.745922 0
M  V30 6 C 1.770605 -1.687627 2.411326 0
M  V30 7 C 1.057427 -0.936576 1.519750 0
M  V30 8 C -0.116106 -1.343624 0.931505 0
M  V30 9 N -0.905257 -0.626242 0.006129 0
M  V30 10 C -0.681428 0.662637 -0.530067 0
M  V30 11 O 0.315143 1.311775 -0.194114 0
M  V30 12 N -1.544358 1.299107 -1.462273 0
M  V30 13 C -1.247554 2.619695 -1.965575 0 CFG=2
M  V30 14 C -2.451766 3.555226 -1.779652 0
M  V30 15 C -3.413829 2.909114 -2.713321 0
M  V30 16 C -4.801572 2.877450 -2.655420 0
M  V30 17 C -5.432716 2.202259 -3.660378 0
M  V30 18 C -4.759660 1.588041 -4.671057 0
M  V30 19 C -3.366378 1.613633 -4.738871 0
M  V30 20 C -2.708596 2.293558 -3.728554 0
M  V30 21 C -1.259259 2.523430 -3.481641 0 CFG=2
M  V30 22 O -0.472294 1.485053 -3.947802 0
M  V30 23 C -0.542212 -2.597892 1.309811 0
M  V30 24 O -1.731910 -3.117364 0.770541 0
M  V30 25 C -1.575107 -3.864469 -0.439508 0
M  V30 26 C 0.165184 -3.368530 2.207924 0
M  V30 27 C -0.370999 -4.707427 2.555883 0 CFG=1
M  V30 28 O 0.696633 -5.570218 2.841677 0
M  V30 29 C -1.298384 -4.670850 3.737937 0
M  V30 30 F -0.716186 -4.203932 4.881078 0
M  V30 31 F -2.468179 -4.035116 3.406138 0
M  V30 32 F -1.652008 -6.004254 3.983515 0
M  V30 33 C 1.322719 -2.938110 2.772677 0
M  V30 34 H 4.784351 -1.402160 5.638940 0
M  V30 35 H 5.151749 -0.657622 4.068965 0
M  V30 36 H 5.737114 -2.358060 4.473429 0
M  V30 37 H 2.915922 -2.332585 4.773997 0
M  V30 38 H 3.810462 -3.131988 3.412825 0
M  V30 39 H 4.958423 -1.256750 2.011271 0
M  V30 40 H 4.044957 0.270213 1.721030 0
M  V30 41 H 3.570250 -1.224044 0.882126 0
M  V30 42 H 1.704443 0.493078 3.496534 0
M  V30 43 H 3.476890 0.877120 3.572478 0
M  V30 44 H 2.688176 -0.125535 4.820869 0
M  V30 45 H 1.452174 0.013874 1.282481 0
M  V30 46 H -1.782325 -1.049167 -0.369198 0
M  V30 47 H -2.404038 0.806316 -1.787840 0
M  V30 48 H -0.333466 3.050157 -1.570528 0
M  V30 49 H -2.119077 4.538435 -2.161756 0
M  V30 50 H -2.787439 3.582144 -0.740190 0
M  V30 51 H -5.340436 3.364102 -1.854236 0
M  V30 52 H -6.526744 2.188483 -3.597217 0
M  V30 53 H -5.354307 1.068610 -5.435753 0
M  V30 54 H -2.865565 1.122298 -5.544418 0
M  V30 55 H -0.962662 3.519117 -3.860194 0
M  V30 56 H -0.880755 1.167649 -4.791653 0
M  V30 57 H -2.241927 -4.753272 -0.466241 0
M  V30 58 H -0.544146 -4.248367 -0.554793 0
M  V30 59 H -1.809048 -3.263613 -1.341231 0
M  V30 60 H -0.972457 -5.087830 1.699827 0
M  V30 61 H 0.957113 -5.949147 1.958304 0
M  V30 62 H 1.825125 -3.595790 3.469636 0
M  V30 END ATOM
M  V30 BEGIN BOND
M  V30 1 1 1 2
M  V30 2 1 2 3
M  V30 3 1 3 4
M  V30 4 1 3 5
M  V30 5 1 3 6
M  V30 6 2 6 7
M  V30 7 1 7 8
M  V30 8 1 8 9
M  V30 9 1 9 10
M  V30 10 2 10 11
M  V30 11 1 10 12
M  V30 12 1 12 13
M  V30 13 1 13 14
M  V30 14 1 14 15
M  V30 15 2 15 16
M  V30 16 1 16 17
M  V30 17 2 17 18
M  V30 18 1 18 19
M  V30 19 2 19 20
M  V30 20 1 20 21
M  V30 21 1 21 22
M  V30 22 2 8 23
M  V30 23 1 23 24
M  V30 24 1 24 25
M  V30 25 1 23 26
M  V30 26 1 26 27
M  V30 27 1 27 28
M  V30 28 1 27 29
M  V30 29 1 29 30
M  V30 30 1 29 31
M  V30 31 1 29 32
M  V30 32 2 26 33
M  V30 33 1 33 6
M  V30 34 1 21 13
M  V30 35 1 20 15
M  V30 36 1 1 34
M  V30 37 1 1 35
M  V30 38 1 1 36
M  V30 39 1 2 37
M  V30 40 1 2 38
M  V30 41 1 4 39
M  V30 42 1 4 40
M  V30 43 1 4 41
M  V30 44 1 5 42
M  V30 45 1 5 43
M  V30 46 1 5 44
M  V30 47 1 7 45
M  V30 48 1 9 46
M  V30 49 1 12 47
M  V30 50 1 13 48 CFG=1
M  V30 51 1 14 49
M  V30 52 1 14 50
M  V30 53 1 16 51
M  V30 54 1 17 52
M  V30 55 1 18 53
M  V30 56 1 19 54
M  V30 57 1 21 55 CFG=3
M  V30 58 1 22 56
M  V30 59 1 25 57
M  V30 60 1 25 58
M  V30 61 1 25 59
M  V30 62 1 27 60 CFG=3
M  V30 63 1 28 61
M  V30 64 1 33 62
M  V30 END BOND
M  V30 END CTAB
M  END
>  <Dataset>  (833) 
ChEMBL_Kinases

>  <Ligand_Instance>  (833) 
nan

>  <PDB_ID>  (833) 
nan

>  <Standardized_SMILES>  (833) 
CCC(C)(C)c1cc(NC(=O)N[C@@H]2Cc3ccccc3[C@@H]2O)c(OC)c([C@@H](O)C(F)(F)F)c1

>  <Name>  (833) 
nan

>  <Pocket>  (833) 
nan

>  <ATP_Site>  (833) 
nan

>  <Peripheral>  (833) 
nan

>  <Num_H_Atoms_ProtBoundConf>  (833) 
nan

>  <Num_Resolved_Atoms>  (833) 
nan

>  <Num_Not_Resolved_Atoms>  (833) 
nan

$$$$
CHEMBL3652539
     RDKit          3D

  0  0  0  0  0  0  0  0  0  0999 V3000
M  V30 BEGIN CTAB
M  V30 COUNTS 58 60 0 0 0
M  V30 BEGIN ATOM
M  V30 1 C 0.948398 -3.175124 2.832076 0
M  V30 2 O 1.192454 -3.155263 1.442512 0
M  V30 3 C 0.092146 -3.016974 0.589715 0
M  V30 4 C -0.302524 -1.745805 0.248246 0
M  V30 5 N 0.417342 -0.640050 0.762682 0
M  V30 6 C 0.213949 0.748458 0.578327 0
M  V30 7 O -0.731578 1.123190 -0.138673 0
M  V30 8 N 0.992415 1.767911 1.137998 0
M  V30 9 C 0.694609 3.162969 0.882656 0
M  V30 10 C 1.894165 3.848761 0.251918 0
M  V30 11 C 2.738467 4.149296 1.427808 0
M  V30 12 C 4.107327 4.347440 1.464404 0
M  V30 13 C 4.748204 4.621884 2.656589 0
M  V30 14 C 3.964623 4.689046 3.803431 0
M  V30 15 C 2.591935 4.485981 3.738695 0
M  V30 16 C 1.943893 4.212255 2.557751 0
M  V30 17 C 0.535019 3.952521 2.159708 0
M  V30 18 C -1.388730 -1.656123 -0.591658 0
M  V30 19 C -2.089486 -2.728518 -1.100691 0
M  V30 20 C -3.251304 -2.585442 -2.000639 0
M  V30 21 C -4.501701 -2.510867 -1.113717 0
M  V30 22 C -3.232530 -1.232504 -2.718032 0
M  V30 23 C -3.369889 -3.669935 -3.025319 0
M  V30 24 C -1.686119 -4.000748 -0.752970 0
M  V30 25 C -0.581822 -4.117178 0.101644 0
M  V30 26 C -0.175737 -5.499890 0.439180 0
M  V30 27 O 0.249139 -5.680957 1.732922 0
M  V30 28 C 0.841050 -6.032637 -0.562634 0
M  V30 29 F 0.255079 -6.020541 -1.829987 0
M  V30 30 F 1.979780 -5.262287 -0.625401 0
M  V30 31 F 1.207403 -7.322792 -0.265980 0
M  V30 32 H -0.098456 -3.344591 3.105910 0
M  V30 33 H 1.574062 -3.941294 3.358612 0
M  V30 34 H 1.259411 -2.204965 3.308769 0
M  V30 35 H 1.240261 -0.805658 1.380164 0
M  V30 36 H 1.810844 1.493722 1.757346 0
M  V30 37 H -0.179246 3.223568 0.229093 0
M  V30 38 H 1.596203 4.761044 -0.299208 0
M  V30 39 H 2.419131 3.195184 -0.484769 0
M  V30 40 H 4.720739 4.296217 0.576113 0
M  V30 41 H 5.805946 4.783906 2.741919 0
M  V30 42 H 4.417893 4.903853 4.780473 0
M  V30 43 H 2.016169 4.548923 4.669187 0
M  V30 44 H 0.092698 4.927154 1.860568 0
M  V30 45 H -0.055105 3.421724 2.922360 0
M  V30 46 H -1.768073 -0.719527 -0.911613 0
M  V30 47 H -4.272797 -1.687147 -0.390473 0
M  V30 48 H -4.702582 -3.444548 -0.581852 0
M  V30 49 H -5.317247 -2.175725 -1.790716 0
M  V30 50 H -3.579019 -0.406207 -2.067942 0
M  V30 51 H -3.956195 -1.332077 -3.558793 0
M  V30 52 H -2.242418 -1.042137 -3.175875 0
M  V30 53 H -4.252675 -4.304500 -2.719106 0
M  V30 54 H -2.431543 -4.288567 -3.057404 0
M  V30 55 H -3.532013 -3.244960 -4.024098 0
M  V30 56 H -2.195497 -4.881824 -1.120217 0
M  V30 57 H -1.063175 -6.190222 0.316371 0
M  V30 58 H 0.141317 -6.635276 1.979886 0
M  V30 END ATOM
M  V30 BEGIN BOND
M  V30 1 1 1 2
M  V30 2 1 2 3
M  V30 3 2 3 4
M  V30 4 1 4 5
M  V30 5 1 5 6
M  V30 6 2 6 7
M  V30 7 1 6 8
M  V30 8 1 8 9
M  V30 9 1 9 10
M  V30 10 1 10 11
M  V30 11 2 11 12
M  V30 12 1 12 13
M  V30 13 2 13 14
M  V30 14 1 14 15
M  V30 15 2 15 16
M  V30 16 1 16 17
M  V30 17 1 4 18
M  V30 18 2 18 19
M  V30 19 1 19 20
M  V30 20 1 20 21
M  V30 21 1 20 22
M  V30 22 1 20 23
M  V30 23 1 19 24
M  V30 24 2 24 25
M  V30 25 1 25 26
M  V30 26 1 26 27
M  V30 27 1 26 28
M  V30 28 1 28 29
M  V30 29 1 28 30
M  V30 30 1 28 31
M  V30 31 1 25 3
M  V30 32 1 17 9
M  V30 33 1 16 11
M  V30 34 1 1 32
M  V30 35 1 1 33
M  V30 36 1 1 34
M  V30 37 1 5 35
M  V30 38 1 8 36
M  V30 39 1 9 37
M  V30 40 1 10 38
M  V30 41 1 10 39
M  V30 42 1 12 40
M  V30 43 1 13 41
M  V30 44 1 14 42
M  V30 45 1 15 43
M  V30 46 1 17 44
M  V30 47 1 17 45
M  V30 48 1 18 46
M  V30 49 1 21 47
M  V30 50 1 21 48
M  V30 51 1 21 49
M  V30 52 1 22 50
M  V30 53 1 22 51
M  V30 54 1 22 52
M  V30 55 1 23 53
M  V30 56 1 23 54
M  V30 57 1 23 55
M  V30 58 1 24 56
M  V30 59 1 26 57
M  V30 60 1 27 58
M  V30 END BOND
M  V30 END CTAB
M  END
>  <Dataset>  (834) 
ChEMBL_Kinases

>  <Ligand_Instance>  (834) 
nan

>  <PDB_ID>  (834) 
nan

>  <Standardized_SMILES>  (834) 
COc1c(NC(=O)NC2Cc3ccccc3C2)cc(C(C)(C)C)cc1C(O)C(F)(F)F

>  <Name>  (834) 
nan

>  <Pocket>  (834) 
nan

>  <ATP_Site>  (834) 
nan

>  <Peripheral>  (834) 
nan

>  <Num_H_Atoms_ProtBoundConf>  (834) 
nan

>  <Num_Resolved_Atoms>  (834) 
nan

>  <Num_Not_Resolved_Atoms>  (834) 
nan

$$$$
CHEMBL3652558
     RDKit          3D

  0  0  0  0  0  0  0  0  0  0999 V3000
M  V30 BEGIN CTAB
M  V30 COUNTS 50 54 0 0 0
M  V30 BEGIN ATOM
M  V30 1 C 1.016401 -1.472927 2.396627 0
M  V30 2 N 2.239996 -1.585044 1.633724 0
M  V30 3 C 3.323840 -2.396422 2.023562 0
M  V30 4 C 4.534812 -2.582821 1.412811 0
M  V30 5 C 5.556675 -3.395773 1.832442 0
M  V30 6 C 5.382643 -4.123525 2.996052 0
M  V30 7 C 4.166534 -3.977232 3.667817 0
M  V30 8 F 4.111692 -4.736640 4.791067 0
M  V30 9 C 3.188920 -3.141522 3.183656 0
M  V30 10 C 2.239778 -0.811467 0.441424 0
M  V30 11 C 1.156180 -0.108678 0.021573 0
M  V30 12 C 1.021887 0.675358 -1.088618 0
M  V30 13 C -0.084029 1.457040 -1.577853 0
M  V30 14 C 0.092654 2.352000 -2.640006 0
M  V30 15 N -1.081669 2.939603 -2.907823 0
M  V30 16 C -2.066392 2.514459 -2.104591 0
M  V30 17 N -3.379989 2.746359 -1.938827 0
M  V30 18 C -4.132758 2.129780 -1.011566 0
M  V30 19 C -3.497496 1.234084 -0.221646 0
M  V30 20 C -4.307611 0.551580 0.795956 0
M  V30 21 C -5.405017 0.937221 1.536695 0
M  V30 22 N -5.758214 -0.098216 2.335510 0
M  V30 23 N -4.935020 -1.125767 2.136778 0
M  V30 24 C -4.935103 -2.429575 2.766967 0
M  V30 25 C -4.044801 -0.745184 1.200712 0
M  V30 26 C -2.154478 0.961892 -0.351293 0
M  V30 27 C -1.419971 1.603474 -1.299294 0
M  V30 28 N 2.155692 0.704822 -1.808571 0
M  V30 29 C 3.289077 0.062915 -1.510727 0
M  V30 30 N 4.421076 0.178312 -2.360524 0
M  V30 31 N 3.273732 -0.664814 -0.398082 0
M  V30 32 H 0.145539 -1.823150 1.807077 0
M  V30 33 H 1.065620 -1.876857 3.398473 0
M  V30 34 H 0.868641 -0.356338 2.531883 0
M  V30 35 H 4.741419 -2.057376 0.512879 0
M  V30 36 H 6.481127 -3.484362 1.289254 0
M  V30 37 H 6.189493 -4.763283 3.324294 0
M  V30 38 H 2.359907 -3.199599 3.859377 0
M  V30 39 H 0.299797 -0.168205 0.639180 0
M  V30 40 H 0.968113 2.632743 -3.246574 0
M  V30 41 H -1.277822 3.665226 -3.655141 0
M  V30 42 H -5.179667 2.381539 -0.954061 0
M  V30 43 H -5.824003 1.925128 1.413237 0
M  V30 44 H -5.180006 -3.170424 1.968560 0
M  V30 45 H -5.611438 -2.486515 3.621753 0
M  V30 46 H -3.861807 -2.649162 3.025492 0
M  V30 47 H -3.231572 -1.384461 0.822171 0
M  V30 48 H -1.764890 0.237177 0.312910 0
M  V30 49 H 4.683279 -0.713174 -2.875721 0
M  V30 50 H 5.060754 0.996362 -2.579733 0
M  V30 END ATOM
M  V30 BEGIN BOND
M  V30 1 1 1 2
M  V30 2 1 2 3
M  V30 3 2 3 4
M  V30 4 1 4 5
M  V30 5 2 5 6
M  V30 6 1 6 7
M  V30 7 1 7 8
M  V30 8 2 7 9
M  V30 9 1 2 10
M  V30 10 2 10 11
M  V30 11 1 11 12
M  V30 12 1 12 13
M  V30 13 2 13 14
M  V30 14 1 14 15
M  V30 15 1 15 16
M  V30 16 2 16 17
M  V30 17 1 17 18
M  V30 18 2 18 19
M  V30 19 1 19 20
M  V30 20 1 20 21
M  V30 21 2 21 22
M  V30 22 1 22 23
M  V30 23 1 23 24
M  V30 24 1 23 25
M  V30 25 1 19 26
M  V30 26 2 26 27
M  V30 27 2 12 28
M  V30 28 1 28 29
M  V30 29 1 29 30
M  V30 30 2 29 31
M  V30 31 1 9 3
M  V30 32 1 31 10
M  V30 33 1 27 13
M  V30 34 1 27 16
M  V30 35 2 25 20
M  V30 36 1 1 32
M  V30 37 1 1 33
M  V30 38 1 1 34
M  V30 39 1 4 35
M  V30 40 1 5 36
M  V30 41 1 6 37
M  V30 42 1 9 38
M  V30 43 1 11 39
M  V30 44 1 14 40
M  V30 45 1 15 41
M  V30 46 1 18 42
M  V30 47 1 21 43
M  V30 48 1 24 44
M  V30 49 1 24 45
M  V30 50 1 24 46
M  V30 51 1 25 47
M  V30 52 1 26 48
M  V30 53 1 30 49
M  V30 54 1 30 50
M  V30 END BOND
M  V30 END CTAB
M  END
>  <Dataset>  (835) 
ChEMBL_Kinases

>  <Ligand_Instance>  (835) 
nan

>  <PDB_ID>  (835) 
nan

>  <Standardized_SMILES>  (835) 
CN(c1cccc(F)c1)c1cc(-c2c[nH]c3ncc(-c4cnn(C)c4)cc23)nc(N)n1

>  <Name>  (835) 
nan

>  <Pocket>  (835) 
nan

>  <ATP_Site>  (835) 
nan

>  <Peripheral>  (835) 
nan

>  <Num_H_Atoms_ProtBoundConf>  (835) 
nan

>  <Num_Resolved_Atoms>  (835) 
nan

>  <Num_Not_Resolved_Atoms>  (835) 
nan

$$$$
CHEMBL3652559
     RDKit          3D

  0  0  0  0  0  0  0  0  0  0999 V3000
M  V30 BEGIN CTAB
M  V30 COUNTS 54 58 0 0 0
M  V30 BEGIN ATOM
M  V30 1 C 1.616777 -2.311112 -4.873804 0
M  V30 2 N 2.035886 -2.824111 -3.582459 0
M  V30 3 C 2.064440 -2.237679 -2.369143 0
M  V30 4 C 2.545292 -3.119236 -1.420674 0
M  V30 5 C 2.746746 -2.916230 0.014271 0
M  V30 6 C 3.781221 -3.618553 0.596488 0
M  V30 7 N 4.005658 -3.462326 1.923634 0
M  V30 8 C 3.239744 -2.641726 2.661640 0
M  V30 9 N 3.189394 -2.280636 3.952631 0
M  V30 10 C 2.197966 -1.408324 4.192190 0
M  V30 11 C 1.516643 -1.145236 2.995523 0
M  V30 12 C 0.392912 -0.244211 2.980370 0
M  V30 13 C -0.303104 0.299544 1.944435 0
M  V30 14 C -1.352122 1.165422 2.003089 0
M  V30 15 C -2.019615 1.685055 0.783232 0
M  V30 16 C -0.915436 2.312505 -0.072054 0
M  V30 17 C -2.965005 2.819318 1.109284 0
M  V30 18 C -2.635069 0.619701 -0.003285 0
M  V30 19 C -3.660432 -0.104228 0.577888 0
M  V30 20 C -4.300453 -1.139149 -0.108976 0
M  V30 21 C -3.908293 -1.461771 -1.409816 0
M  V30 22 C -2.885613 -0.756390 -2.018702 0
M  V30 23 C -2.298125 0.251655 -1.284408 0
M  V30 24 N -1.740818 1.521343 3.250057 0
M  V30 25 C -1.109915 1.033356 4.334222 0
M  V30 26 N -1.476281 1.373601 5.676207 0
M  V30 27 N -0.085952 0.184913 4.158572 0
M  V30 28 C 2.207866 -1.932478 2.111151 0
M  V30 29 C 1.963670 -2.076470 0.770300 0
M  V30 30 C 2.813432 -4.295432 -2.131590 0
M  V30 31 N 2.492813 -4.063584 -3.408408 0
M  V30 32 H 2.240228 -2.708426 -5.696543 0
M  V30 33 H 0.562458 -2.549485 -5.023703 0
M  V30 34 H 1.670010 -1.185911 -4.809248 0
M  V30 35 H 1.752378 -1.221757 -2.181588 0
M  V30 36 H 4.441749 -4.294729 0.080112 0
M  V30 37 H 3.879445 -2.671449 4.654225 0
M  V30 38 H 2.056030 -1.038978 5.213299 0
M  V30 39 H -0.012177 0.050020 0.951597 0
M  V30 40 H -0.186471 1.550869 -0.420184 0
M  V30 41 H -1.325747 2.913037 -0.908146 0
M  V30 42 H -0.378803 3.002279 0.616027 0
M  V30 43 H -3.936488 2.478143 1.499013 0
M  V30 44 H -2.423776 3.524956 1.741438 0
M  V30 45 H -3.181070 3.344384 0.153802 0
M  V30 46 H -4.010439 0.105545 1.600722 0
M  V30 47 H -5.090495 -1.698189 0.339664 0
M  V30 48 H -4.358399 -2.249800 -2.001359 0
M  V30 49 H -2.550309 -0.977349 -3.032215 0
M  V30 50 H -1.505074 0.795347 -1.767233 0
M  V30 51 H -1.419276 2.275992 6.208958 0
M  V30 52 H -1.880310 0.565810 6.238876 0
M  V30 53 H 1.186774 -1.584263 0.244989 0
M  V30 54 H 3.206493 -5.177030 -1.645670 0
M  V30 END ATOM
M  V30 BEGIN BOND
M  V30 1 1 1 2
M  V30 2 1 2 3
M  V30 3 2 3 4
M  V30 4 1 4 5
M  V30 5 2 5 6
M  V30 6 1 6 7
M  V30 7 2 7 8
M  V30 8 1 8 9
M  V30 9 1 9 10
M  V30 10 2 10 11
M  V30 11 1 11 12
M  V30 12 2 12 13
M  V30 13 1 13 14
M  V30 14 1 14 15
M  V30 15 1 15 16
M  V30 16 1 15 17
M  V30 17 1 15 18
M  V30 18 2 18 19
M  V30 19 1 19 20
M  V30 20 2 20 21
M  V30 21 1 21 22
M  V30 22 2 22 23
M  V30 23 2 14 24
M  V30 24 1 24 25
M  V30 25 1 25 26
M  V30 26 2 25 27
M  V30 27 1 11 28
M  V30 28 2 28 29
M  V30 29 1 4 30
M  V30 30 2 30 31
M  V30 31 1 31 2
M  V30 32 1 29 5
M  V30 33 1 28 8
M  V30 34 1 27 12
M  V30 35 1 23 18
M  V30 36 1 1 32
M  V30 37 1 1 33
M  V30 38 1 1 34
M  V30 39 1 3 35
M  V30 40 1 6 36
M  V30 41 1 9 37
M  V30 42 1 10 38
M  V30 43 1 13 39
M  V30 44 1 16 40
M  V30 45 1 16 41
M  V30 46 1 16 42
M  V30 47 1 17 43
M  V30 48 1 17 44
M  V30 49 1 17 45
M  V30 50 1 19 46
M  V30 51 1 20 47
M  V30 52 1 21 48
M  V30 53 1 22 49
M  V30 54 1 23 50
M  V30 55 1 26 51
M  V30 56 1 26 52
M  V30 57 1 29 53
M  V30 58 1 30 54
M  V30 END BOND
M  V30 END CTAB
M  END
>  <Dataset>  (836) 
ChEMBL_Kinases

>  <Ligand_Instance>  (836) 
nan

>  <PDB_ID>  (836) 
nan

>  <Standardized_SMILES>  (836) 
Cn1cc(-c2cnc3[nH]cc(-c4cc(C(C)(C)c5ccccc5)nc(N)n4)c3c2)cn1

>  <Name>  (836) 
nan

>  <Pocket>  (836) 
nan

>  <ATP_Site>  (836) 
nan

>  <Peripheral>  (836) 
nan

>  <Num_H_Atoms_ProtBoundConf>  (836) 
nan

>  <Num_Resolved_Atoms>  (836) 
nan

>  <Num_Not_Resolved_Atoms>  (836) 
nan

$$$$
CHEMBL3652560
     RDKit          3D

  0  0  0  0  0  0  0  0  0  0999 V3000
M  V30 BEGIN CTAB
M  V30 COUNTS 52 57 0 0 0
M  V30 BEGIN ATOM
M  V30 1 C -1.941449 -3.942234 4.294367 0
M  V30 2 N -0.548226 -4.011366 3.932027 0
M  V30 3 C 0.175284 -2.991635 3.439968 0
M  V30 4 C 1.487870 -3.400742 3.196872 0
M  V30 5 C 2.497034 -2.473354 2.650503 0
M  V30 6 C 3.827820 -2.606191 2.982627 0
M  V30 7 N 4.730110 -1.758048 2.476500 0
M  V30 8 C 4.355265 -0.772200 1.643649 0
M  V30 9 N 4.978585 0.209546 0.974573 0
M  V30 10 C 4.118326 0.940016 0.252302 0
M  V30 11 C 2.821621 0.440892 0.427103 0
M  V30 12 C 1.719619 1.055180 -0.259458 0
M  V30 13 C 0.377530 0.873685 -0.132188 0
M  V30 14 C -0.644526 1.497264 -0.799714 0
M  V30 15 C -2.071788 1.209903 -0.568459 0
M  V30 16 C -2.551134 -0.149715 -0.959723 0
M  V30 17 C -2.403897 -1.275227 -0.187270 0
M  V30 18 C -2.857634 -2.525293 -0.581629 0
M  V30 19 C -3.479348 -2.615387 -1.804532 0
M  V30 20 C -3.627821 -1.488571 -2.579678 0
M  V30 21 C -3.173361 -0.223393 -2.190563 0
M  V30 22 C -2.816232 1.993023 0.443368 0
M  V30 23 C -3.018462 2.339556 -0.986845 0
M  V30 24 N -0.240186 2.423635 -1.711941 0
M  V30 25 C 1.077624 2.665814 -1.900235 0
M  V30 26 N 1.566840 3.631067 -2.846983 0
M  V30 27 N 1.973504 1.990713 -1.186576 0
M  V30 28 C 3.039167 -0.600703 1.284818 0
M  V30 29 C 2.111596 -1.466035 1.799571 0
M  V30 30 C 1.494893 -4.725702 3.576006 0
M  V30 31 N 0.271769 -5.058951 4.008087 0
M  V30 32 H -2.422041 -3.083161 3.745564 0
M  V30 33 H -2.115225 -3.780231 5.358477 0
M  V30 34 H -2.464354 -4.850492 3.903574 0
M  V30 35 H -0.230711 -1.994041 3.265274 0
M  V30 36 H 4.153706 -3.396784 3.655142 0
M  V30 37 H 6.021793 0.334917 1.052729 0
M  V30 38 H 4.513570 1.778767 -0.343886 0
M  V30 39 H 0.018759 0.165937 0.584702 0
M  V30 40 H -1.923308 -1.201119 0.763520 0
M  V30 41 H -2.703394 -3.366124 0.082749 0
M  V30 42 H -3.835009 -3.588268 -2.117569 0
M  V30 43 H -4.129447 -1.649079 -3.529729 0
M  V30 44 H -3.359148 0.573825 -2.904792 0
M  V30 45 H -2.190071 2.714699 1.036335 0
M  V30 46 H -3.648415 1.577569 1.016520 0
M  V30 47 H -2.592383 3.273937 -1.401669 0
M  V30 48 H -4.008613 2.057495 -1.419732 0
M  V30 49 H 2.302752 4.352690 -2.658870 0
M  V30 50 H 1.224521 3.709924 -3.850541 0
M  V30 51 H 1.084530 -1.413767 1.572018 0
M  V30 52 H 2.416434 -5.298782 3.487326 0
M  V30 END ATOM
M  V30 BEGIN BOND
M  V30 1 1 1 2
M  V30 2 1 2 3
M  V30 3 2 3 4
M  V30 4 1 4 5
M  V30 5 2 5 6
M  V30 6 1 6 7
M  V30 7 2 7 8
M  V30 8 1 8 9
M  V30 9 1 9 10
M  V30 10 2 10 11
M  V30 11 1 11 12
M  V30 12 2 12 13
M  V30 13 1 13 14
M  V30 14 1 14 15
M  V30 15 1 15 16
M  V30 16 2 16 17
M  V30 17 1 17 18
M  V30 18 2 18 19
M  V30 19 1 19 20
M  V30 20 2 20 21
M  V30 21 1 15 22
M  V30 22 1 22 23
M  V30 23 2 14 24
M  V30 24 1 24 25
M  V30 25 1 25 26
M  V30 26 2 25 27
M  V30 27 1 11 28
M  V30 28 2 28 29
M  V30 29 1 4 30
M  V30 30 2 30 31
M  V30 31 1 31 2
M  V30 32 1 29 5
M  V30 33 1 28 8
M  V30 34 1 27 12
M  V30 35 1 23 15
M  V30 36 1 21 16
M  V30 37 1 1 32
M  V30 38 1 1 33
M  V30 39 1 1 34
M  V30 40 1 3 35
M  V30 41 1 6 36
M  V30 42 1 9 37
M  V30 43 1 10 38
M  V30 44 1 13 39
M  V30 45 1 17 40
M  V30 46 1 18 41
M  V30 47 1 19 42
M  V30 48 1 20 43
M  V30 49 1 21 44
M  V30 50 1 22 45
M  V30 51 1 22 46
M  V30 52 1 23 47
M  V30 53 1 23 48
M  V30 54 1 26 49
M  V30 55 1 26 50
M  V30 56 1 29 51
M  V30 57 1 30 52
M  V30 END BOND
M  V30 END CTAB
M  END
>  <Dataset>  (837) 
ChEMBL_Kinases

>  <Ligand_Instance>  (837) 
nan

>  <PDB_ID>  (837) 
nan

>  <Standardized_SMILES>  (837) 
Cn1cc(-c2cnc3[nH]cc(-c4cc(C5(c6ccccc6)CC5)nc(N)n4)c3c2)cn1

>  <Name>  (837) 
nan

>  <Pocket>  (837) 
nan

>  <ATP_Site>  (837) 
nan

>  <Peripheral>  (837) 
nan

>  <Num_H_Atoms_ProtBoundConf>  (837) 
nan

>  <Num_Resolved_Atoms>  (837) 
nan

>  <Num_Not_Resolved_Atoms>  (837) 
nan

$$$$
CHEMBL3652561
     RDKit          3D

  0  0  0  0  0  0  0  0  0  0999 V3000
M  V30 BEGIN CTAB
M  V30 COUNTS 54 58 0 0 0
M  V30 BEGIN ATOM
M  V30 1 C 7.870465 -4.055901 0.152791 0
M  V30 2 N 6.596882 -3.486374 0.588255 0
M  V30 3 C 6.258857 -2.187047 0.579130 0
M  V30 4 C 4.970256 -2.064948 1.068920 0
M  V30 5 C 4.228031 -0.808033 1.222621 0
M  V30 6 C 4.897233 0.368073 1.515101 0
M  V30 7 N 4.185781 1.510750 1.650568 0
M  V30 8 C 2.847550 1.518092 1.505762 0
M  V30 9 N 1.929259 2.521113 1.592382 0
M  V30 10 C 0.704790 2.007662 1.362780 0
M  V30 11 C 0.771555 0.645236 1.115981 0
M  V30 12 C -0.308363 -0.291130 0.822281 0
M  V30 13 C -1.580650 0.216230 0.774645 0
M  V30 14 C -2.608955 -0.634981 0.500986 0
M  V30 15 N -3.992732 -0.323487 0.406002 0
M  V30 16 C -4.722048 -0.456227 1.648907 0
M  V30 17 C -4.184759 0.446710 2.738121 0
M  V30 18 O -4.958971 0.234868 3.881041 0
M  V30 19 C -4.539747 0.077528 -0.838734 0
M  V30 20 C -5.858962 0.402605 -1.045314 0
M  V30 21 C -6.413390 0.794693 -2.243687 0
M  V30 22 C -5.558398 0.864649 -3.330112 0
M  V30 23 C -4.213968 0.548496 -3.185010 0
M  V30 24 C -3.734045 0.163846 -1.951085 0
M  V30 25 N -2.357453 -1.943788 0.285163 0
M  V30 26 C -1.104228 -2.439910 0.332869 0
M  V30 27 N -0.829230 -3.823285 0.106368 0
M  V30 28 N -0.051625 -1.615060 0.604240 0
M  V30 29 C 2.122841 0.378078 1.213915 0
M  V30 30 C 2.842891 -0.795265 1.073637 0
M  V30 31 C 4.563069 -3.342459 1.366653 0
M  V30 32 N 5.562631 -4.195290 1.069051 0
M  V30 33 H 7.776923 -5.157420 0.111269 0
M  V30 34 H 8.178260 -3.604891 -0.811429 0
M  V30 35 H 8.622219 -3.820351 0.934156 0
M  V30 36 H 6.928962 -1.390563 0.231052 0
M  V30 37 H 5.971164 0.294919 1.618426 0
M  V30 38 H 2.200561 3.489489 1.802503 0
M  V30 39 H -0.230492 2.579949 1.367194 0
M  V30 40 H -1.856408 1.230733 0.933009 0
M  V30 41 H -4.489569 -1.503518 2.004526 0
M  V30 42 H -5.795860 -0.285597 1.566450 0
M  V30 43 H -3.114151 0.267399 2.954197 0
M  V30 44 H -4.342668 1.489087 2.409744 0
M  V30 45 H -5.667240 -0.432809 3.774856 0
M  V30 46 H -6.547020 0.356302 -0.212961 0
M  V30 47 H -7.458535 1.040241 -2.354326 0
M  V30 48 H -5.917015 1.162510 -4.297076 0
M  V30 49 H -3.505682 0.591445 -4.019682 0
M  V30 50 H -2.668453 -0.079514 -1.868233 0
M  V30 51 H -0.012162 -4.128898 -0.479377 0
M  V30 52 H -1.465781 -4.525451 0.541241 0
M  V30 53 H 2.352736 -1.727133 0.846435 0
M  V30 54 H 3.596601 -3.604825 1.772496 0
M  V30 END ATOM
M  V30 BEGIN BOND
M  V30 1 1 1 2
M  V30 2 1 2 3
M  V30 3 2 3 4
M  V30 4 1 4 5
M  V30 5 2 5 6
M  V30 6 1 6 7
M  V30 7 2 7 8
M  V30 8 1 8 9
M  V30 9 1 9 10
M  V30 10 2 10 11
M  V30 11 1 11 12
M  V30 12 2 12 13
M  V30 13 1 13 14
M  V30 14 1 14 15
M  V30 15 1 15 16
M  V30 16 1 16 17
M  V30 17 1 17 18
M  V30 18 1 15 19
M  V30 19 2 19 20
M  V30 20 1 20 21
M  V30 21 2 21 22
M  V30 22 1 22 23
M  V30 23 2 23 24
M  V30 24 2 14 25
M  V30 25 1 25 26
M  V30 26 1 26 27
M  V30 27 2 26 28
M  V30 28 1 11 29
M  V30 29 2 29 30
M  V30 30 1 4 31
M  V30 31 2 31 32
M  V30 32 1 32 2
M  V30 33 1 30 5
M  V30 34 1 29 8
M  V30 35 1 28 12
M  V30 36 1 24 19
M  V30 37 1 1 33
M  V30 38 1 1 34
M  V30 39 1 1 35
M  V30 40 1 3 36
M  V30 41 1 6 37
M  V30 42 1 9 38
M  V30 43 1 10 39
M  V30 44 1 13 40
M  V30 45 1 16 41
M  V30 46 1 16 42
M  V30 47 1 17 43
M  V30 48 1 17 44
M  V30 49 1 18 45
M  V30 50 1 20 46
M  V30 51 1 21 47
M  V30 52 1 22 48
M  V30 53 1 23 49
M  V30 54 1 24 50
M  V30 55 1 27 51
M  V30 56 1 27 52
M  V30 57 1 30 53
M  V30 58 1 31 54
M  V30 END BOND
M  V30 END CTAB
M  END
>  <Dataset>  (838) 
ChEMBL_Kinases

>  <Ligand_Instance>  (838) 
nan

>  <PDB_ID>  (838) 
nan

>  <Standardized_SMILES>  (838) 
Cn1cc(-c2cnc3[nH]cc(-c4cc(N(CCO)c5ccccc5)nc(N)n4)c3c2)cn1

>  <Name>  (838) 
nan

>  <Pocket>  (838) 
nan

>  <ATP_Site>  (838) 
nan

>  <Peripheral>  (838) 
nan

>  <Num_H_Atoms_ProtBoundConf>  (838) 
nan

>  <Num_Resolved_Atoms>  (838) 
nan

>  <Num_Not_Resolved_Atoms>  (838) 
nan

$$$$
CHEMBL3652562
     RDKit          3D

  0  0  0  0  0  0  0  0  0  0999 V3000
M  V30 BEGIN CTAB
M  V30 COUNTS 62 66 0 0 0
M  V30 BEGIN ATOM
M  V30 1 C 4.841805 -1.062018 4.895651 0
M  V30 2 O 5.141395 -0.990868 3.525885 0
M  V30 3 C 4.269599 -0.477552 2.578873 0
M  V30 4 C 3.041552 -0.010777 2.996225 0
M  V30 5 C 2.225602 0.481817 2.028603 0
M  V30 6 C 2.480060 0.573547 0.656777 0
M  V30 7 N 1.530371 1.121739 -0.286621 0
M  V30 8 C 2.066013 1.088252 -1.596081 0
M  V30 9 C 1.277460 1.578130 -2.732511 0 CFG=2
M  V30 10 O 0.846952 2.888456 -2.686793 0
M  V30 11 C 0.287923 0.579662 -3.210169 0
M  V30 12 O -0.883100 0.478070 -2.500688 0
M  V30 13 C 0.332053 1.560112 0.351031 0
M  V30 14 C -0.708422 0.717346 0.659601 0
M  V30 15 C -1.875010 1.061768 1.270232 0
M  V30 16 C -3.002211 0.254379 1.647360 0
M  V30 17 C -4.009207 0.787394 2.452264 0
M  V30 18 N -4.956027 -0.141082 2.658507 0
M  V30 19 C -4.655773 -1.290689 2.036294 0
M  V30 20 N -5.230765 -2.489836 1.907528 0
M  V30 21 C -4.688692 -3.505201 1.182313 0
M  V30 22 C -3.484536 -3.235969 0.567234 0
M  V30 23 C -2.883947 -4.328901 -0.226682 0
M  V30 24 C -3.664976 -5.251140 -0.892448 0
M  V30 25 N -2.757319 -6.074768 -1.491447 0
M  V30 26 N -1.544024 -5.667595 -1.199910 0
M  V30 27 C -0.369335 -6.355307 -1.701117 0
M  V30 28 C -1.521915 -4.586415 -0.416813 0
M  V30 29 C -2.873482 -2.010709 0.685124 0
M  V30 30 C -3.454411 -1.017077 1.425901 0
M  V30 31 N -1.901868 2.373674 1.552754 0
M  V30 32 C -0.922801 3.245999 1.278554 0
M  V30 33 N -1.134367 4.612086 1.657865 0
M  V30 34 N 0.210467 2.860685 0.674372 0
M  V30 35 C 3.737938 0.076172 0.360006 0
M  V30 36 C 4.640553 -0.443078 1.255154 0
M  V30 37 H 4.033545 -1.776484 5.128537 0
M  V30 38 H 4.641608 -0.045294 5.314034 0
M  V30 39 H 5.772958 -1.404107 5.424655 0
M  V30 40 H 2.762884 -0.041113 4.022351 0
M  V30 41 H 1.251155 0.848150 2.391855 0
M  V30 42 H 3.061598 1.624384 -1.570948 0
M  V30 43 H 2.363335 0.025505 -1.816647 0
M  V30 44 H 2.049918 1.617403 -3.603229 0
M  V30 45 H 1.155980 3.396222 -1.901861 0
M  V30 46 H 0.746474 -0.438877 -3.247539 0
M  V30 47 H -0.024165 0.759294 -4.281488 0
M  V30 48 H -1.276004 -0.421361 -2.697786 0
M  V30 49 H -0.525873 -0.289274 0.384227 0
M  V30 50 H -4.136951 1.780075 2.913708 0
M  V30 51 H -5.837292 -0.047151 3.220597 0
M  V30 52 H -5.159471 -4.477716 1.080686 0
M  V30 53 H -4.738221 -5.314469 -0.935189 0
M  V30 54 H -0.284906 -7.368659 -1.246758 0
M  V30 55 H 0.545463 -5.757764 -1.504558 0
M  V30 56 H -0.472313 -6.419851 -2.821182 0
M  V30 57 H -0.703994 -4.019494 -0.008629 0
M  V30 58 H -1.949866 -1.884435 0.169680 0
M  V30 59 H -1.563263 5.183882 0.898370 0
M  V30 60 H -1.550636 4.951633 0.769989 0
M  V30 61 H 4.043275 0.097048 -0.680553 0
M  V30 62 H 5.586026 -0.800094 0.918556 0
M  V30 END ATOM
M  V30 BEGIN BOND
M  V30 1 1 1 2
M  V30 2 1 2 3
M  V30 3 2 3 4
M  V30 4 1 4 5
M  V30 5 2 5 6
M  V30 6 1 6 7
M  V30 7 1 7 8
M  V30 8 1 8 9
M  V30 9 1 9 10
M  V30 10 1 9 11
M  V30 11 1 11 12
M  V30 12 1 7 13
M  V30 13 2 13 14
M  V30 14 1 14 15
M  V30 15 1 15 16
M  V30 16 2 16 17
M  V30 17 1 17 18
M  V30 18 1 18 19
M  V30 19 2 19 20
M  V30 20 1 20 21
M  V30 21 2 21 22
M  V30 22 1 22 23
M  V30 23 1 23 24
M  V30 24 2 24 25
M  V30 25 1 25 26
M  V30 26 1 26 27
M  V30 27 1 26 28
M  V30 28 1 22 29
M  V30 29 2 29 30
M  V30 30 2 15 31
M  V30 31 1 31 32
M  V30 32 1 32 33
M  V30 33 2 32 34
M  V30 34 1 6 35
M  V30 35 2 35 36
M  V30 36 1 36 3
M  V30 37 1 34 13
M  V30 38 1 30 16
M  V30 39 1 30 19
M  V30 40 2 28 23
M  V30 41 1 1 37
M  V30 42 1 1 38
M  V30 43 1 1 39
M  V30 44 1 4 40
M  V30 45 1 5 41
M  V30 46 1 8 42
M  V30 47 1 8 43
M  V30 48 1 9 44 CFG=3
M  V30 49 1 10 45
M  V30 50 1 11 46
M  V30 51 1 11 47
M  V30 52 1 12 48
M  V30 53 1 14 49
M  V30 54 1 17 50
M  V30 55 1 18 51
M  V30 56 1 21 52
M  V30 57 1 24 53
M  V30 58 1 27 54
M  V30 59 1 27 55
M  V30 60 1 27 56
M  V30 61 1 28 57
M  V30 62 1 29 58
M  V30 63 1 33 59
M  V30 64 1 33 60
M  V30 65 1 35 61
M  V30 66 1 36 62
M  V30 END BOND
M  V30 END CTAB
M  END
>  <Dataset>  (839) 
ChEMBL_Kinases

>  <Ligand_Instance>  (839) 
nan

>  <PDB_ID>  (839) 
nan

>  <Standardized_SMILES>  (839) 
COc1ccc(N(C[C@H](O)CO)c2cc(-c3c[nH]c4ncc(-c5cnn(C)c5)cc34)nc(N)n2)cc1

>  <Name>  (839) 
nan

>  <Pocket>  (839) 
nan

>  <ATP_Site>  (839) 
nan

>  <Peripheral>  (839) 
nan

>  <Num_H_Atoms_ProtBoundConf>  (839) 
nan

>  <Num_Resolved_Atoms>  (839) 
nan

>  <Num_Not_Resolved_Atoms>  (839) 
nan

$$$$
CHEMBL3652536
     RDKit          3D

  0  0  0  0  0  0  0  0  0  0999 V3000
M  V30 BEGIN CTAB
M  V30 COUNTS 59 62 0 0 0
M  V30 BEGIN ATOM
M  V30 1 C 3.205324 -1.411992 1.310337 0
M  V30 2 O 2.397489 -2.540464 1.356339 0
M  V30 3 C 1.418058 -2.936687 0.499748 0
M  V30 4 C 0.167265 -2.423599 0.859882 0
M  V30 5 N -0.058804 -1.568604 2.009335 0
M  V30 6 C 0.077931 -0.170270 1.693487 0
M  V30 7 O 0.357375 0.365082 0.588034 0
M  V30 8 N -0.115480 0.785504 2.721279 0
M  V30 9 C 0.006978 2.188936 2.468139 0 CFG=2
M  V30 10 C 1.093554 2.853257 3.283375 0
M  V30 11 C 0.784174 4.284336 3.008413 0
M  V30 12 C 1.657092 5.364086 3.014281 0
M  V30 13 C 1.121479 6.608316 2.723758 0
M  V30 14 C -0.235131 6.726139 2.444394 0
M  V30 15 C -1.090095 5.642137 2.442632 0
M  V30 16 C -0.567551 4.391796 2.731561 0
M  V30 17 C -1.182411 3.019226 2.819618 0 CFG=2
M  V30 18 O -1.694430 2.755320 4.067325 0
M  V30 19 C -0.985276 -2.700268 0.125620 0
M  V30 20 C -0.905582 -3.509784 -1.002362 0
M  V30 21 N -2.033009 -3.852444 -1.823271 0
M  V30 22 C -1.999335 -4.690089 -3.007102 0
M  V30 23 C -3.355756 -5.340919 -2.977582 0
M  V30 24 C -4.131446 -4.736517 -1.826407 0
M  V30 25 C -3.395981 -3.409912 -1.595793 0
M  V30 26 C 0.343870 -4.004055 -1.336364 0
M  V30 27 C 1.481573 -3.727811 -0.607300 0
M  V30 28 C 2.822168 -4.253965 -0.972172 0 CFG=1
M  V30 29 O 2.636179 -5.539427 -1.479427 0
M  V30 30 C 3.381976 -3.401086 -2.072347 0
M  V30 31 F 2.531349 -3.451034 -3.186158 0
M  V30 32 F 3.504962 -2.071168 -1.769270 0
M  V30 33 F 4.606954 -3.836762 -2.514863 0
M  V30 34 H 2.874377 -0.740094 0.495761 0
M  V30 35 H 3.207626 -0.865701 2.281104 0
M  V30 36 H 4.276081 -1.666793 1.058766 0
M  V30 37 H -0.295024 -1.819566 2.983708 0
M  V30 38 H -0.354705 0.544822 3.710805 0
M  V30 39 H 0.264818 2.425363 1.395336 0
M  V30 40 H 0.893082 2.672537 4.357879 0
M  V30 41 H 2.092599 2.540708 2.949462 0
M  V30 42 H 2.708874 5.215187 3.239484 0
M  V30 43 H 1.807336 7.453830 2.728823 0
M  V30 44 H -0.557517 7.729213 2.231270 0
M  V30 45 H -2.138206 5.776578 2.220303 0
M  V30 46 H -1.967613 2.883984 2.059611 0
M  V30 47 H -2.633431 3.105829 4.102411 0
M  V30 48 H -1.940459 -2.308499 0.400154 0
M  V30 49 H -1.913070 -4.092653 -3.953300 0
M  V30 50 H -1.171502 -5.426224 -2.990172 0
M  V30 51 H -3.224950 -6.442337 -2.829346 0
M  V30 52 H -3.901727 -5.154210 -3.927406 0
M  V30 53 H -3.962006 -5.329496 -0.893560 0
M  V30 54 H -5.193612 -4.584767 -2.061998 0
M  V30 55 H -3.698454 -2.653528 -2.376594 0
M  V30 56 H -3.565707 -3.024655 -0.591446 0
M  V30 57 H 0.531004 -4.643675 -2.191164 0
M  V30 58 H 3.490239 -4.349593 -0.111093 0
M  V30 59 H 3.195353 -5.668476 -2.276389 0
M  V30 END ATOM
M  V30 BEGIN BOND
M  V30 1 1 1 2
M  V30 2 1 2 3
M  V30 3 2 3 4
M  V30 4 1 4 5
M  V30 5 1 5 6
M  V30 6 2 6 7
M  V30 7 1 6 8
M  V30 8 1 8 9
M  V30 9 1 9 10
M  V30 10 1 10 11
M  V30 11 2 11 12
M  V30 12 1 12 13
M  V30 13 2 13 14
M  V30 14 1 14 15
M  V30 15 2 15 16
M  V30 16 1 16 17
M  V30 17 1 17 18
M  V30 18 1 4 19
M  V30 19 2 19 20
M  V30 20 1 20 21
M  V30 21 1 21 22
M  V30 22 1 22 23
M  V30 23 1 23 24
M  V30 24 1 24 25
M  V30 25 1 20 26
M  V30 26 2 26 27
M  V30 27 1 27 28
M  V30 28 1 28 29
M  V30 29 1 28 30
M  V30 30 1 30 31
M  V30 31 1 30 32
M  V30 32 1 30 33
M  V30 33 1 27 3
M  V30 34 1 17 9
M  V30 35 1 25 21
M  V30 36 1 16 11
M  V30 37 1 1 34
M  V30 38 1 1 35
M  V30 39 1 1 36
M  V30 40 1 5 37
M  V30 41 1 8 38
M  V30 42 1 9 39 CFG=3
M  V30 43 1 10 40
M  V30 44 1 10 41
M  V30 45 1 12 42
M  V30 46 1 13 43
M  V30 47 1 14 44
M  V30 48 1 15 45
M  V30 49 1 17 46 CFG=3
M  V30 50 1 18 47
M  V30 51 1 19 48
M  V30 52 1 22 49
M  V30 53 1 22 50
M  V30 54 1 23 51
M  V30 55 1 23 52
M  V30 56 1 24 53
M  V30 57 1 24 54
M  V30 58 1 25 55
M  V30 59 1 25 56
M  V30 60 1 26 57
M  V30 61 1 28 58 CFG=1
M  V30 62 1 29 59
M  V30 END BOND
M  V30 END CTAB
M  END
>  <Dataset>  (840) 
ChEMBL_Kinases

>  <Ligand_Instance>  (840) 
nan

>  <PDB_ID>  (840) 
nan

>  <Standardized_SMILES>  (840) 
COc1c(NC(=O)N[C@@H]2Cc3ccccc3[C@@H]2O)cc(N2CCCC2)cc1[C@@H](O)C(F)(F)F

>  <Name>  (840) 
nan

>  <Pocket>  (840) 
nan

>  <ATP_Site>  (840) 
nan

>  <Peripheral>  (840) 
nan

>  <Num_H_Atoms_ProtBoundConf>  (840) 
nan

>  <Num_Resolved_Atoms>  (840) 
nan

>  <Num_Not_Resolved_Atoms>  (840) 
nan

$$$$
CHEMBL3651757
     RDKit          3D

  0  0  0  0  0  0  0  0  0  0999 V3000
M  V30 BEGIN CTAB
M  V30 COUNTS 42 45 0 0 0
M  V30 BEGIN ATOM
M  V30 1 F 2.208701 -4.698730 4.080043 0
M  V30 2 C 1.792866 -4.086325 2.884265 0
M  V30 3 F 0.674248 -3.383646 3.206782 0
M  V30 4 F 1.453104 -5.127801 2.052092 0
M  V30 5 C 2.953038 -3.292920 2.405151 0
M  V30 6 N 2.767633 -2.577044 1.187897 0
M  V30 7 C 2.338417 -1.328050 0.933597 0
M  V30 8 C 2.321532 -1.043693 -0.413272 0
M  V30 9 C 1.978022 0.102097 -1.237920 0
M  V30 10 N 2.791812 0.493824 -2.244001 0
M  V30 11 N 2.309711 1.548165 -2.875787 0
M  V30 12 C 1.142279 1.913376 -2.317551 0
M  V30 13 C 0.226770 2.914091 -2.563318 0
M  V30 14 C -0.877373 2.945847 -1.737824 0
M  V30 15 N -1.062247 2.041249 -0.730884 0
M  V30 16 C -0.154342 1.053595 -0.491592 0
M  V30 17 O -0.372068 0.132869 0.556002 0
M  V30 18 C -1.596801 0.380458 1.258883 0
M  V30 19 C -2.541962 -0.773121 1.225386 0
M  V30 20 C -1.886829 -1.908317 1.988407 0
M  V30 21 O -1.787802 -1.491793 3.305390 0
M  V30 22 C -0.876304 -0.463251 3.443029 0
M  V30 23 C -1.255167 0.764329 2.657502 0
M  V30 24 C 0.951548 1.016548 -1.313403 0
M  V30 25 C 2.779663 -2.234428 -0.973708 0
M  V30 26 N 3.031322 -3.113169 0.009724 0
M  V30 27 H 3.820950 -3.986791 2.281015 0
M  V30 28 H 3.246276 -2.604424 3.239247 0
M  V30 29 H 2.033815 -0.598741 1.663800 0
M  V30 30 H 2.775114 2.026588 -3.693890 0
M  V30 31 H 0.381218 3.626545 -3.363194 0
M  V30 32 H -1.626047 3.731781 -1.907888 0
M  V30 33 H -2.123757 1.263324 0.805554 0
M  V30 34 H -3.441187 -0.476219 1.776882 0
M  V30 35 H -2.795659 -1.053257 0.193032 0
M  V30 36 H -0.917558 -2.083288 1.488914 0
M  V30 37 H -2.585237 -2.761255 1.928063 0
M  V30 38 H -0.873781 -0.158958 4.516704 0
M  V30 39 H 0.137763 -0.761858 3.115938 0
M  V30 40 H -2.083665 1.340324 3.114672 0
M  V30 41 H -0.320878 1.387790 2.601157 0
M  V30 42 H 2.927754 -2.468267 -2.023183 0
M  V30 END ATOM
M  V30 BEGIN BOND
M  V30 1 1 1 2
M  V30 2 1 2 3
M  V30 3 1 2 4
M  V30 4 1 2 5
M  V30 5 1 5 6
M  V30 6 1 6 7
M  V30 7 2 7 8
M  V30 8 1 8 9
M  V30 9 2 9 10
M  V30 10 1 10 11
M  V30 11 1 11 12
M  V30 12 2 12 13
M  V30 13 1 13 14
M  V30 14 2 14 15
M  V30 15 1 15 16
M  V30 16 1 16 17
M  V30 17 1 17 18
M  V30 18 1 18 19
M  V30 19 1 19 20
M  V30 20 1 20 21
M  V30 21 1 21 22
M  V30 22 1 22 23
M  V30 23 2 16 24
M  V30 24 1 8 25
M  V30 25 2 25 26
M  V30 26 1 26 6
M  V30 27 1 24 9
M  V30 28 1 24 12
M  V30 29 1 23 18
M  V30 30 1 5 27
M  V30 31 1 5 28
M  V30 32 1 7 29
M  V30 33 1 11 30
M  V30 34 1 13 31
M  V30 35 1 14 32
M  V30 36 1 18 33
M  V30 37 1 19 34
M  V30 38 1 19 35
M  V30 39 1 20 36
M  V30 40 1 20 37
M  V30 41 1 22 38
M  V30 42 1 22 39
M  V30 43 1 23 40
M  V30 44 1 23 41
M  V30 45 1 25 42
M  V30 END BOND
M  V30 END CTAB
M  END
>  <Dataset>  (841) 
ChEMBL_Kinases

>  <Ligand_Instance>  (841) 
nan

>  <PDB_ID>  (841) 
nan

>  <Standardized_SMILES>  (841) 
FC(F)(F)Cn1cc(-c2n[nH]c3ccnc(OC4CCOCC4)c23)cn1

>  <Name>  (841) 
nan

>  <Pocket>  (841) 
nan

>  <ATP_Site>  (841) 
nan

>  <Peripheral>  (841) 
nan

>  <Num_H_Atoms_ProtBoundConf>  (841) 
nan

>  <Num_Resolved_Atoms>  (841) 
nan

>  <Num_Not_Resolved_Atoms>  (841) 
nan

$$$$
CHEMBL3651756
     RDKit          3D

  0  0  0  0  0  0  0  0  0  0999 V3000
M  V30 BEGIN CTAB
M  V30 COUNTS 53 57 0 0 0
M  V30 BEGIN ATOM
M  V30 1 C 0.295219 -5.733113 2.158805 0
M  V30 2 C 1.665493 -5.567978 2.154925 0
M  V30 3 C 2.168722 -4.441448 1.535003 0
M  V30 4 N 3.386151 -3.915419 1.313926 0
M  V30 5 N 3.311677 -2.782962 0.652924 0
M  V30 6 C 2.004869 -2.484410 0.390131 0
M  V30 7 C 1.620871 -1.276903 -0.332114 0
M  V30 8 C 0.770048 -0.974544 -1.369557 0
M  V30 9 N 0.817899 0.345303 -1.615204 0
M  V30 10 N 1.666517 0.936003 -0.783694 0
M  V30 11 C 2.008503 2.330295 -0.711860 0
M  V30 12 C 1.145015 3.146228 0.210371 0
M  V30 13 C 1.586159 4.596002 0.214045 0
M  V30 14 C 0.652320 5.351987 1.118154 0
M  V30 15 O -0.348537 4.554611 1.641430 0
M  V30 16 C 0.168900 3.515205 2.412414 0
M  V30 17 C 1.133998 2.659478 1.619842 0
M  V30 18 C 2.168663 -0.031309 0.007880 0
M  V30 19 C 1.309546 -3.535258 0.951405 0
M  V30 20 C -0.057808 -3.720033 0.967145 0
M  V30 21 O -0.938407 -2.815181 0.383958 0
M  V30 22 C -2.312588 -3.146367 0.484680 0
M  V30 23 C -2.817338 -3.445054 -0.912127 0
M  V30 24 C -4.297854 -3.652157 -0.951878 0
M  V30 25 O -5.002380 -2.950231 0.007994 0
M  V30 26 C -4.385586 -1.758259 0.385591 0
M  V30 27 C -3.137623 -2.126282 1.198972 0
M  V30 28 N -0.516886 -4.830338 1.580560 0
M  V30 29 H -0.055743 -6.632358 2.656961 0
M  V30 30 H 2.401208 -6.243375 2.596217 0
M  V30 31 H 4.254154 -4.416100 1.663508 0
M  V30 32 H 0.197116 -1.754643 -1.849937 0
M  V30 33 H 3.054727 2.405845 -0.310917 0
M  V30 34 H 2.012279 2.754368 -1.734086 0
M  V30 35 H 0.104979 3.108708 -0.172168 0
M  V30 36 H 1.506224 4.962449 -0.828554 0
M  V30 37 H 2.644880 4.652677 0.575191 0
M  V30 38 H 0.157235 6.148552 0.528127 0
M  V30 39 H 1.223224 5.816703 1.962622 0
M  V30 40 H 0.648838 3.950959 3.315546 0
M  V30 41 H -0.679477 2.921184 2.787795 0
M  V30 42 H 2.115961 2.739558 2.126745 0
M  V30 43 H 0.748643 1.618795 1.650855 0
M  V30 44 H 2.906054 0.166208 0.802159 0
M  V30 45 H -2.426009 -4.119692 1.041085 0
M  V30 46 H -2.492622 -2.688718 -1.625819 0
M  V30 47 H -2.326457 -4.413646 -1.208997 0
M  V30 48 H -4.661130 -3.439620 -1.992795 0
M  V30 49 H -4.546496 -4.740685 -0.788398 0
M  V30 50 H -4.031575 -1.156324 -0.467839 0
M  V30 51 H -5.112890 -1.227612 1.036509 0
M  V30 52 H -2.592950 -1.184620 1.411778 0
M  V30 53 H -3.529670 -2.490464 2.178297 0
M  V30 END ATOM
M  V30 BEGIN BOND
M  V30 1 2 1 2
M  V30 2 1 2 3
M  V30 3 1 3 4
M  V30 4 1 4 5
M  V30 5 2 5 6
M  V30 6 1 6 7
M  V30 7 1 7 8
M  V30 8 2 8 9
M  V30 9 1 9 10
M  V30 10 1 10 11
M  V30 11 1 11 12
M  V30 12 1 12 13
M  V30 13 1 13 14
M  V30 14 1 14 15
M  V30 15 1 15 16
M  V30 16 1 16 17
M  V30 17 1 10 18
M  V30 18 1 6 19
M  V30 19 1 19 20
M  V30 20 1 20 21
M  V30 21 1 21 22
M  V30 22 1 22 23
M  V30 23 1 23 24
M  V30 24 1 24 25
M  V30 25 1 25 26
M  V30 26 1 26 27
M  V30 27 2 20 28
M  V30 28 1 28 1
M  V30 29 2 19 3
M  V30 30 1 27 22
M  V30 31 2 18 7
M  V30 32 1 17 12
M  V30 33 1 1 29
M  V30 34 1 2 30
M  V30 35 1 4 31
M  V30 36 1 8 32
M  V30 37 1 11 33
M  V30 38 1 11 34
M  V30 39 1 12 35
M  V30 40 1 13 36
M  V30 41 1 13 37
M  V30 42 1 14 38
M  V30 43 1 14 39
M  V30 44 1 16 40
M  V30 45 1 16 41
M  V30 46 1 17 42
M  V30 47 1 17 43
M  V30 48 1 18 44
M  V30 49 1 22 45
M  V30 50 1 23 46
M  V30 51 1 23 47
M  V30 52 1 24 48
M  V30 53 1 24 49
M  V30 54 1 26 50
M  V30 55 1 26 51
M  V30 56 1 27 52
M  V30 57 1 27 53
M  V30 END BOND
M  V30 END CTAB
M  END
>  <Dataset>  (842) 
ChEMBL_Kinases

>  <Ligand_Instance>  (842) 
nan

>  <PDB_ID>  (842) 
nan

>  <Standardized_SMILES>  (842) 
c1cc2[nH]nc(-c3cnn(CC4CCOCC4)c3)c2c(OC2CCOCC2)n1

>  <Name>  (842) 
nan

>  <Pocket>  (842) 
nan

>  <ATP_Site>  (842) 
nan

>  <Peripheral>  (842) 
nan

>  <Num_H_Atoms_ProtBoundConf>  (842) 
nan

>  <Num_Resolved_Atoms>  (842) 
nan

>  <Num_Not_Resolved_Atoms>  (842) 
nan

$$$$
CHEMBL3651755
     RDKit          3D

  0  0  0  0  0  0  0  0  0  0999 V3000
M  V30 BEGIN CTAB
M  V30 COUNTS 39 42 0 0 0
M  V30 BEGIN ATOM
M  V30 1 C -0.198491 -3.460164 3.347375 0
M  V30 2 O 0.599908 -2.507528 2.693215 0
M  V30 3 C 1.905442 -2.773187 2.368576 0
M  V30 4 N 2.441197 -3.960582 2.675400 0
M  V30 5 C 3.714902 -4.277204 2.381401 0
M  V30 6 C 4.547074 -3.373671 1.735833 0
M  V30 7 C 4.019577 -2.140824 1.407746 0
M  V30 8 N 4.454608 -1.020773 0.803517 0
M  V30 9 N 3.504768 -0.113031 0.747536 0
M  V30 10 C 2.361423 -0.588082 1.323261 0
M  V30 11 C 1.150595 0.217219 1.392977 0
M  V30 12 C 0.228530 0.514910 2.372871 0
M  V30 13 N -0.717119 1.323682 1.870879 0
M  V30 14 N -0.456748 1.576553 0.586436 0
M  V30 15 C -1.289885 2.420113 -0.247591 0
M  V30 16 C -2.374042 1.661392 -0.953911 0
M  V30 17 C -3.295131 2.433429 -1.843156 0
M  V30 18 C -1.856450 0.356497 -1.556112 0
M  V30 19 O -1.930845 -0.157773 -0.259718 0
M  V30 20 C -3.096053 0.634154 -0.130981 0
M  V30 21 C 0.672481 0.914495 0.277016 0
M  V30 22 C 2.708933 -1.857368 1.727761 0
M  V30 23 H -0.709325 -4.095630 2.580402 0
M  V30 24 H -0.983003 -2.873468 3.901128 0
M  V30 25 H 0.360255 -4.074056 4.076072 0
M  V30 26 H 4.167672 -5.239188 2.623812 0
M  V30 27 H 5.578165 -3.570792 1.473590 0
M  V30 28 H 5.434777 -0.926269 0.438358 0
M  V30 29 H 0.329972 0.117455 3.368651 0
M  V30 30 H -1.741643 3.217339 0.357798 0
M  V30 31 H -0.646800 2.898357 -1.041206 0
M  V30 32 H -4.086711 2.916891 -1.205462 0
M  V30 33 H -3.827648 1.700301 -2.495165 0
M  V30 34 H -2.814912 3.244915 -2.392124 0
M  V30 35 H -0.844217 0.375335 -1.958255 0
M  V30 36 H -2.623692 -0.160318 -2.174302 0
M  V30 37 H -3.896177 0.163287 -0.712295 0
M  V30 38 H -3.337054 0.907477 0.902817 0
M  V30 39 H 1.132633 0.935301 -0.718038 0
M  V30 END ATOM
M  V30 BEGIN BOND
M  V30 1 1 1 2
M  V30 2 1 2 3
M  V30 3 2 3 4
M  V30 4 1 4 5
M  V30 5 2 5 6
M  V30 6 1 6 7
M  V30 7 1 7 8
M  V30 8 1 8 9
M  V30 9 2 9 10
M  V30 10 1 10 11
M  V30 11 1 11 12
M  V30 12 2 12 13
M  V30 13 1 13 14
M  V30 14 1 14 15
M  V30 15 1 15 16
M  V30 16 1 16 17
M  V30 17 1 16 18
M  V30 18 1 18 19
M  V30 19 1 19 20
M  V30 20 1 14 21
M  V30 21 1 10 22
M  V30 22 1 22 3
M  V30 23 2 22 7
M  V30 24 2 21 11
M  V30 25 1 20 16
M  V30 26 1 1 23
M  V30 27 1 1 24
M  V30 28 1 1 25
M  V30 29 1 5 26
M  V30 30 1 6 27
M  V30 31 1 8 28
M  V30 32 1 12 29
M  V30 33 1 15 30
M  V30 34 1 15 31
M  V30 35 1 17 32
M  V30 36 1 17 33
M  V30 37 1 17 34
M  V30 38 1 18 35
M  V30 39 1 18 36
M  V30 40 1 20 37
M  V30 41 1 20 38
M  V30 42 1 21 39
M  V30 END BOND
M  V30 END CTAB
M  END
>  <Dataset>  (843) 
ChEMBL_Kinases

>  <Ligand_Instance>  (843) 
nan

>  <PDB_ID>  (843) 
nan

>  <Standardized_SMILES>  (843) 
COc1nccc2[nH]nc(-c3cnn(CC4(C)COC4)c3)c12

>  <Name>  (843) 
nan

>  <Pocket>  (843) 
nan

>  <ATP_Site>  (843) 
nan

>  <Peripheral>  (843) 
nan

>  <Num_H_Atoms_ProtBoundConf>  (843) 
nan

>  <Num_Resolved_Atoms>  (843) 
nan

>  <Num_Not_Resolved_Atoms>  (843) 
nan

$$$$
CHEMBL3651754
     RDKit          3D

  0  0  0  0  0  0  0  0  0  0999 V3000
M  V30 BEGIN CTAB
M  V30 COUNTS 31 33 0 0 0
M  V30 BEGIN ATOM
M  V30 1 C 0.900924 -3.032842 3.204448 0
M  V30 2 O 0.905497 -2.191837 2.072667 0
M  V30 3 C 1.372181 -2.669743 0.856648 0
M  V30 4 N 1.821527 -3.939863 0.755760 0
M  V30 5 C 2.283026 -4.450151 -0.400064 0
M  V30 6 C 2.321262 -3.684076 -1.567025 0
M  V30 7 C 1.866117 -2.376688 -1.492308 0
M  V30 8 N 1.728871 -1.336432 -2.335308 0
M  V30 9 N 1.224278 -0.286197 -1.727888 0
M  V30 10 C 0.994433 -0.583856 -0.413672 0
M  V30 11 C 0.428736 0.405688 0.504782 0
M  V30 12 C 0.722013 0.848538 1.778199 0
M  V30 13 N -0.165010 1.792324 2.129346 0
M  V30 14 N -1.034537 1.995761 1.144508 0
M  V30 15 C -2.123820 2.953771 1.205448 0
M  V30 16 C -3.386106 2.343134 1.764250 0
M  V30 17 F -4.432231 3.246416 1.827581 0
M  V30 18 F -3.217160 1.816310 3.018225 0
M  V30 19 F -3.790859 1.303351 0.924163 0
M  V30 20 C -0.695844 1.164507 0.143495 0
M  V30 21 C 1.402276 -1.897679 -0.284912 0
M  V30 22 H 1.584977 -3.892105 3.107469 0
M  V30 23 H -0.115972 -3.445980 3.339483 0
M  V30 24 H 1.136913 -2.428235 4.113669 0
M  V30 25 H 2.639223 -5.472217 -0.459649 0
M  V30 26 H 2.681018 -4.037550 -2.527038 0
M  V30 27 H 2.013993 -1.424749 -3.353400 0
M  V30 28 H 1.555872 0.438449 2.316981 0
M  V30 29 H -1.847975 3.818601 1.841457 0
M  V30 30 H -2.334410 3.332238 0.201045 0
M  V30 31 H -1.284578 1.166799 -0.772897 0
M  V30 END ATOM
M  V30 BEGIN BOND
M  V30 1 1 1 2
M  V30 2 1 2 3
M  V30 3 2 3 4
M  V30 4 1 4 5
M  V30 5 2 5 6
M  V30 6 1 6 7
M  V30 7 1 7 8
M  V30 8 1 8 9
M  V30 9 2 9 10
M  V30 10 1 10 11
M  V30 11 1 11 12
M  V30 12 2 12 13
M  V30 13 1 13 14
M  V30 14 1 14 15
M  V30 15 1 15 16
M  V30 16 1 16 17
M  V30 17 1 16 18
M  V30 18 1 16 19
M  V30 19 1 14 20
M  V30 20 1 10 21
M  V30 21 1 21 3
M  V30 22 2 21 7
M  V30 23 2 20 11
M  V30 24 1 1 22
M  V30 25 1 1 23
M  V30 26 1 1 24
M  V30 27 1 5 25
M  V30 28 1 6 26
M  V30 29 1 8 27
M  V30 30 1 12 28
M  V30 31 1 15 29
M  V30 32 1 15 30
M  V30 33 1 20 31
M  V30 END BOND
M  V30 END CTAB
M  END
>  <Dataset>  (844) 
ChEMBL_Kinases

>  <Ligand_Instance>  (844) 
nan

>  <PDB_ID>  (844) 
nan

>  <Standardized_SMILES>  (844) 
COc1nccc2[nH]nc(-c3cnn(CC(F)(F)F)c3)c12

>  <Name>  (844) 
nan

>  <Pocket>  (844) 
nan

>  <ATP_Site>  (844) 
nan

>  <Peripheral>  (844) 
nan

>  <Num_H_Atoms_ProtBoundConf>  (844) 
nan

>  <Num_Resolved_Atoms>  (844) 
nan

>  <Num_Not_Resolved_Atoms>  (844) 
nan

$$$$
CHEMBL3651753
     RDKit          3D

  0  0  0  0  0  0  0  0  0  0999 V3000
M  V30 BEGIN CTAB
M  V30 COUNTS 33 36 0 0 0
M  V30 BEGIN ATOM
M  V30 1 C 2.068996 -1.732209 3.434974 0
M  V30 2 O 1.506660 -1.566551 2.146683 0
M  V30 3 C 1.305322 -2.704684 1.379173 0
M  V30 4 N 1.633232 -3.947820 1.838513 0
M  V30 5 C 1.430165 -5.044016 1.079278 0
M  V30 6 C 0.891301 -5.015632 -0.188026 0
M  V30 7 C 0.560038 -3.758777 -0.651922 0
M  V30 8 N 0.021409 -3.313373 -1.807453 0
M  V30 9 N -0.094486 -2.008624 -1.747498 0
M  V30 10 C 0.357727 -1.522647 -0.558121 0
M  V30 11 C 0.321428 -0.102854 -0.274318 0
M  V30 12 C 1.215167 0.805610 0.245937 0
M  V30 13 N 0.644645 2.040190 0.301127 0
M  V30 14 N -0.598252 1.957971 -0.170471 0
M  V30 15 C -1.508798 3.082896 -0.262959 0
M  V30 16 C -1.868238 3.694502 1.080141 0
M  V30 17 O -3.156697 3.904412 0.571451 0
M  V30 18 C -2.968199 2.729008 -0.190305 0
M  V30 19 C -0.808901 0.688388 -0.518425 0
M  V30 20 C 0.763180 -2.630276 0.115294 0
M  V30 21 H 2.922974 -2.458354 3.399084 0
M  V30 22 H 1.314127 -2.219692 4.088603 0
M  V30 23 H 2.414137 -0.781706 3.882609 0
M  V30 24 H 1.719259 -5.988977 1.522652 0
M  V30 25 H 0.737129 -5.907156 -0.779335 0
M  V30 26 H -0.244623 -3.944105 -2.595327 0
M  V30 27 H 2.207851 0.522177 0.544501 0
M  V30 28 H -1.259099 3.824957 -1.047840 0
M  V30 29 H -1.303932 4.590408 1.367197 0
M  V30 30 H -1.871835 2.867321 1.834203 0
M  V30 31 H -3.129336 1.858047 0.480827 0
M  V30 32 H -3.520106 2.712925 -1.154306 0
M  V30 33 H -1.761264 0.386568 -0.930832 0
M  V30 END ATOM
M  V30 BEGIN BOND
M  V30 1 1 1 2
M  V30 2 1 2 3
M  V30 3 2 3 4
M  V30 4 1 4 5
M  V30 5 2 5 6
M  V30 6 1 6 7
M  V30 7 1 7 8
M  V30 8 1 8 9
M  V30 9 2 9 10
M  V30 10 1 10 11
M  V30 11 1 11 12
M  V30 12 2 12 13
M  V30 13 1 13 14
M  V30 14 1 14 15
M  V30 15 1 15 16
M  V30 16 1 16 17
M  V30 17 1 17 18
M  V30 18 1 14 19
M  V30 19 1 10 20
M  V30 20 1 20 3
M  V30 21 2 20 7
M  V30 22 2 19 11
M  V30 23 1 18 15
M  V30 24 1 1 21
M  V30 25 1 1 22
M  V30 26 1 1 23
M  V30 27 1 5 24
M  V30 28 1 6 25
M  V30 29 1 8 26
M  V30 30 1 12 27
M  V30 31 1 15 28
M  V30 32 1 16 29
M  V30 33 1 16 30
M  V30 34 1 18 31
M  V30 35 1 18 32
M  V30 36 1 19 33
M  V30 END BOND
M  V30 END CTAB
M  END
>  <Dataset>  (845) 
ChEMBL_Kinases

>  <Ligand_Instance>  (845) 
nan

>  <PDB_ID>  (845) 
nan

>  <Standardized_SMILES>  (845) 
COc1nccc2[nH]nc(-c3cnn(C4COC4)c3)c12

>  <Name>  (845) 
nan

>  <Pocket>  (845) 
nan

>  <ATP_Site>  (845) 
nan

>  <Peripheral>  (845) 
nan

>  <Num_H_Atoms_ProtBoundConf>  (845) 
nan

>  <Num_Resolved_Atoms>  (845) 
nan

>  <Num_Not_Resolved_Atoms>  (845) 
nan

$$$$
CHEMBL3651752
     RDKit          3D

  0  0  0  0  0  0  0  0  0  0999 V3000
M  V30 BEGIN CTAB
M  V30 COUNTS 50 54 0 0 0
M  V30 BEGIN ATOM
M  V30 1 C -0.645309 -4.764327 0.460699 0
M  V30 2 C 0.174986 -4.156721 -0.463004 0
M  V30 3 C 0.485132 -2.794705 -0.579498 0
M  V30 4 C 1.408339 -2.446452 -1.634843 0
M  V30 5 N 1.892026 -3.326088 -2.565023 0
M  V30 6 N 2.709652 -2.724118 -3.375032 0
M  V30 7 C 2.853433 -1.425556 -3.079606 0
M  V30 8 C 3.600665 -0.407858 -3.625399 0
M  V30 9 C 3.436689 0.782915 -2.958705 0
M  V30 10 N 2.649056 0.973587 -1.893096 0
M  V30 11 C 1.913188 -0.056693 -1.366362 0
M  V30 12 O 1.123678 0.239223 -0.250557 0
M  V30 13 C 1.220090 1.589485 0.230954 0
M  V30 14 C -0.162496 2.162982 0.265999 0
M  V30 15 C -0.491240 2.466925 1.732133 0
M  V30 16 O 0.398113 3.485777 2.108874 0
M  V30 17 C 1.678394 2.961536 2.291504 0
M  V30 18 C 1.853166 1.642199 1.576189 0
M  V30 19 C 2.033566 -1.271136 -1.988800 0
M  V30 20 N -0.122832 -2.041938 0.351179 0
M  V30 21 C -0.936235 -2.589495 1.276900 0
M  V30 22 N -1.665835 -1.889650 2.265280 0
M  V30 23 C -1.977316 -2.480352 3.568701 0
M  V30 24 C -3.424288 -2.255860 3.836718 0
M  V30 25 O -4.176978 -1.883080 2.726343 0
M  V30 26 C -3.765510 -0.661729 2.203657 0
M  V30 27 C -2.254892 -0.546819 2.189213 0
M  V30 28 N -1.199597 -3.905523 1.344793 0
M  V30 29 H -0.836105 -5.828167 0.484416 0
M  V30 30 H 0.598389 -4.891535 -1.151004 0
M  V30 31 H 3.165291 -3.259535 -4.143097 0
M  V30 32 H 4.226617 -0.578349 -4.485553 0
M  V30 33 H 3.995183 1.651995 -3.319899 0
M  V30 34 H 1.894146 2.169584 -0.454433 0
M  V30 35 H -0.909357 1.495661 -0.206948 0
M  V30 36 H -0.118129 3.154040 -0.248172 0
M  V30 37 H -1.503338 2.899452 1.742444 0
M  V30 38 H -0.374968 1.577344 2.351926 0
M  V30 39 H 2.387414 3.679133 1.836856 0
M  V30 40 H 1.944316 2.869287 3.365373 0
M  V30 41 H 1.491118 0.840533 2.239241 0
M  V30 42 H 2.948982 1.469608 1.444036 0
M  V30 43 H -1.776795 -3.572538 3.578044 0
M  V30 44 H -1.353712 -1.953495 4.331702 0
M  V30 45 H -3.523767 -1.404666 4.572088 0
M  V30 46 H -3.855850 -3.159060 4.308525 0
M  V30 47 H -4.173076 0.203655 2.720737 0
M  V30 48 H -4.092754 -0.644108 1.142090 0
M  V30 49 H -1.876266 -0.028111 1.306512 0
M  V30 50 H -1.963465 -0.008698 3.105167 0
M  V30 END ATOM
M  V30 BEGIN BOND
M  V30 1 2 1 2
M  V30 2 1 2 3
M  V30 3 1 3 4
M  V30 4 2 4 5
M  V30 5 1 5 6
M  V30 6 1 6 7
M  V30 7 2 7 8
M  V30 8 1 8 9
M  V30 9 2 9 10
M  V30 10 1 10 11
M  V30 11 1 11 12
M  V30 12 1 12 13
M  V30 13 1 13 14
M  V30 14 1 14 15
M  V30 15 1 15 16
M  V30 16 1 16 17
M  V30 17 1 17 18
M  V30 18 2 11 19
M  V30 19 2 3 20
M  V30 20 1 20 21
M  V30 21 1 21 22
M  V30 22 1 22 23
M  V30 23 1 23 24
M  V30 24 1 24 25
M  V30 25 1 25 26
M  V30 26 1 26 27
M  V30 27 2 21 28
M  V30 28 1 28 1
M  V30 29 1 19 4
M  V30 30 1 27 22
M  V30 31 1 19 7
M  V30 32 1 18 13
M  V30 33 1 1 29
M  V30 34 1 2 30
M  V30 35 1 6 31
M  V30 36 1 8 32
M  V30 37 1 9 33
M  V30 38 1 13 34
M  V30 39 1 14 35
M  V30 40 1 14 36
M  V30 41 1 15 37
M  V30 42 1 15 38
M  V30 43 1 17 39
M  V30 44 1 17 40
M  V30 45 1 18 41
M  V30 46 1 18 42
M  V30 47 1 23 43
M  V30 48 1 23 44
M  V30 49 1 24 45
M  V30 50 1 24 46
M  V30 51 1 26 47
M  V30 52 1 26 48
M  V30 53 1 27 49
M  V30 54 1 27 50
M  V30 END BOND
M  V30 END CTAB
M  END
>  <Dataset>  (846) 
ChEMBL_Kinases

>  <Ligand_Instance>  (846) 
nan

>  <PDB_ID>  (846) 
nan

>  <Standardized_SMILES>  (846) 
c1cc(-c2n[nH]c3ccnc(OC4CCOCC4)c23)nc(N2CCOCC2)n1

>  <Name>  (846) 
nan

>  <Pocket>  (846) 
nan

>  <ATP_Site>  (846) 
nan

>  <Peripheral>  (846) 
nan

>  <Num_H_Atoms_ProtBoundConf>  (846) 
nan

>  <Num_Resolved_Atoms>  (846) 
nan

>  <Num_Not_Resolved_Atoms>  (846) 
nan

$$$$
CHEMBL3651751
     RDKit          3D

  0  0  0  0  0  0  0  0  0  0999 V3000
M  V30 BEGIN CTAB
M  V30 COUNTS 40 42 0 0 0
M  V30 BEGIN ATOM
M  V30 1 C 3.512408 -3.958104 1.716403 0
M  V30 2 C 2.689619 -2.751605 2.120325 0
M  V30 3 C 1.403991 -3.204271 2.771823 0
M  V30 4 N 2.414381 -1.923339 0.961343 0
M  V30 5 C 1.211198 -1.558502 0.485381 0
M  V30 6 C 1.361842 -0.767685 -0.634097 0
M  V30 7 C 0.435782 -0.098701 -1.538183 0
M  V30 8 N 0.594342 -0.184941 -2.892143 0
M  V30 9 N -0.344706 0.491074 -3.520443 0
M  V30 10 C -1.175072 1.061427 -2.630418 0
M  V30 11 C -2.306088 1.864244 -2.689257 0
M  V30 12 C -2.871450 2.243523 -1.492365 0
M  V30 13 N -2.367519 1.865116 -0.308809 0
M  V30 14 C -1.266435 1.082757 -0.211305 0
M  V30 15 O -0.759637 0.702246 1.022726 0
M  V30 16 C -1.341764 1.094397 2.228349 0
M  V30 17 C -1.837389 -0.077728 3.049725 0
M  V30 18 C -0.429890 1.911302 3.111915 0
M  V30 19 F -1.088501 2.253391 4.279234 0
M  V30 20 F -0.051097 3.089542 2.506526 0
M  V30 21 F 0.693956 1.202824 3.496813 0
M  V30 22 C -0.684586 0.691220 -1.396553 0
M  V30 23 C 2.752456 -0.685745 -0.794257 0
M  V30 24 N 3.340612 -1.395131 0.187025 0
M  V30 25 H 4.563964 -3.852201 2.025731 0
M  V30 26 H 3.496982 -4.098858 0.601449 0
M  V30 27 H 3.059788 -4.904404 2.118497 0
M  V30 28 H 3.309084 -2.161299 2.831200 0
M  V30 29 H 1.654201 -3.389652 3.856698 0
M  V30 30 H 0.608165 -2.457780 2.784526 0
M  V30 31 H 1.006996 -4.143888 2.377447 0
M  V30 32 H 0.261946 -1.818343 0.876362 0
M  V30 33 H -0.460197 0.592354 -4.553701 0
M  V30 34 H -2.655639 2.129806 -3.678645 0
M  V30 35 H -3.760360 2.874868 -1.564632 0
M  V30 36 H -2.242742 1.736634 2.046266 0
M  V30 37 H -1.020439 -0.564728 3.611747 0
M  V30 38 H -2.643507 0.262402 3.730872 0
M  V30 39 H -2.238935 -0.823415 2.343517 0
M  V30 40 H 3.377720 -0.177248 -1.531265 0
M  V30 END ATOM
M  V30 BEGIN BOND
M  V30 1 1 1 2
M  V30 2 1 2 3
M  V30 3 1 2 4
M  V30 4 1 4 5
M  V30 5 2 5 6
M  V30 6 1 6 7
M  V30 7 2 7 8
M  V30 8 1 8 9
M  V30 9 1 9 10
M  V30 10 2 10 11
M  V30 11 1 11 12
M  V30 12 2 12 13
M  V30 13 1 13 14
M  V30 14 1 14 15
M  V30 15 1 15 16
M  V30 16 1 16 17
M  V30 17 1 16 18
M  V30 18 1 18 19
M  V30 19 1 18 20
M  V30 20 1 18 21
M  V30 21 2 14 22
M  V30 22 1 6 23
M  V30 23 2 23 24
M  V30 24 1 24 4
M  V30 25 1 22 7
M  V30 26 1 22 10
M  V30 27 1 1 25
M  V30 28 1 1 26
M  V30 29 1 1 27
M  V30 30 1 2 28
M  V30 31 1 3 29
M  V30 32 1 3 30
M  V30 33 1 3 31
M  V30 34 1 5 32
M  V30 35 1 9 33
M  V30 36 1 11 34
M  V30 37 1 12 35
M  V30 38 1 16 36
M  V30 39 1 17 37
M  V30 40 1 17 38
M  V30 41 1 17 39
M  V30 42 1 23 40
M  V30 END BOND
M  V30 END CTAB
M  END
>  <Dataset>  (847) 
ChEMBL_Kinases

>  <Ligand_Instance>  (847) 
nan

>  <PDB_ID>  (847) 
nan

>  <Standardized_SMILES>  (847) 
CC(C)n1cc(-c2n[nH]c3ccnc(OC(C)C(F)(F)F)c23)cn1

>  <Name>  (847) 
nan

>  <Pocket>  (847) 
nan

>  <ATP_Site>  (847) 
nan

>  <Peripheral>  (847) 
nan

>  <Num_H_Atoms_ProtBoundConf>  (847) 
nan

>  <Num_Resolved_Atoms>  (847) 
nan

>  <Num_Not_Resolved_Atoms>  (847) 
nan

$$$$
CHEMBL3651750
     RDKit          3D

  0  0  0  0  0  0  0  0  0  0999 V3000
M  V30 BEGIN CTAB
M  V30 COUNTS 37 39 0 0 0
M  V30 BEGIN ATOM
M  V30 1 C 0.008595 -4.272533 0.372516 0
M  V30 2 C 1.265961 -4.116970 1.204029 0
M  V30 3 C 1.005796 -4.903742 2.488557 0
M  V30 4 N 1.504151 -2.731761 1.565864 0
M  V30 5 C 1.427039 -1.672976 0.740008 0
M  V30 6 C 1.711265 -0.492483 1.394873 0
M  V30 7 C 1.759548 0.892957 0.977546 0
M  V30 8 N 2.802918 1.668546 1.326212 0
M  V30 9 N 2.655553 2.902151 0.849496 0
M  V30 10 C 1.491409 2.953885 0.168823 0
M  V30 11 C 0.863677 3.975285 -0.512396 0
M  V30 12 C -0.338765 3.609404 -1.079578 0
M  V30 13 N -0.887264 2.401744 -1.007605 0
M  V30 14 C -0.288832 1.394309 -0.347534 0
M  V30 15 O -0.802788 0.127630 -0.236640 0
M  V30 16 C -1.992588 -0.365832 -0.754325 0
M  V30 17 C -3.245425 0.307654 -0.284244 0
M  V30 18 F -4.299120 -0.354182 -0.931847 0
M  V30 19 F -3.418868 0.041766 1.072954 0
M  V30 20 F -3.350793 1.627168 -0.582651 0
M  V30 21 C 0.919943 1.700859 0.241679 0
M  V30 22 C 1.971642 -0.919319 2.702446 0
M  V30 23 N 1.840555 -2.246610 2.768628 0
M  V30 24 H -0.801694 -3.707790 0.885255 0
M  V30 25 H -0.251603 -5.348230 0.347783 0
M  V30 26 H 0.121559 -3.828662 -0.625527 0
M  V30 27 H 2.098136 -4.553526 0.617661 0
M  V30 28 H 1.904524 -4.862460 3.107179 0
M  V30 29 H 0.169011 -4.361700 2.989058 0
M  V30 30 H 0.686157 -5.921457 2.208578 0
M  V30 31 H 1.181494 -1.730857 -0.294894 0
M  V30 32 H 3.341738 3.698417 0.987570 0
M  V30 33 H 1.288214 4.965752 -0.585731 0
M  V30 34 H -0.913565 4.337239 -1.637545 0
M  V30 35 H -1.996039 -0.444545 -1.861581 0
M  V30 36 H -2.074098 -1.429038 -0.383385 0
M  V30 37 H 2.240203 -0.296519 3.551738 0
M  V30 END ATOM
M  V30 BEGIN BOND
M  V30 1 1 1 2
M  V30 2 1 2 3
M  V30 3 1 2 4
M  V30 4 1 4 5
M  V30 5 2 5 6
M  V30 6 1 6 7
M  V30 7 2 7 8
M  V30 8 1 8 9
M  V30 9 1 9 10
M  V30 10 2 10 11
M  V30 11 1 11 12
M  V30 12 2 12 13
M  V30 13 1 13 14
M  V30 14 1 14 15
M  V30 15 1 15 16
M  V30 16 1 16 17
M  V30 17 1 17 18
M  V30 18 1 17 19
M  V30 19 1 17 20
M  V30 20 2 14 21
M  V30 21 1 6 22
M  V30 22 2 22 23
M  V30 23 1 23 4
M  V30 24 1 21 7
M  V30 25 1 21 10
M  V30 26 1 1 24
M  V30 27 1 1 25
M  V30 28 1 1 26
M  V30 29 1 2 27
M  V30 30 1 3 28
M  V30 31 1 3 29
M  V30 32 1 3 30
M  V30 33 1 5 31
M  V30 34 1 9 32
M  V30 35 1 11 33
M  V30 36 1 12 34
M  V30 37 1 16 35
M  V30 38 1 16 36
M  V30 39 1 22 37
M  V30 END BOND
M  V30 END CTAB
M  END
>  <Dataset>  (848) 
ChEMBL_Kinases

>  <Ligand_Instance>  (848) 
nan

>  <PDB_ID>  (848) 
nan

>  <Standardized_SMILES>  (848) 
CC(C)n1cc(-c2n[nH]c3ccnc(OCC(F)(F)F)c23)cn1

>  <Name>  (848) 
nan

>  <Pocket>  (848) 
nan

>  <ATP_Site>  (848) 
nan

>  <Peripheral>  (848) 
nan

>  <Num_H_Atoms_ProtBoundConf>  (848) 
nan

>  <Num_Resolved_Atoms>  (848) 
nan

>  <Num_Not_Resolved_Atoms>  (848) 
nan

$$$$
CHEMBL3651749
     RDKit          3D

  0  0  0  0  0  0  0  0  0  0999 V3000
M  V30 BEGIN CTAB
M  V30 COUNTS 43 46 0 0 0
M  V30 BEGIN ATOM
M  V30 1 F 4.153810 -3.259260 1.491052 0
M  V30 2 C 3.376815 -2.525708 0.577455 0
M  V30 3 F 2.174367 -3.217964 0.435125 0
M  V30 4 F 3.985543 -2.426516 -0.625042 0
M  V30 5 C 3.039078 -1.209882 1.225943 0
M  V30 6 O 2.265491 -0.381737 0.430612 0
M  V30 7 C 2.637705 0.123558 -0.784145 0
M  V30 8 N 3.772587 -0.029237 -1.477592 0
M  V30 9 C 3.992941 0.539400 -2.667729 0
M  V30 10 C 3.075914 1.343515 -3.307972 0
M  V30 11 C 1.886850 1.533145 -2.633961 0
M  V30 12 N 0.824853 2.265902 -3.014251 0
M  V30 13 N -0.064914 2.139984 -2.031986 0
M  V30 14 C 0.438320 1.343320 -1.062281 0
M  V30 15 C -0.395764 1.097765 0.099566 0
M  V30 16 C -0.965833 2.219968 0.715572 0
M  V30 17 C -1.806042 2.200213 1.827197 0
M  V30 18 N -2.095900 0.982852 2.357990 0
M  V30 19 C -1.573977 -0.107174 1.801066 0
M  V30 20 N -1.913775 -1.348856 2.400688 0
M  V30 21 C -2.775397 -1.389577 3.548187 0
M  V30 22 C -2.293534 -2.310214 4.645726 0
M  V30 23 O -1.677039 -3.449522 4.194088 0
M  V30 24 C -0.743622 -3.270591 3.202976 0
M  V30 25 C -1.503142 -2.675146 2.014805 0
M  V30 26 C -0.744252 -0.091609 0.703296 0
M  V30 27 C 1.706001 0.924917 -1.408510 0
M  V30 28 H 4.026505 -0.734164 1.504886 0
M  V30 29 H 2.557393 -1.410286 2.212575 0
M  V30 30 H 4.952244 0.336930 -3.124739 0
M  V30 31 H 3.365762 1.748424 -4.267819 0
M  V30 32 H 0.730334 2.814274 -3.897659 0
M  V30 33 H -0.754760 3.201047 0.317558 0
M  V30 34 H -2.195029 3.115839 2.229252 0
M  V30 35 H -3.792143 -1.725312 3.187779 0
M  V30 36 H -2.948129 -0.361065 3.912941 0
M  V30 37 H -1.613690 -1.778595 5.326667 0
M  V30 38 H -3.230488 -2.641798 5.181180 0
M  V30 39 H -0.371415 -4.280543 2.922816 0
M  V30 40 H 0.105544 -2.641694 3.498180 0
M  V30 41 H -0.901411 -2.735771 1.108401 0
M  V30 42 H -2.399584 -3.328394 1.872266 0
M  V30 43 H -0.333251 -0.979817 0.246633 0
M  V30 END ATOM
M  V30 BEGIN BOND
M  V30 1 1 1 2
M  V30 2 1 2 3
M  V30 3 1 2 4
M  V30 4 1 2 5
M  V30 5 1 5 6
M  V30 6 1 6 7
M  V30 7 2 7 8
M  V30 8 1 8 9
M  V30 9 2 9 10
M  V30 10 1 10 11
M  V30 11 1 11 12
M  V30 12 1 12 13
M  V30 13 2 13 14
M  V30 14 1 14 15
M  V30 15 2 15 16
M  V30 16 1 16 17
M  V30 17 2 17 18
M  V30 18 1 18 19
M  V30 19 1 19 20
M  V30 20 1 20 21
M  V30 21 1 21 22
M  V30 22 1 22 23
M  V30 23 1 23 24
M  V30 24 1 24 25
M  V30 25 2 19 26
M  V30 26 1 14 27
M  V30 27 1 27 7
M  V30 28 2 27 11
M  V30 29 1 26 15
M  V30 30 1 25 20
M  V30 31 1 5 28
M  V30 32 1 5 29
M  V30 33 1 9 30
M  V30 34 1 10 31
M  V30 35 1 12 32
M  V30 36 1 16 33
M  V30 37 1 17 34
M  V30 38 1 21 35
M  V30 39 1 21 36
M  V30 40 1 22 37
M  V30 41 1 22 38
M  V30 42 1 24 39
M  V30 43 1 24 40
M  V30 44 1 25 41
M  V30 45 1 25 42
M  V30 46 1 26 43
M  V30 END BOND
M  V30 END CTAB
M  END
>  <Dataset>  (849) 
ChEMBL_Kinases

>  <Ligand_Instance>  (849) 
nan

>  <PDB_ID>  (849) 
nan

>  <Standardized_SMILES>  (849) 
FC(F)(F)COc1nccc2[nH]nc(-c3ccnc(N4CCOCC4)c3)c12

>  <Name>  (849) 
nan

>  <Pocket>  (849) 
nan

>  <ATP_Site>  (849) 
nan

>  <Peripheral>  (849) 
nan

>  <Num_H_Atoms_ProtBoundConf>  (849) 
nan

>  <Num_Resolved_Atoms>  (849) 
nan

>  <Num_Not_Resolved_Atoms>  (849) 
nan

$$$$
CHEMBL3651748
     RDKit          3D

  0  0  0  0  0  0  0  0  0  0999 V3000
M  V30 BEGIN CTAB
M  V30 COUNTS 53 57 0 0 0
M  V30 BEGIN ATOM
M  V30 1 O -1.556655 -3.381677 2.477220 0
M  V30 2 C -1.896446 -2.316329 1.923431 0
M  V30 3 C -2.055844 -0.854751 2.038680 0
M  V30 4 C -1.445785 -0.149834 0.991260 0
M  V30 5 C -1.566473 1.220664 1.058171 0
M  V30 6 C -0.978132 2.118462 0.054290 0
M  V30 7 N -1.814228 3.055395 -0.448210 0
M  V30 8 N -1.146671 3.793635 -1.317272 0
M  V30 9 C 0.034560 3.301387 -1.317042 0
M  V30 10 C 1.269488 3.580217 -1.983790 0
M  V30 11 C 2.498026 2.919462 -1.847483 0
M  V30 12 N 2.475878 1.917375 -0.983433 0
M  V30 13 C 1.487999 1.475045 -0.261993 0
M  V30 14 O 1.432925 0.451808 0.639507 0
M  V30 15 C 2.648382 -0.273050 0.871707 0
M  V30 16 C 3.061218 -0.136386 2.340577 0
M  V30 17 C 1.987792 -0.768088 3.189602 0
M  V30 18 O 1.841234 -2.125139 2.926858 0
M  V30 19 C 2.677983 -2.570570 1.905686 0
M  V30 20 C 2.493536 -1.753028 0.627618 0
M  V30 21 C 0.357855 2.174025 -0.469649 0
M  V30 22 C -2.256963 1.766715 2.114426 0
M  V30 23 C -2.869802 1.072401 3.166696 0
M  V30 24 N -2.698525 -0.245239 3.014721 0
M  V30 25 N -2.207030 -3.049972 0.743195 0
M  V30 26 C -1.989243 -4.489483 0.777148 0
M  V30 27 C -2.148986 -5.152170 -0.558376 0
M  V30 28 O -1.509887 -4.513961 -1.609934 0
M  V30 29 C -1.607914 -3.129493 -1.533012 0
M  V30 30 C -2.719529 -2.707873 -0.582639 0
M  V30 31 H -0.935327 -0.636737 0.205217 0
M  V30 32 H -1.332052 4.599846 -1.940562 0
M  V30 33 H 1.262145 4.426324 -2.701697 0
M  V30 34 H 3.293309 3.306292 -2.451788 0
M  V30 35 H 3.456388 0.141293 0.244254 0
M  V30 36 H 4.032346 -0.605416 2.486349 0
M  V30 37 H 3.091023 0.940526 2.646257 0
M  V30 38 H 1.053547 -0.208537 2.969450 0
M  V30 39 H 2.232647 -0.600152 4.241608 0
M  V30 40 H 2.379792 -3.612142 1.668557 0
M  V30 41 H 3.728743 -2.614744 2.239296 0
M  V30 42 H 1.512333 -2.041365 0.205551 0
M  V30 43 H 3.269328 -2.145617 -0.063497 0
M  V30 44 H -2.336986 2.867500 2.118208 0
M  V30 45 H -3.392221 1.552329 3.972505 0
M  V30 46 H -1.007130 -4.725775 1.249700 0
M  V30 47 H -2.769044 -4.919148 1.443826 0
M  V30 48 H -3.215018 -5.382989 -0.748874 0
M  V30 49 H -1.660928 -6.164274 -0.458284 0
M  V30 50 H -1.741440 -2.685495 -2.527241 0
M  V30 51 H -0.641010 -2.773958 -1.098001 0
M  V30 52 H -3.606472 -3.318112 -0.851558 0
M  V30 53 H -2.886669 -1.643184 -0.729634 0
M  V30 END ATOM
M  V30 BEGIN BOND
M  V30 1 2 1 2
M  V30 2 1 2 3
M  V30 3 2 3 4
M  V30 4 1 4 5
M  V30 5 1 5 6
M  V30 6 2 6 7
M  V30 7 1 7 8
M  V30 8 1 8 9
M  V30 9 2 9 10
M  V30 10 1 10 11
M  V30 11 2 11 12
M  V30 12 1 12 13
M  V30 13 1 13 14
M  V30 14 1 14 15
M  V30 15 1 15 16
M  V30 16 1 16 17
M  V30 17 1 17 18
M  V30 18 1 18 19
M  V30 19 1 19 20
M  V30 20 2 13 21
M  V30 21 2 5 22
M  V30 22 1 22 23
M  V30 23 2 23 24
M  V30 24 1 2 25
M  V30 25 1 25 26
M  V30 26 1 26 27
M  V30 27 1 27 28
M  V30 28 1 28 29
M  V30 29 1 29 30
M  V30 30 1 24 3
M  V30 31 1 30 25
M  V30 32 1 21 6
M  V30 33 1 21 9
M  V30 34 1 20 15
M  V30 35 1 4 31
M  V30 36 1 8 32
M  V30 37 1 10 33
M  V30 38 1 11 34
M  V30 39 1 15 35
M  V30 40 1 16 36
M  V30 41 1 16 37
M  V30 42 1 17 38
M  V30 43 1 17 39
M  V30 44 1 19 40
M  V30 45 1 19 41
M  V30 46 1 20 42
M  V30 47 1 20 43
M  V30 48 1 22 44
M  V30 49 1 23 45
M  V30 50 1 26 46
M  V30 51 1 26 47
M  V30 52 1 27 48
M  V30 53 1 27 49
M  V30 54 1 29 50
M  V30 55 1 29 51
M  V30 56 1 30 52
M  V30 57 1 30 53
M  V30 END BOND
M  V30 END CTAB
M  END
>  <Dataset>  (850) 
ChEMBL_Kinases

>  <Ligand_Instance>  (850) 
nan

>  <PDB_ID>  (850) 
nan

>  <Standardized_SMILES>  (850) 
O=C(c1cc(-c2n[nH]c3ccnc(OC4CCOCC4)c23)ccn1)N1CCOCC1

>  <Name>  (850) 
nan

>  <Pocket>  (850) 
nan

>  <ATP_Site>  (850) 
nan

>  <Peripheral>  (850) 
nan

>  <Num_H_Atoms_ProtBoundConf>  (850) 
nan

>  <Num_Resolved_Atoms>  (850) 
nan

>  <Num_Not_Resolved_Atoms>  (850) 
nan

$$$$
CHEMBL3651747
     RDKit          3D

  0  0  0  0  0  0  0  0  0  0999 V3000
M  V30 BEGIN CTAB
M  V30 COUNTS 58 62 0 0 0
M  V30 BEGIN ATOM
M  V30 1 C -0.585515 -2.712696 4.319575 0
M  V30 2 C 0.832937 -2.883830 3.840414 0
M  V30 3 C 1.199843 -4.314512 3.645930 0
M  V30 4 N 1.081164 -2.085000 2.636947 0
M  V30 5 C 1.918114 -1.037320 2.506279 0
M  V30 6 C 1.909692 -0.512779 1.230978 0
M  V30 7 C 2.751738 0.621996 0.876497 0
M  V30 8 N 4.062973 0.640315 1.239995 0
M  V30 9 N 4.646373 1.760847 0.824065 0
M  V30 10 C 3.755319 2.524845 0.174036 0
M  V30 11 C 3.743211 3.747793 -0.462278 0
M  V30 12 C 2.591005 4.213026 -1.028974 0
M  V30 13 N 1.468197 3.477740 -0.966000 0
M  V30 14 C 1.403828 2.265756 -0.357122 0
M  V30 15 O 0.223416 1.538061 -0.313453 0
M  V30 16 C -0.942661 2.105133 -0.932786 0
M  V30 17 C -2.019767 2.365779 0.050397 0
M  V30 18 C -3.138817 1.357150 0.070575 0
M  V30 19 O -3.587754 1.236823 -1.254039 0
M  V30 20 C -2.617389 0.507925 -1.914342 0
M  V30 21 C -1.331609 1.260901 -2.100733 0
M  V30 22 C 2.565390 1.809524 0.207208 0
M  V30 23 C 1.008906 -1.292036 0.539833 0
M  V30 24 C 0.526038 -2.234490 1.421873 0
M  V30 25 C -0.456119 -3.231633 1.013792 0
M  V30 26 O -0.975889 -4.141776 1.706905 0
M  V30 27 N -0.980759 -3.302329 -0.302971 0
M  V30 28 C -1.953204 -4.292051 -0.705421 0
M  V30 29 C -3.048892 -3.692068 -1.545255 0
M  V30 30 O -2.353115 -3.918816 -2.728338 0
M  V30 31 C -1.556119 -4.855104 -2.047110 0
M  V30 32 H -1.155281 -2.134010 3.564783 0
M  V30 33 H -1.031439 -3.729985 4.416831 0
M  V30 34 H -0.598153 -2.230534 5.315331 0
M  V30 35 H 1.496449 -2.457808 4.630136 0
M  V30 36 H 0.390941 -5.027252 3.911966 0
M  V30 37 H 2.038895 -4.570236 4.322986 0
M  V30 38 H 1.592258 -4.446400 2.613795 0
M  V30 39 H 2.520047 -0.677907 3.353194 0
M  V30 40 H 5.643542 2.037308 0.964060 0
M  V30 41 H 4.692033 4.254827 -0.456182 0
M  V30 42 H 2.608765 5.177533 -1.523105 0
M  V30 43 H -0.587063 3.083798 -1.336936 0
M  V30 44 H -1.560877 2.470050 1.068633 0
M  V30 45 H -2.532598 3.356988 -0.126607 0
M  V30 46 H -3.960067 1.761695 0.679849 0
M  V30 47 H -2.798360 0.349346 0.374843 0
M  V30 48 H -3.034589 0.191796 -2.891406 0
M  V30 49 H -2.443203 -0.412470 -1.320451 0
M  V30 50 H -0.546521 0.507468 -2.322942 0
M  V30 51 H -1.443456 1.857992 -3.032265 0
M  V30 52 H 0.788663 -1.120780 -0.503853 0
M  V30 53 H -0.665860 -2.612107 -1.049882 0
M  V30 54 H -2.269293 -4.997995 0.067971 0
M  V30 55 H -3.938573 -4.387321 -1.541967 0
M  V30 56 H -3.305337 -2.646662 -1.378877 0
M  V30 57 H -0.496930 -4.655665 -2.340181 0
M  V30 58 H -1.799921 -5.906694 -2.218935 0
M  V30 END ATOM
M  V30 BEGIN BOND
M  V30 1 1 1 2
M  V30 2 1 2 3
M  V30 3 1 2 4
M  V30 4 1 4 5
M  V30 5 2 5 6
M  V30 6 1 6 7
M  V30 7 2 7 8
M  V30 8 1 8 9
M  V30 9 1 9 10
M  V30 10 2 10 11
M  V30 11 1 11 12
M  V30 12 2 12 13
M  V30 13 1 13 14
M  V30 14 1 14 15
M  V30 15 1 15 16
M  V30 16 1 16 17
M  V30 17 1 17 18
M  V30 18 1 18 19
M  V30 19 1 19 20
M  V30 20 1 20 21
M  V30 21 2 14 22
M  V30 22 1 6 23
M  V30 23 2 23 24
M  V30 24 1 24 25
M  V30 25 2 25 26
M  V30 26 1 25 27
M  V30 27 1 27 28
M  V30 28 1 28 29
M  V30 29 1 29 30
M  V30 30 1 30 31
M  V30 31 1 24 4
M  V30 32 1 31 28
M  V30 33 1 22 7
M  V30 34 1 22 10
M  V30 35 1 21 16
M  V30 36 1 1 32
M  V30 37 1 1 33
M  V30 38 1 1 34
M  V30 39 1 2 35
M  V30 40 1 3 36
M  V30 41 1 3 37
M  V30 42 1 3 38
M  V30 43 1 5 39
M  V30 44 1 9 40
M  V30 45 1 11 41
M  V30 46 1 12 42
M  V30 47 1 16 43
M  V30 48 1 17 44
M  V30 49 1 17 45
M  V30 50 1 18 46
M  V30 51 1 18 47
M  V30 52 1 20 48
M  V30 53 1 20 49
M  V30 54 1 21 50
M  V30 55 1 21 51
M  V30 56 1 23 52
M  V30 57 1 27 53
M  V30 58 1 28 54
M  V30 59 1 29 55
M  V30 60 1 29 56
M  V30 61 1 31 57
M  V30 62 1 31 58
M  V30 END BOND
M  V30 END CTAB
M  END
>  <Dataset>  (851) 
ChEMBL_Kinases

>  <Ligand_Instance>  (851) 
nan

>  <PDB_ID>  (851) 
nan

>  <Standardized_SMILES>  (851) 
CC(C)n1cc(-c2n[nH]c3ccnc(OC4CCOCC4)c23)cc1C(=O)NC1COC1

>  <Name>  (851) 
nan

>  <Pocket>  (851) 
nan

>  <ATP_Site>  (851) 
nan

>  <Peripheral>  (851) 
nan

>  <Num_H_Atoms_ProtBoundConf>  (851) 
nan

>  <Num_Resolved_Atoms>  (851) 
nan

>  <Num_Not_Resolved_Atoms>  (851) 
nan

$$$$
CHEMBL3651746
     RDKit          3D

  0  0  0  0  0  0  0  0  0  0999 V3000
M  V30 BEGIN CTAB
M  V30 COUNTS 56 59 0 0 0
M  V30 BEGIN ATOM
M  V30 1 C -0.108879 -1.887764 3.814684 0
M  V30 2 C 0.219229 -2.768995 2.630294 0
M  V30 3 C 1.103835 -3.889312 3.144906 0
M  V30 4 N 0.967431 -1.996768 1.622379 0
M  V30 5 C 1.435722 -0.746203 1.562958 0
M  V30 6 C 2.146722 -0.509779 0.372056 0
M  V30 7 C 2.651694 0.869064 0.244006 0
M  V30 8 N 3.877345 1.423186 0.130474 0
M  V30 9 N 3.771184 2.740964 0.013310 0
M  V30 10 C 2.487742 3.117997 0.042289 0
M  V30 11 C 1.915582 4.382981 -0.064694 0
M  V30 12 C 0.508804 4.415095 -0.020209 0
M  V30 13 N -0.180790 3.271813 0.113786 0
M  V30 14 C 0.383913 2.057131 0.215389 0
M  V30 15 O -0.358043 0.900993 0.338574 0
M  V30 16 C -1.783757 1.017527 0.307512 0
M  V30 17 C -2.176392 0.809190 -1.178466 0
M  V30 18 C -3.474494 0.042543 -1.228119 0
M  V30 19 O -4.305904 0.541873 -0.230440 0
M  V30 20 C -3.910417 -0.092030 0.947364 0
M  V30 21 C -2.426019 -0.027481 1.162517 0
M  V30 22 C 1.768747 1.965602 0.183443 0
M  V30 23 C 2.077404 -1.713190 -0.294312 0
M  V30 24 C 1.354224 -2.599871 0.483691 0
M  V30 25 C 1.115605 -3.943170 -0.041302 0
M  V30 26 O 1.462278 -5.124678 0.201342 0
M  V30 27 N 0.203826 -3.879161 -1.176840 0
M  V30 28 C -0.302597 -4.987878 -1.991716 0
M  V30 29 C -0.408630 -2.673853 -1.750512 0
M  V30 30 H -0.999946 -2.230338 4.375868 0
M  V30 31 H -0.337822 -0.870215 3.451109 0
M  V30 32 H 0.776512 -1.809015 4.484320 0
M  V30 33 H -0.706717 -3.138357 2.206914 0
M  V30 34 H 2.067031 -3.895576 2.586744 0
M  V30 35 H 1.351846 -3.705593 4.209535 0
M  V30 36 H 0.545224 -4.833433 3.086281 0
M  V30 37 H 1.208264 -0.117198 2.413194 0
M  V30 38 H 4.661456 3.289065 -0.086376 0
M  V30 39 H 2.534563 5.266316 -0.171454 0
M  V30 40 H 0.025761 5.380115 -0.099923 0
M  V30 41 H -2.043760 2.064713 0.547873 0
M  V30 42 H -2.364175 1.816089 -1.635587 0
M  V30 43 H -1.343649 0.293476 -1.706877 0
M  V30 44 H -3.979104 0.176423 -2.198958 0
M  V30 45 H -3.313600 -1.052959 -1.103057 0
M  V30 46 H -4.216104 -1.152445 0.830072 0
M  V30 47 H -4.504122 0.349645 1.774385 0
M  V30 48 H -1.991603 -1.007343 0.848783 0
M  V30 49 H -2.245917 0.186398 2.229041 0
M  V30 50 H 2.591862 -1.700006 -1.247238 0
M  V30 51 H 0.154678 -5.940391 -1.703853 0
M  V30 52 H -0.115693 -4.822537 -3.070195 0
M  V30 53 H -1.407801 -5.023611 -1.758608 0
M  V30 54 H -0.018299 -2.492138 -2.785082 0
M  V30 55 H -0.226186 -1.771088 -1.104336 0
M  V30 56 H -1.494557 -2.781692 -1.804097 0
M  V30 END ATOM
M  V30 BEGIN BOND
M  V30 1 1 1 2
M  V30 2 1 2 3
M  V30 3 1 2 4
M  V30 4 1 4 5
M  V30 5 2 5 6
M  V30 6 1 6 7
M  V30 7 2 7 8
M  V30 8 1 8 9
M  V30 9 1 9 10
M  V30 10 2 10 11
M  V30 11 1 11 12
M  V30 12 2 12 13
M  V30 13 1 13 14
M  V30 14 1 14 15
M  V30 15 1 15 16
M  V30 16 1 16 17
M  V30 17 1 17 18
M  V30 18 1 18 19
M  V30 19 1 19 20
M  V30 20 1 20 21
M  V30 21 2 14 22
M  V30 22 1 6 23
M  V30 23 2 23 24
M  V30 24 1 24 25
M  V30 25 2 25 26
M  V30 26 1 25 27
M  V30 27 1 27 28
M  V30 28 1 27 29
M  V30 29 1 24 4
M  V30 30 1 22 7
M  V30 31 1 22 10
M  V30 32 1 21 16
M  V30 33 1 1 30
M  V30 34 1 1 31
M  V30 35 1 1 32
M  V30 36 1 2 33
M  V30 37 1 3 34
M  V30 38 1 3 35
M  V30 39 1 3 36
M  V30 40 1 5 37
M  V30 41 1 9 38
M  V30 42 1 11 39
M  V30 43 1 12 40
M  V30 44 1 16 41
M  V30 45 1 17 42
M  V30 46 1 17 43
M  V30 47 1 18 44
M  V30 48 1 18 45
M  V30 49 1 20 46
M  V30 50 1 20 47
M  V30 51 1 21 48
M  V30 52 1 21 49
M  V30 53 1 23 50
M  V30 54 1 28 51
M  V30 55 1 28 52
M  V30 56 1 28 53
M  V30 57 1 29 54
M  V30 58 1 29 55
M  V30 59 1 29 56
M  V30 END BOND
M  V30 END CTAB
M  END
>  <Dataset>  (852) 
ChEMBL_Kinases

>  <Ligand_Instance>  (852) 
nan

>  <PDB_ID>  (852) 
nan

>  <Standardized_SMILES>  (852) 
CC(C)n1cc(-c2n[nH]c3ccnc(OC4CCOCC4)c23)cc1C(=O)N(C)C

>  <Name>  (852) 
nan

>  <Pocket>  (852) 
nan

>  <ATP_Site>  (852) 
nan

>  <Peripheral>  (852) 
nan

>  <Num_H_Atoms_ProtBoundConf>  (852) 
nan

>  <Num_Resolved_Atoms>  (852) 
nan

>  <Num_Not_Resolved_Atoms>  (852) 
nan

$$$$
CHEMBL3651745
     RDKit          3D

  0  0  0  0  0  0  0  0  0  0999 V3000
M  V30 BEGIN CTAB
M  V30 COUNTS 61 65 0 0 0
M  V30 BEGIN ATOM
M  V30 1 C -0.390182 -1.317372 4.454268 0
M  V30 2 C 0.779077 -2.028088 3.796984 0
M  V30 3 C 1.972438 -2.101706 4.725928 0
M  V30 4 N 1.143638 -1.391672 2.546408 0
M  V30 5 C 1.700670 -0.179187 2.378880 0
M  V30 6 C 1.896653 0.073804 1.024468 0
M  V30 7 C 2.494396 1.306883 0.533972 0
M  V30 8 N 3.640616 1.806070 1.085304 0
M  V30 9 N 3.987354 2.930014 0.477618 0
M  V30 10 C 3.113209 3.241610 -0.493530 0
M  V30 11 C 2.921876 4.231596 -1.435568 0
M  V30 12 C 1.824212 4.181948 -2.299538 0
M  V30 13 N 0.932645 3.153916 -2.218025 0
M  V30 14 C 1.108008 2.181511 -1.302776 0
M  V30 15 O 0.175917 1.172346 -1.266524 0
M  V30 16 C -0.915535 1.181036 -2.167311 0
M  V30 17 C -0.966106 -0.087301 -2.981308 0
M  V30 18 C -2.421689 -0.397071 -3.260042 0
M  V30 19 O -3.192778 0.712699 -3.509117 0
M  V30 20 C -3.266738 1.629780 -2.483325 0
M  V30 21 C -2.238052 1.296989 -1.431908 0
M  V30 22 C 2.187287 2.222558 -0.448080 0
M  V30 23 C 1.435648 -1.039825 0.352338 0
M  V30 24 C 0.985834 -1.906427 1.321731 0
M  V30 25 C 0.428407 -3.195567 0.940866 0
M  V30 26 O 1.339735 -4.000151 0.558809 0
M  V30 27 N -0.804295 -3.887037 0.843433 0
M  V30 28 C -0.690419 -5.247624 0.358686 0
M  V30 29 C -1.535029 -6.119465 1.274167 0
M  V30 30 O -1.916217 -5.462828 2.434244 0
M  V30 31 C -2.728867 -4.359047 2.179218 0
M  V30 32 C -2.143325 -3.411146 1.163177 0
M  V30 33 H -0.809587 -0.561948 3.750377 0
M  V30 34 H -0.051621 -0.787886 5.346150 0
M  V30 35 H -1.215959 -2.010823 4.733386 0
M  V30 36 H 0.452710 -3.069563 3.598879 0
M  V30 37 H 2.626053 -2.965477 4.449694 0
M  V30 38 H 1.608156 -2.286071 5.767766 0
M  V30 39 H 2.603780 -1.201256 4.641477 0
M  V30 40 H 1.954206 0.491908 3.185266 0
M  V30 41 H 4.819055 3.541238 0.680342 0
M  V30 42 H 3.649046 5.027437 -1.467746 0
M  V30 43 H 1.746665 5.003738 -3.016140 0
M  V30 44 H -0.807488 2.064552 -2.865801 0
M  V30 45 H -0.570896 -0.909675 -2.341593 0
M  V30 46 H -0.376906 -0.000998 -3.920204 0
M  V30 47 H -2.524003 -1.055873 -4.163977 0
M  V30 48 H -2.879702 -1.018826 -2.441264 0
M  V30 49 H -4.284057 1.769730 -2.080747 0
M  V30 50 H -2.918375 2.607380 -2.935711 0
M  V30 51 H -2.502980 0.319073 -0.987864 0
M  V30 52 H -2.191260 2.067992 -0.632865 0
M  V30 53 H 1.449967 -1.163971 -0.729456 0
M  V30 54 H 0.333564 -5.609646 0.264516 0
M  V30 55 H -1.177526 -5.308540 -0.650604 0
M  V30 56 H -2.425745 -6.552254 0.751232 0
M  V30 57 H -0.905214 -6.980111 1.570831 0
M  V30 58 H -2.829176 -3.804542 3.142872 0
M  V30 59 H -3.755220 -4.652412 1.874920 0
M  V30 60 H -2.774598 -3.442381 0.245518 0
M  V30 61 H -2.129092 -2.362657 1.512731 0
M  V30 END ATOM
M  V30 BEGIN BOND
M  V30 1 1 1 2
M  V30 2 1 2 3
M  V30 3 1 2 4
M  V30 4 1 4 5
M  V30 5 2 5 6
M  V30 6 1 6 7
M  V30 7 2 7 8
M  V30 8 1 8 9
M  V30 9 1 9 10
M  V30 10 2 10 11
M  V30 11 1 11 12
M  V30 12 2 12 13
M  V30 13 1 13 14
M  V30 14 1 14 15
M  V30 15 1 15 16
M  V30 16 1 16 17
M  V30 17 1 17 18
M  V30 18 1 18 19
M  V30 19 1 19 20
M  V30 20 1 20 21
M  V30 21 2 14 22
M  V30 22 1 6 23
M  V30 23 2 23 24
M  V30 24 1 24 25
M  V30 25 2 25 26
M  V30 26 1 25 27
M  V30 27 1 27 28
M  V30 28 1 28 29
M  V30 29 1 29 30
M  V30 30 1 30 31
M  V30 31 1 31 32
M  V30 32 1 24 4
M  V30 33 1 32 27
M  V30 34 1 22 7
M  V30 35 1 22 10
M  V30 36 1 21 16
M  V30 37 1 1 33
M  V30 38 1 1 34
M  V30 39 1 1 35
M  V30 40 1 2 36
M  V30 41 1 3 37
M  V30 42 1 3 38
M  V30 43 1 3 39
M  V30 44 1 5 40
M  V30 45 1 9 41
M  V30 46 1 11 42
M  V30 47 1 12 43
M  V30 48 1 16 44
M  V30 49 1 17 45
M  V30 50 1 17 46
M  V30 51 1 18 47
M  V30 52 1 18 48
M  V30 53 1 20 49
M  V30 54 1 20 50
M  V30 55 1 21 51
M  V30 56 1 21 52
M  V30 57 1 23 53
M  V30 58 1 28 54
M  V30 59 1 28 55
M  V30 60 1 29 56
M  V30 61 1 29 57
M  V30 62 1 31 58
M  V30 63 1 31 59
M  V30 64 1 32 60
M  V30 65 1 32 61
M  V30 END BOND
M  V30 END CTAB
M  END
>  <Dataset>  (853) 
ChEMBL_Kinases

>  <Ligand_Instance>  (853) 
nan

>  <PDB_ID>  (853) 
nan

>  <Standardized_SMILES>  (853) 
CC(C)n1cc(-c2n[nH]c3ccnc(OC4CCOCC4)c23)cc1C(=O)N1CCOCC1

>  <Name>  (853) 
nan

>  <Pocket>  (853) 
nan

>  <ATP_Site>  (853) 
nan

>  <Peripheral>  (853) 
nan

>  <Num_H_Atoms_ProtBoundConf>  (853) 
nan

>  <Num_Resolved_Atoms>  (853) 
nan

>  <Num_Not_Resolved_Atoms>  (853) 
nan

$$$$
CHEMBL3651744
     RDKit          3D

  0  0  0  0  0  0  0  0  0  0999 V3000
M  V30 BEGIN CTAB
M  V30 COUNTS 47 50 0 0 0
M  V30 BEGIN ATOM
M  V30 1 C 2.273016 -3.523042 1.384674 0
M  V30 2 O 1.397381 -2.928534 0.446653 0
M  V30 3 C 1.193839 -3.447118 -0.823369 0
M  V30 4 N 1.838489 -4.569191 -1.227430 0
M  V30 5 C 1.670388 -5.105774 -2.447804 0
M  V30 6 C 0.816412 -4.529847 -3.368158 0
M  V30 7 C 0.140782 -3.385402 -2.995245 0
M  V30 8 N -0.746071 -2.549065 -3.564247 0
M  V30 9 N -1.075270 -1.585644 -2.731150 0
M  V30 10 C -0.413763 -1.732787 -1.544755 0
M  V30 11 C -0.611726 -0.787879 -0.450761 0
M  V30 12 C 0.227608 -0.107171 0.406796 0
M  V30 13 C -0.498655 0.672377 1.282089 0
M  V30 14 C 0.055634 1.528002 2.328612 0
M  V30 15 O -0.637495 2.210761 3.091736 0
M  V30 16 N 1.446772 1.612357 2.516494 0
M  V30 17 C 2.053620 2.421360 3.511261 0
M  V30 18 C 2.998960 3.405704 2.815443 0
M  V30 19 O 4.072123 2.508499 2.998656 0
M  V30 20 C 3.358262 2.017980 4.088422 0
M  V30 21 N -1.791085 0.481456 0.974348 0
M  V30 22 C -2.890602 1.106052 1.642666 0
M  V30 23 C -3.063354 0.643971 3.062272 0
M  V30 24 C -4.198667 0.873398 0.905536 0
M  V30 25 C -1.891942 -0.381487 -0.051929 0
M  V30 26 C 0.344479 -2.869983 -1.732473 0
M  V30 27 H 2.790251 -4.362454 0.866553 0
M  V30 28 H 3.014165 -2.790369 1.765025 0
M  V30 29 H 1.676962 -3.969231 2.224015 0
M  V30 30 H 2.220823 -6.008406 -2.704283 0
M  V30 31 H 0.654645 -4.932017 -4.359784 0
M  V30 32 H -1.106134 -2.677676 -4.544004 0
M  V30 33 H 1.292279 -0.209980 0.347342 0
M  V30 34 H 2.128799 1.068384 1.916703 0
M  V30 35 H 1.384755 3.012673 4.168028 0
M  V30 36 H 2.830051 3.545992 1.744986 0
M  V30 37 H 3.118015 4.378322 3.325741 0
M  V30 38 H 3.510416 0.959457 4.332842 0
M  V30 39 H 3.592494 2.632524 4.983424 0
M  V30 40 H -2.713314 2.219176 1.610272 0
M  V30 41 H -3.209767 1.490692 3.758150 0
M  V30 42 H -2.225368 -0.016489 3.391478 0
M  V30 43 H -3.971064 -0.020719 3.148554 0
M  V30 44 H -4.976384 1.583420 1.242151 0
M  V30 45 H -4.079110 1.031646 -0.178439 0
M  V30 46 H -4.579094 -0.151896 1.060169 0
M  V30 47 H -2.832469 -0.706312 -0.495664 0
M  V30 END ATOM
M  V30 BEGIN BOND
M  V30 1 1 1 2
M  V30 2 1 2 3
M  V30 3 2 3 4
M  V30 4 1 4 5
M  V30 5 2 5 6
M  V30 6 1 6 7
M  V30 7 1 7 8
M  V30 8 1 8 9
M  V30 9 2 9 10
M  V30 10 1 10 11
M  V30 11 1 11 12
M  V30 12 2 12 13
M  V30 13 1 13 14
M  V30 14 2 14 15
M  V30 15 1 14 16
M  V30 16 1 16 17
M  V30 17 1 17 18
M  V30 18 1 18 19
M  V30 19 1 19 20
M  V30 20 1 13 21
M  V30 21 1 21 22
M  V30 22 1 22 23
M  V30 23 1 22 24
M  V30 24 1 21 25
M  V30 25 1 10 26
M  V30 26 1 26 3
M  V30 27 2 26 7
M  V30 28 2 25 11
M  V30 29 1 20 17
M  V30 30 1 1 27
M  V30 31 1 1 28
M  V30 32 1 1 29
M  V30 33 1 5 30
M  V30 34 1 6 31
M  V30 35 1 8 32
M  V30 36 1 12 33
M  V30 37 1 16 34
M  V30 38 1 17 35
M  V30 39 1 18 36
M  V30 40 1 18 37
M  V30 41 1 20 38
M  V30 42 1 20 39
M  V30 43 1 22 40
M  V30 44 1 23 41
M  V30 45 1 23 42
M  V30 46 1 23 43
M  V30 47 1 24 44
M  V30 48 1 24 45
M  V30 49 1 24 46
M  V30 50 1 25 47
M  V30 END BOND
M  V30 END CTAB
M  END
>  <Dataset>  (854) 
ChEMBL_Kinases

>  <Ligand_Instance>  (854) 
nan

>  <PDB_ID>  (854) 
nan

>  <Standardized_SMILES>  (854) 
COc1nccc2[nH]nc(-c3cc(C(=O)NC4COC4)n(C(C)C)c3)c12

>  <Name>  (854) 
nan

>  <Pocket>  (854) 
nan

>  <ATP_Site>  (854) 
nan

>  <Peripheral>  (854) 
nan

>  <Num_H_Atoms_ProtBoundConf>  (854) 
nan

>  <Num_Resolved_Atoms>  (854) 
nan

>  <Num_Not_Resolved_Atoms>  (854) 
nan

$$$$
CHEMBL3651743
     RDKit          3D

  0  0  0  0  0  0  0  0  0  0999 V3000
M  V30 BEGIN CTAB
M  V30 COUNTS 45 47 0 0 0
M  V30 BEGIN ATOM
M  V30 1 C 0.365684 -3.745437 3.350754 0
M  V30 2 O 0.688507 -3.122026 2.109019 0
M  V30 3 C 1.706069 -3.700409 1.351477 0
M  V30 4 N 2.336484 -4.795588 1.803817 0
M  V30 5 C 3.320891 -5.370234 1.091592 0
M  V30 6 C 3.663066 -4.797209 -0.121550 0
M  V30 7 C 3.056055 -3.675458 -0.640957 0
M  V30 8 N 3.136703 -2.899212 -1.724961 0
M  V30 9 N 2.241677 -1.933811 -1.629498 0
M  V30 10 C 1.529138 -2.020048 -0.487823 0
M  V30 11 C 0.483648 -1.067689 -0.153340 0
M  V30 12 C 0.737017 0.300249 -0.325935 0
M  V30 13 C -0.404967 1.024760 0.049495 0
M  V30 14 C -0.498963 2.477032 -0.004501 0
M  V30 15 O -1.529289 3.113235 -0.396953 0
M  V30 16 N 0.431075 3.489962 0.328185 0
M  V30 17 C -0.100557 4.814969 0.113053 0
M  V30 18 C 1.766073 3.361621 0.826745 0
M  V30 19 N -1.308394 0.135758 0.432667 0
M  V30 20 C -2.613632 0.493258 0.886937 0
M  V30 21 C -2.560403 1.216723 2.214738 0
M  V30 22 C -3.571966 -0.655957 1.032407 0
M  V30 23 C -0.787124 -1.088940 0.313322 0
M  V30 24 C 2.043406 -3.128415 0.147084 0
M  V30 25 H 0.821727 -3.233774 4.222791 0
M  V30 26 H -0.730185 -3.877249 3.462626 0
M  V30 27 H 0.767642 -4.797915 3.372080 0
M  V30 28 H 3.878103 -6.263390 1.397254 0
M  V30 29 H 4.450446 -5.232585 -0.720934 0
M  V30 30 H 3.821562 -3.069937 -2.506272 0
M  V30 31 H 1.653544 0.790773 -0.689850 0
M  V30 32 H -0.719485 4.857807 -0.829577 0
M  V30 33 H 0.695720 5.576660 0.004071 0
M  V30 34 H -0.809916 5.055024 0.940450 0
M  V30 35 H 1.859046 2.441812 1.451252 0
M  V30 36 H 2.067283 4.224060 1.447662 0
M  V30 37 H 2.474593 3.206195 -0.035241 0
M  V30 38 H -3.070383 1.219520 0.164893 0
M  V30 39 H -3.579525 1.496701 2.553035 0
M  V30 40 H -1.968020 2.138996 2.132930 0
M  V30 41 H -2.036178 0.561963 2.935392 0
M  V30 42 H -3.245015 -1.601396 0.597893 0
M  V30 43 H -3.801607 -0.855383 2.117613 0
M  V30 44 H -4.575189 -0.394417 0.599768 0
M  V30 45 H -1.255528 -2.043601 0.536536 0
M  V30 END ATOM
M  V30 BEGIN BOND
M  V30 1 1 1 2
M  V30 2 1 2 3
M  V30 3 2 3 4
M  V30 4 1 4 5
M  V30 5 2 5 6
M  V30 6 1 6 7
M  V30 7 1 7 8
M  V30 8 1 8 9
M  V30 9 2 9 10
M  V30 10 1 10 11
M  V30 11 1 11 12
M  V30 12 2 12 13
M  V30 13 1 13 14
M  V30 14 2 14 15
M  V30 15 1 14 16
M  V30 16 1 16 17
M  V30 17 1 16 18
M  V30 18 1 13 19
M  V30 19 1 19 20
M  V30 20 1 20 21
M  V30 21 1 20 22
M  V30 22 1 19 23
M  V30 23 1 10 24
M  V30 24 1 24 3
M  V30 25 2 24 7
M  V30 26 2 23 11
M  V30 27 1 1 25
M  V30 28 1 1 26
M  V30 29 1 1 27
M  V30 30 1 5 28
M  V30 31 1 6 29
M  V30 32 1 8 30
M  V30 33 1 12 31
M  V30 34 1 17 32
M  V30 35 1 17 33
M  V30 36 1 17 34
M  V30 37 1 18 35
M  V30 38 1 18 36
M  V30 39 1 18 37
M  V30 40 1 20 38
M  V30 41 1 21 39
M  V30 42 1 21 40
M  V30 43 1 21 41
M  V30 44 1 22 42
M  V30 45 1 22 43
M  V30 46 1 22 44
M  V30 47 1 23 45
M  V30 END BOND
M  V30 END CTAB
M  END
>  <Dataset>  (855) 
ChEMBL_Kinases

>  <Ligand_Instance>  (855) 
nan

>  <PDB_ID>  (855) 
nan

>  <Standardized_SMILES>  (855) 
COc1nccc2[nH]nc(-c3cc(C(=O)N(C)C)n(C(C)C)c3)c12

>  <Name>  (855) 
nan

>  <Pocket>  (855) 
nan

>  <ATP_Site>  (855) 
nan

>  <Peripheral>  (855) 
nan

>  <Num_H_Atoms_ProtBoundConf>  (855) 
nan

>  <Num_Resolved_Atoms>  (855) 
nan

>  <Num_Not_Resolved_Atoms>  (855) 
nan

$$$$
CHEMBL3651791
     RDKit          3D

  0  0  0  0  0  0  0  0  0  0999 V3000
M  V30 BEGIN CTAB
M  V30 COUNTS 44 48 0 0 0
M  V30 BEGIN ATOM
M  V30 1 C -3.523724 -4.159258 -0.386129 0
M  V30 2 C -3.045177 -4.761759 0.753233 0
M  V30 3 C -1.805139 -4.364779 1.255425 0
M  V30 4 C -1.121470 -3.377861 0.571288 0
M  V30 5 N 0.077194 -2.961702 1.015743 0
M  V30 6 C 0.806950 -2.009898 0.412561 0
M  V30 7 C 0.386486 -1.380137 -0.712953 0
M  V30 8 C 1.019766 -0.328553 -1.490192 0
M  V30 9 N 1.120362 -0.452421 -2.846983 0
M  V30 10 N 1.718577 0.606380 -3.364574 0
M  V30 11 C 2.044479 1.478740 -2.407563 0
M  V30 12 C 2.658448 2.714317 -2.350637 0
M  V30 13 C 2.789415 3.281301 -1.100845 0
M  V30 14 N 2.353556 2.690993 0.027210 0
M  V30 15 C 1.752285 1.486607 -0.004239 0
M  V30 16 O 1.318503 0.910459 1.149752 0
M  V30 17 C 1.412904 1.418749 2.437660 0
M  V30 18 C 2.267776 0.621732 3.377936 0
M  V30 19 C 1.607351 -0.543443 4.017699 0
M  V30 20 O 0.240315 -0.550720 3.964291 0
M  V30 21 C -0.377374 0.667257 4.052857 0
M  V30 22 C 0.073933 1.703802 3.075431 0
M  V30 23 C 1.605980 0.891288 -1.238446 0
M  V30 24 C -0.862944 -1.811749 -1.179575 0
M  V30 25 C -1.614001 -2.784738 -0.567587 0
M  V30 26 C -2.833400 -3.174974 -1.061600 0
M  V30 27 H -4.501480 -4.485379 -0.765701 0
M  V30 28 H -3.540179 -5.527484 1.312587 0
M  V30 29 H -1.323136 -4.762462 2.141297 0
M  V30 30 H 1.760398 -1.716875 0.794679 0
M  V30 31 H 1.918045 0.756537 -4.387739 0
M  V30 32 H 3.002408 3.173639 -3.268688 0
M  V30 33 H 3.282949 4.261977 -1.104830 0
M  V30 34 H 1.925758 2.412726 2.331116 0
M  V30 35 H 3.181779 0.270835 2.856867 0
M  V30 36 H 2.624314 1.320042 4.175736 0
M  V30 37 H 1.970318 -0.639493 5.079361 0
M  V30 38 H 1.953280 -1.493867 3.537867 0
M  V30 39 H -0.358375 1.009893 5.112108 0
M  V30 40 H -1.470588 0.473094 3.846588 0
M  V30 41 H -0.677303 1.848246 2.245304 0
M  V30 42 H 0.072776 2.682704 3.608720 0
M  V30 43 H -1.297569 -1.371901 -2.079844 0
M  V30 44 H -3.196560 -2.692682 -1.957603 0
M  V30 END ATOM
M  V30 BEGIN BOND
M  V30 1 2 1 2
M  V30 2 1 2 3
M  V30 3 2 3 4
M  V30 4 1 4 5
M  V30 5 2 5 6
M  V30 6 1 6 7
M  V30 7 1 7 8
M  V30 8 2 8 9
M  V30 9 1 9 10
M  V30 10 1 10 11
M  V30 11 2 11 12
M  V30 12 1 12 13
M  V30 13 2 13 14
M  V30 14 1 14 15
M  V30 15 1 15 16
M  V30 16 1 16 17
M  V30 17 1 17 18
M  V30 18 1 18 19
M  V30 19 1 19 20
M  V30 20 1 20 21
M  V30 21 1 21 22
M  V30 22 2 15 23
M  V30 23 2 7 24
M  V30 24 1 24 25
M  V30 25 2 25 26
M  V30 26 1 26 1
M  V30 27 1 25 4
M  V30 28 1 23 8
M  V30 29 1 23 11
M  V30 30 1 22 17
M  V30 31 1 1 27
M  V30 32 1 2 28
M  V30 33 1 3 29
M  V30 34 1 6 30
M  V30 35 1 10 31
M  V30 36 1 12 32
M  V30 37 1 13 33
M  V30 38 1 17 34
M  V30 39 1 18 35
M  V30 40 1 18 36
M  V30 41 1 19 37
M  V30 42 1 19 38
M  V30 43 1 21 39
M  V30 44 1 21 40
M  V30 45 1 22 41
M  V30 46 1 22 42
M  V30 47 1 24 43
M  V30 48 1 26 44
M  V30 END BOND
M  V30 END CTAB
M  END
>  <Dataset>  (856) 
ChEMBL_Kinases

>  <Ligand_Instance>  (856) 
nan

>  <PDB_ID>  (856) 
nan

>  <Standardized_SMILES>  (856) 
c1ccc2ncc(-c3n[nH]c4ccnc(OC5CCOCC5)c34)cc2c1

>  <Name>  (856) 
nan

>  <Pocket>  (856) 
nan

>  <ATP_Site>  (856) 
nan

>  <Peripheral>  (856) 
nan

>  <Num_H_Atoms_ProtBoundConf>  (856) 
nan

>  <Num_Resolved_Atoms>  (856) 
nan

>  <Num_Not_Resolved_Atoms>  (856) 
nan

$$$$
CHEMBL3651192
     RDKit          3D

  0  0  0  0  0  0  0  0  0  0999 V3000
M  V30 BEGIN CTAB
M  V30 COUNTS 76 81 0 0 0
M  V30 BEGIN ATOM
M  V30 1 C 3.260421 -4.361246 -0.283417 0
M  V30 2 O 2.895798 -3.196977 -0.961208 0
M  V30 3 C 3.507944 -2.751673 -2.158805 0
M  V30 4 C 4.498008 -3.538879 -2.627471 0
M  V30 5 C 5.014085 -2.997872 -3.811090 0
M  V30 6 C 4.579220 -1.835631 -4.409149 0
M  V30 7 C 3.532921 -1.162654 -3.754483 0
M  V30 8 F 3.147017 -0.022238 -4.393738 0
M  V30 9 C 2.912872 -1.587623 -2.555223 0
M  V30 10 C 1.860516 -0.758897 -1.992536 0
M  V30 11 N 2.118898 0.171265 -0.993808 0
M  V30 12 C 0.901755 0.882344 -0.607755 0
M  V30 13 C 0.045322 0.010486 0.272309 0 CFG=2
M  V30 14 N -0.956259 0.829837 0.893395 0
M  V30 15 C -2.366416 0.547179 0.769871 0
M  V30 16 O -2.640079 -0.472383 0.097807 0
M  V30 17 C -3.413314 1.382935 1.384211 0
M  V30 18 C -3.147807 2.631375 1.956644 0
M  V30 19 C -4.204718 3.328176 2.493891 0
M  V30 20 C -5.494055 2.857386 2.494448 0
M  V30 21 N -6.730974 3.227380 2.900028 0
M  V30 22 N -7.633475 2.305894 2.605676 0
M  V30 23 C -7.053763 1.261863 1.985956 0
M  V30 24 C -7.826508 0.102116 1.563253 0
M  V30 25 C -8.759224 -0.364684 2.478775 0
M  V30 26 C -9.598294 -1.473373 2.283465 0
M  V30 27 N -9.427925 -2.073018 1.102401 0
M  V30 28 C -8.539833 -1.658260 0.188253 0
M  V30 29 C -8.476979 -2.455478 -1.062255 0
M  V30 30 C -7.719290 -0.576483 0.375289 0
M  V30 31 C -5.728982 1.629757 1.927866 0
M  V30 32 C -4.694034 0.873607 1.362903 0
M  V30 33 C 0.794280 -0.916563 1.157921 0
M  V30 34 C 2.266545 -0.811696 1.228814 0
M  V30 35 C 2.881504 -0.026853 0.147446 0 CFG=1
M  V30 36 C 4.332453 -0.345898 -0.071276 0
M  V30 37 O 5.288597 -0.469634 -0.868363 0
M  V30 38 N 4.955941 -0.655696 1.170521 0
M  V30 39 C 6.366274 -0.970814 1.064053 0
M  V30 40 C 7.141844 0.182639 1.199459 0
M  V30 41 C 8.490550 -0.106077 1.092506 0
M  V30 42 N 9.090898 -1.269078 0.889318 0
M  V30 43 C 8.304944 -2.365295 0.762097 0
M  V30 44 C 6.926065 -2.220099 0.850266 0
M  V30 45 H 2.833732 -5.234719 -0.845861 0
M  V30 46 H 4.345916 -4.501229 -0.178206 0
M  V30 47 H 2.814398 -4.414009 0.738085 0
M  V30 48 H 4.827837 -4.436074 -2.159986 0
M  V30 49 H 5.830569 -3.530265 -4.311854 0
M  V30 50 H 5.013433 -1.465603 -5.328602 0
M  V30 51 H 0.969948 -1.439247 -1.748694 0
M  V30 52 H 1.414698 -0.177586 -2.870465 0
M  V30 53 H 1.231616 1.781853 -0.053459 0
M  V30 54 H 0.368482 1.238052 -1.507960 0
M  V30 55 H -0.534214 -0.665365 -0.439980 0
M  V30 56 H -0.679709 1.669765 1.461411 0
M  V30 57 H -2.133098 3.004051 1.957896 0
M  V30 58 H -4.057512 4.308637 2.947751 0
M  V30 59 H -6.868806 4.151257 3.377276 0
M  V30 60 H -8.887553 0.135757 3.435219 0
M  V30 61 H -10.290533 -1.769023 3.040584 0
M  V30 62 H -9.218937 -2.069942 -1.784810 0
M  V30 63 H -8.689041 -3.522910 -0.804301 0
M  V30 64 H -7.446975 -2.461444 -1.472434 0
M  V30 65 H -7.011295 -0.219777 -0.328794 0
M  V30 66 H -4.892583 -0.101954 0.913615 0
M  V30 67 H 0.396117 -0.706644 2.206582 0
M  V30 68 H 0.446945 -2.001074 1.022212 0
M  V30 69 H 2.608079 -0.355538 2.226031 0
M  V30 70 H 2.668340 -1.850496 1.334109 0
M  V30 71 H 2.982735 1.044594 0.611088 0
M  V30 72 H 4.653033 -0.726483 2.193444 0
M  V30 73 H 6.829125 1.197631 1.370690 0
M  V30 74 H 9.217127 0.714743 1.180857 0
M  V30 75 H 8.625588 -3.376860 0.589788 0
M  V30 76 H 6.162395 -2.979089 0.767958 0
M  V30 END ATOM
M  V30 BEGIN BOND
M  V30 1 1 1 2
M  V30 2 1 2 3
M  V30 3 2 3 4
M  V30 4 1 4 5
M  V30 5 2 5 6
M  V30 6 1 6 7
M  V30 7 1 7 8
M  V30 8 2 7 9
M  V30 9 1 9 10
M  V30 10 1 10 11
M  V30 11 1 11 12
M  V30 12 1 12 13
M  V30 13 1 13 14
M  V30 14 1 14 15
M  V30 15 2 15 16
M  V30 16 1 15 17
M  V30 17 2 17 18
M  V30 18 1 18 19
M  V30 19 2 19 20
M  V30 20 1 20 21
M  V30 21 1 21 22
M  V30 22 2 22 23
M  V30 23 1 23 24
M  V30 24 2 24 25
M  V30 25 1 25 26
M  V30 26 2 26 27
M  V30 27 1 27 28
M  V30 28 1 28 29
M  V30 29 2 28 30
M  V30 30 1 23 31
M  V30 31 2 31 32
M  V30 32 1 13 33
M  V30 33 1 33 34
M  V30 34 1 34 35
M  V30 35 1 35 36
M  V30 36 2 36 37
M  V30 37 1 36 38
M  V30 38 1 38 39
M  V30 39 2 39 40
M  V30 40 1 40 41
M  V30 41 2 41 42
M  V30 42 1 42 43
M  V30 43 2 43 44
M  V30 44 1 9 3
M  V30 45 1 35 11
M  V30 46 1 44 39
M  V30 47 1 32 17
M  V30 48 1 31 20
M  V30 49 1 30 24
M  V30 50 1 1 45
M  V30 51 1 1 46
M  V30 52 1 1 47
M  V30 53 1 4 48
M  V30 54 1 5 49
M  V30 55 1 6 50
M  V30 56 1 10 51
M  V30 57 1 10 52
M  V30 58 1 12 53
M  V30 59 1 12 54
M  V30 60 1 13 55 CFG=3
M  V30 61 1 14 56
M  V30 62 1 18 57
M  V30 63 1 19 58
M  V30 64 1 21 59
M  V30 65 1 25 60
M  V30 66 1 26 61
M  V30 67 1 29 62
M  V30 68 1 29 63
M  V30 69 1 29 64
M  V30 70 1 30 65
M  V30 71 1 32 66
M  V30 72 1 33 67
M  V30 73 1 33 68
M  V30 74 1 34 69
M  V30 75 1 34 70
M  V30 76 1 35 71 CFG=1
M  V30 77 1 38 72
M  V30 78 1 40 73
M  V30 79 1 41 74
M  V30 80 1 43 75
M  V30 81 1 44 76
M  V30 END BOND
M  V30 END CTAB
M  END
>  <Dataset>  (857) 
ChEMBL_Kinases

>  <Ligand_Instance>  (857) 
nan

>  <PDB_ID>  (857) 
nan

>  <Standardized_SMILES>  (857) 
COc1cccc(F)c1CN1C[C@H](NC(=O)c2ccc3[nH]nc(-c4ccnc(C)c4)c3c2)CC[C@H]1C(=O)Nc1ccncc1

>  <Name>  (857) 
nan

>  <Pocket>  (857) 
nan

>  <ATP_Site>  (857) 
nan

>  <Peripheral>  (857) 
nan

>  <Num_H_Atoms_ProtBoundConf>  (857) 
nan

>  <Num_Resolved_Atoms>  (857) 
nan

>  <Num_Not_Resolved_Atoms>  (857) 
nan

$$$$
CHEMBL3651193
     RDKit          3D

  0  0  0  0  0  0  0  0  0  0999 V3000
M  V30 BEGIN CTAB
M  V30 COUNTS 77 82 0 0 0
M  V30 BEGIN ATOM
M  V30 1 C 0.599293 -4.013295 0.932928 0
M  V30 2 O 1.507384 -2.973077 0.638027 0
M  V30 3 C 2.011188 -2.178929 1.653691 0
M  V30 4 C 1.680214 -2.344038 2.983913 0
M  V30 5 C 2.202153 -1.541182 3.986224 0
M  V30 6 C 3.077775 -0.561406 3.565085 0
M  V30 7 C 3.419672 -0.383653 2.231652 0
M  V30 8 F 4.304304 0.660601 2.077887 0
M  V30 9 C 2.882069 -1.202626 1.237567 0
M  V30 10 C 3.343530 -0.780686 -0.093793 0
M  V30 11 N 2.450535 0.214194 -0.638317 0
M  V30 12 C 1.113813 -0.297976 -0.701332 0
M  V30 13 C 0.107340 0.737839 -1.244007 0 CFG=2
M  V30 14 N -1.080075 -0.078841 -1.502219 0
M  V30 15 C -2.177966 -0.219932 -0.614146 0
M  V30 16 O -2.228742 0.363824 0.518587 0
M  V30 17 C -3.326429 -1.066001 -0.967883 0
M  V30 18 C -3.420809 -1.515576 -2.286687 0
M  V30 19 C -4.489916 -2.342272 -2.661966 0
M  V30 20 C -5.422547 -2.691237 -1.695355 0
M  V30 21 N -6.534216 -3.443960 -1.692163 0
M  V30 22 N -7.103898 -3.485417 -0.502928 0
M  V30 23 C -6.380949 -2.745210 0.356747 0
M  V30 24 C -6.700382 -2.573968 1.767799 0
M  V30 25 C -7.031107 -3.772654 2.401540 0
M  V30 26 C -7.372144 -3.907150 3.734929 0
M  V30 27 N -7.372917 -2.757835 4.450916 0
M  V30 28 C -7.056337 -1.563701 3.876161 0
M  V30 29 C -7.078643 -0.333217 4.705554 0
M  V30 30 C -6.717190 -1.446508 2.540416 0
M  V30 31 C -5.314053 -2.238685 -0.393535 0
M  V30 32 C -4.267251 -1.422370 -0.018090 0
M  V30 33 C 0.599189 1.444814 -2.439563 0
M  V30 34 C 2.015347 1.912488 -2.214363 0
M  V30 35 C 2.844644 0.631069 -1.965124 0 CFG=1
M  V30 36 C 4.264054 0.916392 -2.160348 0
M  V30 37 O 4.730005 0.662669 -3.325942 0
M  V30 38 N 5.221441 1.435317 -1.270895 0
M  V30 39 C 6.544080 1.553643 -1.862461 0
M  V30 40 C 7.541442 2.125630 -0.905299 0
M  V30 41 C 7.391437 3.457073 -0.310934 0
M  V30 42 C 8.367156 3.276164 -1.452001 0
M  V30 43 H 1.103482 -4.714171 1.666254 0
M  V30 44 H -0.276928 -3.613878 1.529104 0
M  V30 45 H 0.208458 -4.539684 0.059789 0
M  V30 46 H 0.988972 -3.140076 3.194776 0
M  V30 47 H 1.937500 -1.670242 5.022932 0
M  V30 48 H 3.462562 0.047869 4.394708 0
M  V30 49 H 3.225304 -1.676901 -0.804292 0
M  V30 50 H 4.407144 -0.557696 -0.153293 0
M  V30 51 H 0.702491 -0.521542 0.316630 0
M  V30 52 H 1.093729 -1.201099 -1.340425 0
M  V30 53 H -0.076930 1.408652 -0.403173 0
M  V30 54 H -1.009022 -0.542486 -2.423541 0
M  V30 55 H -2.754625 -1.296383 -3.079747 0
M  V30 56 H -4.647950 -2.732116 -3.660688 0
M  V30 57 H -6.920762 -3.946322 -2.521003 0
M  V30 58 H -7.052821 -4.741120 1.873821 0
M  V30 59 H -7.618451 -4.850047 4.194031 0
M  V30 60 H -8.012059 0.219125 4.507816 0
M  V30 61 H -6.239979 0.367528 4.472670 0
M  V30 62 H -7.064364 -0.638031 5.781796 0
M  V30 63 H -6.457808 -0.545480 2.023972 0
M  V30 64 H -4.170647 -1.066154 1.004548 0
M  V30 65 H -0.064347 2.306217 -2.649391 0
M  V30 66 H 0.655324 0.756373 -3.330404 0
M  V30 67 H 2.095738 2.611586 -1.360775 0
M  V30 68 H 2.381395 2.448913 -3.119016 0
M  V30 69 H 2.488518 -0.117623 -2.682860 0
M  V30 70 H 4.901863 1.681989 -0.332385 0
M  V30 71 H 6.903522 0.564077 -2.252272 0
M  V30 72 H 6.420064 2.176755 -2.784412 0
M  V30 73 H 8.141029 1.359989 -0.340180 0
M  V30 74 H 6.516052 4.105520 -0.462323 0
M  V30 75 H 7.895658 3.615184 0.680957 0
M  V30 76 H 8.091107 3.719507 -2.415388 0
M  V30 77 H 9.466026 3.298464 -1.242833 0
M  V30 END ATOM
M  V30 BEGIN BOND
M  V30 1 1 1 2
M  V30 2 1 2 3
M  V30 3 2 3 4
M  V30 4 1 4 5
M  V30 5 2 5 6
M  V30 6 1 6 7
M  V30 7 1 7 8
M  V30 8 2 7 9
M  V30 9 1 9 10
M  V30 10 1 10 11
M  V30 11 1 11 12
M  V30 12 1 12 13
M  V30 13 1 13 14
M  V30 14 1 14 15
M  V30 15 2 15 16
M  V30 16 1 15 17
M  V30 17 2 17 18
M  V30 18 1 18 19
M  V30 19 2 19 20
M  V30 20 1 20 21
M  V30 21 1 21 22
M  V30 22 2 22 23
M  V30 23 1 23 24
M  V30 24 2 24 25
M  V30 25 1 25 26
M  V30 26 2 26 27
M  V30 27 1 27 28
M  V30 28 1 28 29
M  V30 29 2 28 30
M  V30 30 1 23 31
M  V30 31 2 31 32
M  V30 32 1 13 33
M  V30 33 1 33 34
M  V30 34 1 34 35
M  V30 35 1 35 36
M  V30 36 2 36 37
M  V30 37 1 36 38
M  V30 38 1 38 39
M  V30 39 1 39 40
M  V30 40 1 40 41
M  V30 41 1 41 42
M  V30 42 1 9 3
M  V30 43 1 35 11
M  V30 44 1 42 40
M  V30 45 1 32 17
M  V30 46 1 31 20
M  V30 47 1 30 24
M  V30 48 1 1 43
M  V30 49 1 1 44
M  V30 50 1 1 45
M  V30 51 1 4 46
M  V30 52 1 5 47
M  V30 53 1 6 48
M  V30 54 1 10 49
M  V30 55 1 10 50
M  V30 56 1 12 51
M  V30 57 1 12 52
M  V30 58 1 13 53 CFG=1
M  V30 59 1 14 54
M  V30 60 1 18 55
M  V30 61 1 19 56
M  V30 62 1 21 57
M  V30 63 1 25 58
M  V30 64 1 26 59
M  V30 65 1 29 60
M  V30 66 1 29 61
M  V30 67 1 29 62
M  V30 68 1 30 63
M  V30 69 1 32 64
M  V30 70 1 33 65
M  V30 71 1 33 66
M  V30 72 1 34 67
M  V30 73 1 34 68
M  V30 74 1 35 69 CFG=3
M  V30 75 1 38 70
M  V30 76 1 39 71
M  V30 77 1 39 72
M  V30 78 1 40 73
M  V30 79 1 41 74
M  V30 80 1 41 75
M  V30 81 1 42 76
M  V30 82 1 42 77
M  V30 END BOND
M  V30 END CTAB
M  END
>  <Dataset>  (858) 
ChEMBL_Kinases

>  <Ligand_Instance>  (858) 
nan

>  <PDB_ID>  (858) 
nan

>  <Standardized_SMILES>  (858) 
COc1cccc(F)c1CN1C[C@H](NC(=O)c2ccc3[nH]nc(-c4ccnc(C)c4)c3c2)CC[C@H]1C(=O)NCC1CC1

>  <Name>  (858) 
nan

>  <Pocket>  (858) 
nan

>  <ATP_Site>  (858) 
nan

>  <Peripheral>  (858) 
nan

>  <Num_H_Atoms_ProtBoundConf>  (858) 
nan

>  <Num_Resolved_Atoms>  (858) 
nan

>  <Num_Not_Resolved_Atoms>  (858) 
nan

$$$$
CHEMBL365146
     RDKit          3D

  0  0  0  0  0  0  0  0  0  0999 V3000
M  V30 BEGIN CTAB
M  V30 COUNTS 43 46 0 0 0
M  V30 BEGIN ATOM
M  V30 1 C 0.305827 -4.645106 1.498733 0
M  V30 2 N 0.724102 -3.433356 0.827767 0
M  V30 3 C 0.298099 -3.443549 -0.528637 0
M  V30 4 C 1.413767 -3.092999 -1.501597 0
M  V30 5 N 1.995984 -1.846809 -0.983126 0
M  V30 6 C 2.017982 -0.471343 -1.422430 0
M  V30 7 N 2.890964 0.119843 -2.257909 0
M  V30 8 C 2.708524 1.425244 -2.526678 0
M  V30 9 C 1.640199 2.118116 -1.943805 0
M  V30 10 C 0.746869 1.493512 -1.082920 0
M  V30 11 C -0.347392 2.271327 -0.511916 0
M  V30 12 C -0.935587 3.254053 -1.368244 0
M  V30 13 N -1.413834 4.062040 -2.045752 0
M  V30 14 C -0.725164 2.030676 0.733709 0
M  V30 15 N -0.309255 1.146745 1.729476 0
M  V30 16 C -0.997913 1.221363 2.915459 0
M  V30 17 C -0.762810 0.434761 4.054187 0
M  V30 18 C -1.533564 0.611193 5.182735 0
M  V30 19 C -2.520162 1.545900 5.192878 0
M  V30 20 C -2.801432 2.348994 4.110856 0
M  V30 21 C -1.999142 2.127994 3.011486 0
M  V30 22 S -2.084024 2.997248 1.427464 0
M  V30 23 N 0.973201 0.190706 -0.847583 0
M  V30 24 C 2.710492 -2.097098 0.258882 0
M  V30 25 C 2.134992 -3.236455 1.036284 0
M  V30 26 H -0.800757 -4.747192 1.377474 0
M  V30 27 H 0.773545 -5.555901 1.073029 0
M  V30 28 H 0.522787 -4.548367 2.596927 0
M  V30 29 H -0.495232 -2.654392 -0.628862 0
M  V30 30 H -0.166012 -4.431654 -0.771253 0
M  V30 31 H 2.181291 -3.875422 -1.511732 0
M  V30 32 H 0.985926 -2.939392 -2.504457 0
M  V30 33 H 3.415913 1.888143 -3.198729 0
M  V30 34 H 1.515917 3.176470 -2.178842 0
M  V30 35 H 0.486287 0.525346 1.451662 0
M  V30 36 H -0.002873 -0.332491 4.142573 0
M  V30 37 H -1.385762 0.025981 6.082494 0
M  V30 38 H -3.127933 1.681573 6.089920 0
M  V30 39 H -3.582317 3.092328 4.110492 0
M  V30 40 H 2.851468 -1.203025 0.863541 0
M  V30 41 H 3.738552 -2.423188 -0.079555 0
M  V30 42 H 2.263144 -2.995948 2.121032 0
M  V30 43 H 2.670301 -4.195249 0.893760 0
M  V30 END ATOM
M  V30 BEGIN BOND
M  V30 1 1 1 2
M  V30 2 1 2 3
M  V30 3 1 3 4
M  V30 4 1 4 5
M  V30 5 1 5 6
M  V30 6 2 6 7
M  V30 7 1 7 8
M  V30 8 2 8 9
M  V30 9 1 9 10
M  V30 10 1 10 11
M  V30 11 1 11 12
M  V30 12 3 12 13
M  V30 13 2 11 14
M  V30 14 1 14 15
M  V30 15 1 15 16
M  V30 16 2 16 17
M  V30 17 1 17 18
M  V30 18 2 18 19
M  V30 19 1 19 20
M  V30 20 2 20 21
M  V30 21 1 21 22
M  V30 22 2 10 23
M  V30 23 1 5 24
M  V30 24 1 24 25
M  V30 25 1 25 2
M  V30 26 1 23 6
M  V30 27 1 22 14
M  V30 28 1 21 16
M  V30 29 1 1 26
M  V30 30 1 1 27
M  V30 31 1 1 28
M  V30 32 1 3 29
M  V30 33 1 3 30
M  V30 34 1 4 31
M  V30 35 1 4 32
M  V30 36 1 8 33
M  V30 37 1 9 34
M  V30 38 1 15 35
M  V30 39 1 17 36
M  V30 40 1 18 37
M  V30 41 1 19 38
M  V30 42 1 20 39
M  V30 43 1 24 40
M  V30 44 1 24 41
M  V30 45 1 25 42
M  V30 46 1 25 43
M  V30 END BOND
M  V30 END CTAB
M  END
>  <Dataset>  (859) 
ChEMBL_Kinases

>  <Ligand_Instance>  (859) 
nan

>  <PDB_ID>  (859) 
nan

>  <Standardized_SMILES>  (859) 
CN1CCN(c2nccc(/C(C#N)=C3\Nc4ccccc4S3)n2)CC1

>  <Name>  (859) 
nan

>  <Pocket>  (859) 
nan

>  <ATP_Site>  (859) 
nan

>  <Peripheral>  (859) 
nan

>  <Num_H_Atoms_ProtBoundConf>  (859) 
nan

>  <Num_Resolved_Atoms>  (859) 
nan

>  <Num_Not_Resolved_Atoms>  (859) 
nan

$$$$
CHEMBL3651729
     RDKit          3D

  0  0  0  0  0  0  0  0  0  0999 V3000
M  V30 BEGIN CTAB
M  V30 COUNTS 56 59 0 0 0
M  V30 BEGIN ATOM
M  V30 1 C 0.829611 -1.463850 5.740734 0
M  V30 2 C 1.597186 -1.951342 4.538971 0 CFG=1
M  V30 3 C 1.824535 -3.455245 4.602943 0
M  V30 4 C 2.704537 -3.919247 3.502854 0
M  V30 5 C 2.502828 -3.261960 2.182159 0
M  V30 6 N 1.727077 -2.076940 2.184837 0
M  V30 7 C 1.869823 -1.217982 1.059808 0
M  V30 8 O 2.699167 -1.708727 0.239778 0
M  V30 9 C 1.167641 0.065413 0.849685 0
M  V30 10 C 1.516806 0.727940 -0.440530 0
M  V30 11 C 0.774626 1.993048 -0.570568 0
M  V30 12 N 1.246616 3.237246 -0.347864 0
M  V30 13 N 0.318923 4.183142 -0.538548 0
M  V30 14 C -0.831503 3.562793 -0.906143 0
M  V30 15 C -2.062349 4.095393 -1.214905 0
M  V30 16 C -3.026394 3.175078 -1.555646 0
M  V30 17 N -2.764883 1.853293 -1.579528 0
M  V30 18 C -1.553322 1.359151 -1.273350 0
M  V30 19 N -1.399468 -0.051412 -1.342725 0
M  V30 20 C -2.549026 -0.836019 -1.749065 0
M  V30 21 C -2.991387 -0.569527 -3.162610 0
M  V30 22 C -2.084461 -1.263879 -4.162563 0
M  V30 23 O -2.173759 -2.625611 -3.941683 0
M  V30 24 C -1.683790 -2.989041 -2.687129 0
M  V30 25 C -2.407242 -2.312534 -1.564728 0
M  V30 26 C -0.546102 2.212151 -0.925092 0
M  V30 27 C 0.828322 -1.726059 3.254416 0
M  V30 28 H 0.542564 -0.408058 5.555006 0
M  V30 29 H -0.146868 -2.025533 5.790023 0
M  V30 30 H 1.398833 -1.522757 6.664357 0
M  V30 31 H 2.607857 -1.484646 4.533619 0
M  V30 32 H 2.281690 -3.662557 5.595342 0
M  V30 33 H 0.802905 -3.914831 4.541479 0
M  V30 34 H 3.752594 -3.861577 3.862840 0
M  V30 35 H 2.522259 -5.011218 3.357423 0
M  V30 36 H 2.092853 -3.952682 1.406814 0
M  V30 37 H 3.524945 -2.986834 1.799126 0
M  V30 38 H 1.560675 0.751511 1.660386 0
M  V30 39 H 0.092402 0.046863 0.992363 0
M  V30 40 H 2.605195 1.019994 -0.349376 0
M  V30 41 H 1.501647 0.086650 -1.338099 0
M  V30 42 H 2.223000 3.467806 -0.057490 0
M  V30 43 H -2.215951 5.163314 -1.179328 0
M  V30 44 H -4.015259 3.536460 -1.808859 0
M  V30 45 H -0.637380 -0.722022 -1.172297 0
M  V30 46 H -3.369741 -0.515132 -1.061593 0
M  V30 47 H -3.982324 -1.101034 -3.256369 0
M  V30 48 H -3.187528 0.464126 -3.419617 0
M  V30 49 H -1.062444 -0.871627 -4.150891 0
M  V30 50 H -2.551670 -1.075680 -5.161184 0
M  V30 51 H -0.583322 -2.782480 -2.590080 0
M  V30 52 H -1.826513 -4.092112 -2.596759 0
M  V30 53 H -1.824085 -2.497384 -0.631357 0
M  V30 54 H -3.435549 -2.742770 -1.458385 0
M  V30 55 H 0.427768 -0.701543 3.162728 0
M  V30 56 H -0.009062 -2.445385 3.239515 0
M  V30 END ATOM
M  V30 BEGIN BOND
M  V30 1 1 1 2
M  V30 2 1 2 3
M  V30 3 1 3 4
M  V30 4 1 4 5
M  V30 5 1 5 6
M  V30 6 1 6 7
M  V30 7 2 7 8
M  V30 8 1 7 9
M  V30 9 1 9 10
M  V30 10 1 10 11
M  V30 11 1 11 12
M  V30 12 1 12 13
M  V30 13 2 13 14
M  V30 14 1 14 15
M  V30 15 2 15 16
M  V30 16 1 16 17
M  V30 17 2 17 18
M  V30 18 1 18 19
M  V30 19 1 19 20
M  V30 20 1 20 21
M  V30 21 1 21 22
M  V30 22 1 22 23
M  V30 23 1 23 24
M  V30 24 1 24 25
M  V30 25 1 18 26
M  V30 26 1 6 27
M  V30 27 1 27 2
M  V30 28 2 26 11
M  V30 29 1 26 14
M  V30 30 1 25 20
M  V30 31 1 1 28
M  V30 32 1 1 29
M  V30 33 1 1 30
M  V30 34 1 2 31 CFG=3
M  V30 35 1 3 32
M  V30 36 1 3 33
M  V30 37 1 4 34
M  V30 38 1 4 35
M  V30 39 1 5 36
M  V30 40 1 5 37
M  V30 41 1 9 38
M  V30 42 1 9 39
M  V30 43 1 10 40
M  V30 44 1 10 41
M  V30 45 1 12 42
M  V30 46 1 15 43
M  V30 47 1 16 44
M  V30 48 1 19 45
M  V30 49 1 20 46
M  V30 50 1 21 47
M  V30 51 1 21 48
M  V30 52 1 22 49
M  V30 53 1 22 50
M  V30 54 1 24 51
M  V30 55 1 24 52
M  V30 56 1 25 53
M  V30 57 1 25 54
M  V30 58 1 27 55
M  V30 59 1 27 56
M  V30 END BOND
M  V30 END CTAB
M  END
>  <Dataset>  (860) 
ChEMBL_Kinases

>  <Ligand_Instance>  (860) 
nan

>  <PDB_ID>  (860) 
nan

>  <Standardized_SMILES>  (860) 
C[C@H]1CCCN(C(=O)CCc2[nH]nc3ccnc(NC4CCOCC4)c23)C1

>  <Name>  (860) 
nan

>  <Pocket>  (860) 
nan

>  <ATP_Site>  (860) 
nan

>  <Peripheral>  (860) 
nan

>  <Num_H_Atoms_ProtBoundConf>  (860) 
nan

>  <Num_Resolved_Atoms>  (860) 
nan

>  <Num_Not_Resolved_Atoms>  (860) 
nan

$$$$
CHEMBL3651730
     RDKit          3D

  0  0  0  0  0  0  0  0  0  0999 V3000
M  V30 BEGIN CTAB
M  V30 COUNTS 64 68 0 0 0
M  V30 BEGIN ATOM
M  V30 1 O 2.071881 -1.234508 -2.295210 0
M  V30 2 C 1.517166 -1.500260 -1.199104 0
M  V30 3 C 1.770996 -1.112854 0.222282 0
M  V30 4 C 2.984511 -0.245080 0.390553 0
M  V30 5 C 3.112759 0.069994 1.833015 0
M  V30 6 N 3.928505 -0.496828 2.732572 0
M  V30 7 N 3.758867 0.022473 3.940532 0
M  V30 8 C 2.799376 0.968748 3.852606 0
M  V30 9 C 2.238314 1.813663 4.801237 0
M  V30 10 C 1.261992 2.682905 4.368368 0
M  V30 11 N 0.840044 2.742099 3.082961 0
M  V30 12 C 1.407991 1.906999 2.192889 0
M  V30 13 O 0.948113 2.005701 0.900184 0
M  V30 14 C -0.069747 2.947498 0.572417 0
M  V30 15 C 0.445606 4.004043 -0.378474 0
M  V30 16 C -0.587440 4.397512 -1.400448 0
M  V30 17 C -1.869635 4.689920 -0.655593 0
M  V30 18 C -2.372544 3.386883 -0.053718 0
M  V30 19 C -1.286181 2.315257 -0.041857 0
M  V30 20 C 2.387114 1.007751 2.535448 0
M  V30 21 N 0.387401 -2.366840 -1.325414 0
M  V30 22 C 0.063243 -2.790071 -2.675965 0
M  V30 23 C -1.428864 -2.916664 -2.875807 0
M  V30 24 C -2.080613 -3.795075 -1.836692 0
M  V30 25 C -1.030389 -4.203412 -0.796007 0 CFG=2
M  V30 26 C -1.641817 -5.015544 0.268531 0
M  V30 27 C -1.269847 -6.316331 0.452467 0
M  V30 28 C -1.833483 -7.111411 1.456988 0
M  V30 29 C -2.798496 -6.498931 2.261291 0
M  V30 30 C -3.175720 -5.175907 2.072903 0
M  V30 31 C -2.593161 -4.406744 1.058935 0
M  V30 32 C -0.475805 -2.880563 -0.284504 0
M  V30 33 H 1.996429 -2.042369 0.832314 0
M  V30 34 H 0.866457 -0.705311 0.711347 0
M  V30 35 H 3.872095 -0.867966 0.113505 0
M  V30 36 H 3.017931 0.634408 -0.261790 0
M  V30 37 H 4.605533 -1.253142 2.486124 0
M  V30 38 H 2.549189 1.800375 5.853361 0
M  V30 39 H 0.803737 3.358622 5.097041 0
M  V30 40 H -0.395084 3.498709 1.479989 0
M  V30 41 H 1.370941 3.722290 -0.909061 0
M  V30 42 H 0.704973 4.948335 0.166402 0
M  V30 43 H -0.234939 5.348817 -1.882384 0
M  V30 44 H -0.736221 3.673024 -2.207096 0
M  V30 45 H -2.645708 5.154014 -1.307907 0
M  V30 46 H -1.638043 5.433514 0.140310 0
M  V30 47 H -2.673293 3.578303 0.999237 0
M  V30 48 H -3.250494 3.053556 -0.668838 0
M  V30 49 H -1.070398 1.986063 -1.079501 0
M  V30 50 H -1.698499 1.473494 0.529717 0
M  V30 51 H 0.426192 -2.053173 -3.419788 0
M  V30 52 H 0.556989 -3.742674 -2.861123 0
M  V30 53 H -1.587385 -3.403613 -3.857728 0
M  V30 54 H -1.909868 -1.906453 -2.884028 0
M  V30 55 H -2.559889 -4.685297 -2.254864 0
M  V30 56 H -2.828624 -3.214773 -1.255418 0
M  V30 57 H -0.291984 -4.802055 -1.343052 0
M  V30 58 H -0.510403 -6.779260 -0.188161 0
M  V30 59 H -1.552174 -8.137204 1.616111 0
M  V30 60 H -3.263992 -7.079020 3.056492 0
M  V30 61 H -3.929091 -4.794907 2.746935 0
M  V30 62 H -2.950945 -3.398001 0.994217 0
M  V30 63 H -1.289289 -2.148542 -0.144367 0
M  V30 64 H 0.046184 -3.129565 0.658334 0
M  V30 END ATOM
M  V30 BEGIN BOND
M  V30 1 2 1 2
M  V30 2 1 2 3
M  V30 3 1 3 4
M  V30 4 1 4 5
M  V30 5 1 5 6
M  V30 6 1 6 7
M  V30 7 2 7 8
M  V30 8 1 8 9
M  V30 9 2 9 10
M  V30 10 1 10 11
M  V30 11 2 11 12
M  V30 12 1 12 13
M  V30 13 1 13 14
M  V30 14 1 14 15
M  V30 15 1 15 16
M  V30 16 1 16 17
M  V30 17 1 17 18
M  V30 18 1 18 19
M  V30 19 1 12 20
M  V30 20 1 2 21
M  V30 21 1 21 22
M  V30 22 1 22 23
M  V30 23 1 23 24
M  V30 24 1 24 25
M  V30 25 1 25 26
M  V30 26 2 26 27
M  V30 27 1 27 28
M  V30 28 2 28 29
M  V30 29 1 29 30
M  V30 30 2 30 31
M  V30 31 1 25 32
M  V30 32 2 20 5
M  V30 33 1 32 21
M  V30 34 1 20 8
M  V30 35 1 31 26
M  V30 36 1 19 14
M  V30 37 1 3 33
M  V30 38 1 3 34
M  V30 39 1 4 35
M  V30 40 1 4 36
M  V30 41 1 6 37
M  V30 42 1 9 38
M  V30 43 1 10 39
M  V30 44 1 14 40
M  V30 45 1 15 41
M  V30 46 1 15 42
M  V30 47 1 16 43
M  V30 48 1 16 44
M  V30 49 1 17 45
M  V30 50 1 17 46
M  V30 51 1 18 47
M  V30 52 1 18 48
M  V30 53 1 19 49
M  V30 54 1 19 50
M  V30 55 1 22 51
M  V30 56 1 22 52
M  V30 57 1 23 53
M  V30 58 1 23 54
M  V30 59 1 24 55
M  V30 60 1 24 56
M  V30 61 1 25 57 CFG=3
M  V30 62 1 27 58
M  V30 63 1 28 59
M  V30 64 1 29 60
M  V30 65 1 30 61
M  V30 66 1 31 62
M  V30 67 1 32 63
M  V30 68 1 32 64
M  V30 END BOND
M  V30 END CTAB
M  END
>  <Dataset>  (861) 
ChEMBL_Kinases

>  <Ligand_Instance>  (861) 
nan

>  <PDB_ID>  (861) 
nan

>  <Standardized_SMILES>  (861) 
O=C(CCc1[nH]nc2ccnc(OC3CCCCC3)c12)N1CCC[C@H](c2ccccc2)C1

>  <Name>  (861) 
nan

>  <Pocket>  (861) 
nan

>  <ATP_Site>  (861) 
nan

>  <Peripheral>  (861) 
nan

>  <Num_H_Atoms_ProtBoundConf>  (861) 
nan

>  <Num_Resolved_Atoms>  (861) 
nan

>  <Num_Not_Resolved_Atoms>  (861) 
nan

$$$$
CHEMBL3651731
     RDKit          3D

  0  0  0  0  0  0  0  0  0  0999 V3000
M  V30 BEGIN CTAB
M  V30 COUNTS 61 65 0 0 0
M  V30 BEGIN ATOM
M  V30 1 O 1.196729 -2.391427 -0.073417 0
M  V30 2 C 0.000340 -2.725368 0.245707 0
M  V30 3 C -0.821446 -1.585732 0.702989 0
M  V30 4 C -0.082832 -0.266232 0.769097 0
M  V30 5 C 1.046844 -0.252809 1.687669 0
M  V30 6 N 1.416064 -1.274093 2.474906 0
M  V30 7 N 2.489709 -0.948405 3.179766 0
M  V30 8 C 2.833416 0.306007 2.852255 0
M  V30 9 C 3.875622 1.079810 3.312482 0
M  V30 10 C 4.011010 2.352158 2.806269 0
M  V30 11 N 3.121788 2.769171 1.894724 0
M  V30 12 C 2.097568 2.053609 1.420947 0
M  V30 13 N 1.211463 2.591563 0.479183 0
M  V30 14 C 1.287952 3.921154 -0.092134 0
M  V30 15 C 1.266790 5.014225 0.959974 0
M  V30 16 C -0.072857 5.100241 1.640921 0
M  V30 17 C -1.230394 5.151980 0.699333 0
M  V30 18 C -1.164374 4.220375 -0.462369 0
M  V30 19 C 0.186682 4.183233 -1.115915 0
M  V30 20 C 1.938390 0.777766 1.907863 0
M  V30 21 N -0.580811 -4.034222 0.200145 0
M  V30 22 C -1.939255 -4.171955 0.601516 0
M  V30 23 C -2.317206 -5.625375 0.633730 0
M  V30 24 N -1.650319 -6.335997 -0.375585 0
M  V30 25 C -2.358965 -7.223007 -1.210002 0
M  V30 26 C -3.453749 -6.765295 -2.095008 0
M  V30 27 C -2.102559 -7.078627 -2.707581 0
M  V30 28 C -0.247377 -6.377775 -0.403621 0
M  V30 29 C 0.402575 -5.014273 -0.281354 0
M  V30 30 H -1.603744 -1.449588 -0.092446 0
M  V30 31 H -1.348878 -1.773684 1.637091 0
M  V30 32 H 0.234599 -0.091910 -0.303862 0
M  V30 33 H -0.870004 0.468901 0.982128 0
M  V30 34 H 1.038648 -2.216645 2.632194 0
M  V30 35 H 4.580031 0.697679 4.059963 0
M  V30 36 H 4.804294 2.993851 3.136584 0
M  V30 37 H 0.387560 2.148192 0.056868 0
M  V30 38 H 2.248574 4.003681 -0.636836 0
M  V30 39 H 1.501497 5.986956 0.479435 0
M  V30 40 H 2.051393 4.811747 1.696665 0
M  V30 41 H -0.061960 6.059375 2.216993 0
M  V30 42 H -0.216289 4.292884 2.388738 0
M  V30 43 H -1.338923 6.196767 0.319116 0
M  V30 44 H -2.144497 4.872404 1.309150 0
M  V30 45 H -1.880180 4.602782 -1.231562 0
M  V30 46 H -1.528819 3.199636 -0.206509 0
M  V30 47 H 0.221213 3.328934 -1.814102 0
M  V30 48 H 0.406321 5.126030 -1.629764 0
M  V30 49 H -2.603671 -3.697767 -0.185116 0
M  V30 50 H -2.173483 -3.650165 1.558543 0
M  V30 51 H -2.008688 -5.985899 1.665871 0
M  V30 52 H -3.422963 -5.763632 0.507584 0
M  V30 53 H -2.451732 -8.287008 -0.880014 0
M  V30 54 H -3.748138 -5.702394 -2.196313 0
M  V30 55 H -4.239060 -7.483150 -2.394051 0
M  V30 56 H -1.973057 -8.003627 -3.311842 0
M  V30 57 H -1.497720 -6.251529 -3.090276 0
M  V30 58 H 0.082906 -6.857181 -1.343462 0
M  V30 59 H 0.178203 -6.987239 0.420319 0
M  V30 60 H 0.677428 -4.683227 -1.302264 0
M  V30 61 H 1.310526 -5.016485 0.334116 0
M  V30 END ATOM
M  V30 BEGIN BOND
M  V30 1 2 1 2
M  V30 2 1 2 3
M  V30 3 1 3 4
M  V30 4 1 4 5
M  V30 5 1 5 6
M  V30 6 1 6 7
M  V30 7 2 7 8
M  V30 8 1 8 9
M  V30 9 2 9 10
M  V30 10 1 10 11
M  V30 11 2 11 12
M  V30 12 1 12 13
M  V30 13 1 13 14
M  V30 14 1 14 15
M  V30 15 1 15 16
M  V30 16 1 16 17
M  V30 17 1 17 18
M  V30 18 1 18 19
M  V30 19 1 12 20
M  V30 20 1 2 21
M  V30 21 1 21 22
M  V30 22 1 22 23
M  V30 23 1 23 24
M  V30 24 1 24 25
M  V30 25 1 25 26
M  V30 26 1 26 27
M  V30 27 1 24 28
M  V30 28 1 28 29
M  V30 29 2 20 5
M  V30 30 1 29 21
M  V30 31 1 20 8
M  V30 32 1 27 25
M  V30 33 1 19 14
M  V30 34 1 3 30
M  V30 35 1 3 31
M  V30 36 1 4 32
M  V30 37 1 4 33
M  V30 38 1 6 34
M  V30 39 1 9 35
M  V30 40 1 10 36
M  V30 41 1 13 37
M  V30 42 1 14 38
M  V30 43 1 15 39
M  V30 44 1 15 40
M  V30 45 1 16 41
M  V30 46 1 16 42
M  V30 47 1 17 43
M  V30 48 1 17 44
M  V30 49 1 18 45
M  V30 50 1 18 46
M  V30 51 1 19 47
M  V30 52 1 19 48
M  V30 53 1 22 49
M  V30 54 1 22 50
M  V30 55 1 23 51
M  V30 56 1 23 52
M  V30 57 1 25 53
M  V30 58 1 26 54
M  V30 59 1 26 55
M  V30 60 1 27 56
M  V30 61 1 27 57
M  V30 62 1 28 58
M  V30 63 1 28 59
M  V30 64 1 29 60
M  V30 65 1 29 61
M  V30 END BOND
M  V30 END CTAB
M  END
>  <Dataset>  (862) 
ChEMBL_Kinases

>  <Ligand_Instance>  (862) 
nan

>  <PDB_ID>  (862) 
nan

>  <Standardized_SMILES>  (862) 
O=C(CCc1[nH]nc2ccnc(NC3CCCCC3)c12)N1CCN(C2CC2)CC1

>  <Name>  (862) 
nan

>  <Pocket>  (862) 
nan

>  <ATP_Site>  (862) 
nan

>  <Peripheral>  (862) 
nan

>  <Num_H_Atoms_ProtBoundConf>  (862) 
nan

>  <Num_Resolved_Atoms>  (862) 
nan

>  <Num_Not_Resolved_Atoms>  (862) 
nan

$$$$
CHEMBL3651732
     RDKit          3D

  0  0  0  0  0  0  0  0  0  0999 V3000
M  V30 BEGIN CTAB
M  V30 COUNTS 52 56 0 0 0
M  V30 BEGIN ATOM
M  V30 1 C -0.218883 -2.807072 2.861628 0
M  V30 2 C 0.790929 -2.378371 2.037899 0
M  V30 3 C 0.716241 -2.294642 0.663234 0
M  V30 4 C 1.667187 -1.858484 -0.345826 0
M  V30 5 N 1.911438 -2.747835 -1.355047 0
M  V30 6 N 2.777006 -2.286292 -2.217240 0
M  V30 7 C 3.128169 -1.063289 -1.790885 0
M  V30 8 C 3.979024 -0.078649 -2.242342 0
M  V30 9 C 4.081738 1.088269 -1.516958 0
M  V30 10 N 3.376279 1.317266 -0.366174 0
M  V30 11 C 2.543175 0.377321 0.093580 0
M  V30 12 N 1.805208 0.658055 1.265939 0
M  V30 13 C 2.090925 1.954487 1.828116 0
M  V30 14 C 1.766640 3.072650 0.856992 0
M  V30 15 C 1.099807 4.221155 1.549752 0
M  V30 16 O -0.134490 3.869971 2.096851 0
M  V30 17 C -0.071991 2.633866 2.739886 0
M  V30 18 C 1.350446 2.274756 3.104024 0
M  V30 19 C 2.451913 -0.768980 -0.628095 0
M  V30 20 C -0.544999 -2.709617 0.192438 0
M  V30 21 C -1.574028 -3.142378 0.981247 0
M  V30 22 N -2.840131 -3.556974 0.491316 0
M  V30 23 C -3.899501 -4.007878 1.371107 0
M  V30 24 C -5.211464 -3.730309 0.648708 0
M  V30 25 O -5.210936 -2.528793 -0.032671 0
M  V30 26 C -4.275798 -2.460512 -1.053662 0
M  V30 27 C -3.261942 -3.596087 -0.894012 0
M  V30 28 N -1.383164 -3.180535 2.308830 0
M  V30 29 H 0.001955 -2.812799 3.919614 0
M  V30 30 H 1.763516 -2.058147 2.399525 0
M  V30 31 H 3.130354 -2.771946 -3.074305 0
M  V30 32 H 4.539633 -0.249808 -3.149937 0
M  V30 33 H 4.750729 1.873078 -1.862878 0
M  V30 34 H 1.108594 0.258765 1.872278 0
M  V30 35 H 3.183337 2.040791 2.106671 0
M  V30 36 H 1.200382 2.706439 -0.019073 0
M  V30 37 H 2.726439 3.450798 0.455914 0
M  V30 38 H 0.867423 4.977236 0.747567 0
M  V30 39 H 1.767414 4.751884 2.252861 0
M  V30 40 H -0.673141 2.604932 3.664338 0
M  V30 41 H -0.500046 1.885299 2.041883 0
M  V30 42 H 1.428047 1.459753 3.814481 0
M  V30 43 H 1.849605 3.172740 3.542217 0
M  V30 44 H -0.751073 -2.698136 -0.869988 0
M  V30 45 H -3.919369 -3.446717 2.326551 0
M  V30 46 H -3.840473 -5.103726 1.514029 0
M  V30 47 H -5.510213 -4.529648 -0.031057 0
M  V30 48 H -5.996391 -3.646455 1.431064 0
M  V30 49 H -4.705917 -2.455242 -2.070195 0
M  V30 50 H -3.719349 -1.515171 -0.930600 0
M  V30 51 H -3.786782 -4.555285 -1.121005 0
M  V30 52 H -2.459130 -3.506274 -1.624901 0
M  V30 END ATOM
M  V30 BEGIN BOND
M  V30 1 2 1 2
M  V30 2 1 2 3
M  V30 3 1 3 4
M  V30 4 2 4 5
M  V30 5 1 5 6
M  V30 6 1 6 7
M  V30 7 2 7 8
M  V30 8 1 8 9
M  V30 9 2 9 10
M  V30 10 1 10 11
M  V30 11 1 11 12
M  V30 12 1 12 13
M  V30 13 1 13 14
M  V30 14 1 14 15
M  V30 15 1 15 16
M  V30 16 1 16 17
M  V30 17 1 17 18
M  V30 18 2 11 19
M  V30 19 2 3 20
M  V30 20 1 20 21
M  V30 21 1 21 22
M  V30 22 1 22 23
M  V30 23 1 23 24
M  V30 24 1 24 25
M  V30 25 1 25 26
M  V30 26 1 26 27
M  V30 27 2 21 28
M  V30 28 1 28 1
M  V30 29 1 19 4
M  V30 30 1 27 22
M  V30 31 1 19 7
M  V30 32 1 18 13
M  V30 33 1 1 29
M  V30 34 1 2 30
M  V30 35 1 6 31
M  V30 36 1 8 32
M  V30 37 1 9 33
M  V30 38 1 12 34
M  V30 39 1 13 35
M  V30 40 1 14 36
M  V30 41 1 14 37
M  V30 42 1 15 38
M  V30 43 1 15 39
M  V30 44 1 17 40
M  V30 45 1 17 41
M  V30 46 1 18 42
M  V30 47 1 18 43
M  V30 48 1 20 44
M  V30 49 1 23 45
M  V30 50 1 23 46
M  V30 51 1 24 47
M  V30 52 1 24 48
M  V30 53 1 26 49
M  V30 54 1 26 50
M  V30 55 1 27 51
M  V30 56 1 27 52
M  V30 END BOND
M  V30 END CTAB
M  END
>  <Dataset>  (863) 
ChEMBL_Kinases

>  <Ligand_Instance>  (863) 
nan

>  <PDB_ID>  (863) 
nan

>  <Standardized_SMILES>  (863) 
c1cc(-c2n[nH]c3ccnc(NC4CCOCC4)c23)cc(N2CCOCC2)n1

>  <Name>  (863) 
nan

>  <Pocket>  (863) 
nan

>  <ATP_Site>  (863) 
nan

>  <Peripheral>  (863) 
nan

>  <Num_H_Atoms_ProtBoundConf>  (863) 
nan

>  <Num_Resolved_Atoms>  (863) 
nan

>  <Num_Not_Resolved_Atoms>  (863) 
nan

$$$$
CHEMBL3651742
     RDKit          3D

  0  0  0  0  0  0  0  0  0  0999 V3000
M  V30 BEGIN CTAB
M  V30 COUNTS 58 61 0 0 0
M  V30 BEGIN ATOM
M  V30 1 C 3.467056 -4.134342 0.119869 0
M  V30 2 C 3.687025 -3.411722 1.409867 0
M  V30 3 C 3.000002 -4.166132 2.517669 0
M  V30 4 O 3.217975 -2.058145 1.337696 0
M  V30 5 C 4.057868 -0.991773 1.530856 0
M  V30 6 N 5.368740 -1.213949 1.801693 0
M  V30 7 C 6.154067 -0.135638 1.982884 0
M  V30 8 C 5.764553 1.185683 1.922449 0
M  V30 9 C 4.416818 1.389844 1.643367 0
M  V30 10 N 3.676965 2.488300 1.502315 0
M  V30 11 N 2.432583 2.125004 1.233952 0
M  V30 12 C 2.332665 0.763771 1.193719 0
M  V30 13 C 1.077595 0.099044 0.910651 0
M  V30 14 C 0.295807 0.533216 -0.167967 0
M  V30 15 C -0.849851 -0.224449 -0.260142 0
M  V30 16 C -1.896117 -0.068476 -1.257059 0
M  V30 17 O -1.572423 -0.937254 -2.137499 0
M  V30 18 N -3.030455 0.801961 -1.324673 0
M  V30 19 C -3.369658 1.785317 -0.296885 0
M  V30 20 C -4.852930 1.768120 -0.004209 0
M  V30 21 C -5.535523 2.064165 -1.334723 0
M  V30 22 C -5.266583 0.969158 -2.312339 0
M  V30 23 C -3.830247 0.624756 -2.518005 0
M  V30 24 N -0.766489 -1.105239 0.746547 0
M  V30 25 C -1.655232 -2.140543 1.152102 0
M  V30 26 C -2.965205 -2.207390 0.448007 0
M  V30 27 C -0.984142 -3.512261 0.985618 0
M  V30 28 C 0.366620 -0.942904 1.465286 0
M  V30 29 C 3.598872 0.296329 1.454752 0
M  V30 30 H 4.326358 -4.812977 -0.055967 0
M  V30 31 H 3.429558 -3.467576 -0.765455 0
M  V30 32 H 2.560367 -4.775518 0.219577 0
M  V30 33 H 4.784031 -3.397851 1.620747 0
M  V30 34 H 2.733249 -5.170422 2.141054 0
M  V30 35 H 3.636087 -4.260247 3.422414 0
M  V30 36 H 2.023851 -3.660008 2.765591 0
M  V30 37 H 7.187648 -0.340513 2.195384 0
M  V30 38 H 6.458924 1.997787 2.081875 0
M  V30 39 H 4.035933 3.466913 1.591393 0
M  V30 40 H 0.510610 1.351215 -0.871884 0
M  V30 41 H -3.150072 2.787279 -0.717650 0
M  V30 42 H -2.795280 1.638103 0.617000 0
M  V30 43 H -5.225230 0.799431 0.365225 0
M  V30 44 H -5.066105 2.579091 0.705831 0
M  V30 45 H -5.136828 3.022020 -1.744852 0
M  V30 46 H -6.617033 2.156685 -1.215478 0
M  V30 47 H -5.663072 1.340296 -3.303209 0
M  V30 48 H -5.885789 0.073177 -2.074792 0
M  V30 49 H -3.804054 -0.440356 -2.870960 0
M  V30 50 H -3.388358 1.302621 -3.279247 0
M  V30 51 H -1.875194 -2.015663 2.249070 0
M  V30 52 H -3.599014 -2.932066 1.049248 0
M  V30 53 H -3.550195 -1.285878 0.434168 0
M  V30 54 H -2.905221 -2.719039 -0.553965 0
M  V30 55 H -0.377581 -3.497220 0.055956 0
M  V30 56 H -0.251749 -3.664875 1.808449 0
M  V30 57 H -1.750433 -4.298604 0.940532 0
M  V30 58 H 0.758842 -1.458108 2.331415 0
M  V30 END ATOM
M  V30 BEGIN BOND
M  V30 1 1 1 2
M  V30 2 1 2 3
M  V30 3 1 2 4
M  V30 4 1 4 5
M  V30 5 2 5 6
M  V30 6 1 6 7
M  V30 7 2 7 8
M  V30 8 1 8 9
M  V30 9 1 9 10
M  V30 10 1 10 11
M  V30 11 2 11 12
M  V30 12 1 12 13
M  V30 13 1 13 14
M  V30 14 2 14 15
M  V30 15 1 15 16
M  V30 16 2 16 17
M  V30 17 1 16 18
M  V30 18 1 18 19
M  V30 19 1 19 20
M  V30 20 1 20 21
M  V30 21 1 21 22
M  V30 22 1 22 23
M  V30 23 1 15 24
M  V30 24 1 24 25
M  V30 25 1 25 26
M  V30 26 1 25 27
M  V30 27 1 24 28
M  V30 28 1 12 29
M  V30 29 1 29 5
M  V30 30 2 29 9
M  V30 31 2 28 13
M  V30 32 1 23 18
M  V30 33 1 1 30
M  V30 34 1 1 31
M  V30 35 1 1 32
M  V30 36 1 2 33
M  V30 37 1 3 34
M  V30 38 1 3 35
M  V30 39 1 3 36
M  V30 40 1 7 37
M  V30 41 1 8 38
M  V30 42 1 10 39
M  V30 43 1 14 40
M  V30 44 1 19 41
M  V30 45 1 19 42
M  V30 46 1 20 43
M  V30 47 1 20 44
M  V30 48 1 21 45
M  V30 49 1 21 46
M  V30 50 1 22 47
M  V30 51 1 22 48
M  V30 52 1 23 49
M  V30 53 1 23 50
M  V30 54 1 25 51
M  V30 55 1 26 52
M  V30 56 1 26 53
M  V30 57 1 26 54
M  V30 58 1 27 55
M  V30 59 1 27 56
M  V30 60 1 27 57
M  V30 61 1 28 58
M  V30 END BOND
M  V30 END CTAB
M  END
>  <Dataset>  (864) 
ChEMBL_Kinases

>  <Ligand_Instance>  (864) 
nan

>  <PDB_ID>  (864) 
nan

>  <Standardized_SMILES>  (864) 
CC(C)Oc1nccc2[nH]nc(-c3cc(C(=O)N4CCCCC4)n(C(C)C)c3)c12

>  <Name>  (864) 
nan

>  <Pocket>  (864) 
nan

>  <ATP_Site>  (864) 
nan

>  <Peripheral>  (864) 
nan

>  <Num_H_Atoms_ProtBoundConf>  (864) 
nan

>  <Num_Resolved_Atoms>  (864) 
nan

>  <Num_Not_Resolved_Atoms>  (864) 
nan

$$$$
CHEMBL3651734
     RDKit          3D

  0  0  0  0  0  0  0  0  0  0999 V3000
M  V30 BEGIN CTAB
M  V30 COUNTS 38 41 0 0 0
M  V30 BEGIN ATOM
M  V30 1 C -2.657496 -2.783675 1.526067 0
M  V30 2 C -1.960496 -3.905397 1.914776 0
M  V30 3 C -0.573749 -3.809319 1.945543 0
M  V30 4 N 0.363468 -4.718367 2.277053 0
M  V30 5 N 1.570882 -4.191994 2.162615 0
M  V30 6 C 1.485380 -2.913299 1.750910 0
M  V30 7 C 2.470063 -1.842303 1.452874 0
M  V30 8 C 2.961955 -1.787306 0.014259 0
M  V30 9 C 3.889862 -2.327351 1.059189 0
M  V30 10 C 0.125690 -2.668828 1.612693 0
M  V30 11 C -0.650437 -1.591931 1.234779 0
M  V30 12 O -0.011211 -0.415729 0.887868 0
M  V30 13 C -0.649351 0.755879 0.485889 0
M  V30 14 C -0.339858 1.943588 1.356092 0
M  V30 15 C -1.074911 3.147597 0.798430 0
M  V30 16 C -0.624969 3.455855 -0.611141 0
M  V30 17 C -0.809167 2.276174 -1.520613 0
M  V30 18 C -0.167546 1.069689 -0.912728 0
M  V30 19 N -2.002477 -1.655661 1.195230 0
M  V30 20 H -3.732285 -2.902863 1.516488 0
M  V30 21 H -2.449866 -4.828764 2.187673 0
M  V30 22 H 2.533643 -4.590875 2.332509 0
M  V30 23 H 2.484300 -0.943048 2.080284 0
M  V30 24 H 2.494860 -2.501167 -0.694094 0
M  V30 25 H 3.155960 -0.811984 -0.445490 0
M  V30 26 H 4.741175 -1.655224 1.311004 0
M  V30 27 H 4.042594 -3.419134 1.154873 0
M  V30 28 H -1.750541 0.646143 0.472277 0
M  V30 29 H -0.705965 1.786155 2.380605 0
M  V30 30 H 0.732889 2.159075 1.266621 0
M  V30 31 H -2.172578 3.011651 0.777119 0
M  V30 32 H -0.818594 4.028684 1.424153 0
M  V30 33 H -1.312492 4.248942 -0.984303 0
M  V30 34 H 0.421509 3.820492 -0.611371 0
M  V30 35 H -0.230706 2.495395 -2.450905 0
M  V30 36 H -1.880699 2.141449 -1.766198 0
M  V30 37 H -0.351003 0.207065 -1.601239 0
M  V30 38 H 0.926886 1.249254 -0.897610 0
M  V30 END ATOM
M  V30 BEGIN BOND
M  V30 1 2 1 2
M  V30 2 1 2 3
M  V30 3 2 3 4
M  V30 4 1 4 5
M  V30 5 1 5 6
M  V30 6 1 6 7
M  V30 7 1 7 8
M  V30 8 1 8 9
M  V30 9 2 6 10
M  V30 10 1 10 11
M  V30 11 1 11 12
M  V30 12 1 12 13
M  V30 13 1 13 14
M  V30 14 1 14 15
M  V30 15 1 15 16
M  V30 16 1 16 17
M  V30 17 1 17 18
M  V30 18 2 11 19
M  V30 19 1 19 1
M  V30 20 1 10 3
M  V30 21 1 18 13
M  V30 22 1 9 7
M  V30 23 1 1 20
M  V30 24 1 2 21
M  V30 25 1 5 22
M  V30 26 1 7 23
M  V30 27 1 8 24
M  V30 28 1 8 25
M  V30 29 1 9 26
M  V30 30 1 9 27
M  V30 31 1 13 28
M  V30 32 1 14 29
M  V30 33 1 14 30
M  V30 34 1 15 31
M  V30 35 1 15 32
M  V30 36 1 16 33
M  V30 37 1 16 34
M  V30 38 1 17 35
M  V30 39 1 17 36
M  V30 40 1 18 37
M  V30 41 1 18 38
M  V30 END BOND
M  V30 END CTAB
M  END
>  <Dataset>  (865) 
ChEMBL_Kinases

>  <Ligand_Instance>  (865) 
nan

>  <PDB_ID>  (865) 
nan

>  <Standardized_SMILES>  (865) 
c1cc2n[nH]c(C3CC3)c2c(OC2CCCCC2)n1

>  <Name>  (865) 
nan

>  <Pocket>  (865) 
nan

>  <ATP_Site>  (865) 
nan

>  <Peripheral>  (865) 
nan

>  <Num_H_Atoms_ProtBoundConf>  (865) 
nan

>  <Num_Resolved_Atoms>  (865) 
nan

>  <Num_Not_Resolved_Atoms>  (865) 
nan

$$$$
CHEMBL3651735
     RDKit          3D

  0  0  0  0  0  0  0  0  0  0999 V3000
M  V30 BEGIN CTAB
M  V30 COUNTS 36 39 0 0 0
M  V30 BEGIN ATOM
M  V30 1 C -2.664413 -1.398740 1.995864 0
M  V30 2 C -2.201305 -2.594844 2.499305 0
M  V30 3 C -0.875609 -2.938706 2.355487 0
M  V30 4 N -0.061067 -3.977658 2.698162 0
M  V30 5 N 1.175252 -3.694004 2.254149 0
M  V30 6 C 1.178065 -2.480529 1.624090 0
M  V30 7 C 2.454887 -2.075024 1.043118 0
M  V30 8 C 2.909160 -3.052153 -0.070508 0
M  V30 9 C 2.638512 -1.648045 -0.361208 0
M  V30 10 C -0.100201 -2.027212 1.698735 0
M  V30 11 C -0.527422 -0.832182 1.188973 0
M  V30 12 O 0.054154 0.104083 0.572506 0
M  V30 13 C 0.664309 1.072196 -0.066860 0
M  V30 14 C 0.397325 2.470828 0.534761 0
M  V30 15 C -1.007761 2.925072 0.260162 0
M  V30 16 O -1.147098 3.054141 -1.136921 0
M  V30 17 C -1.183007 1.741798 -1.617331 0
M  V30 18 C 0.175807 1.102461 -1.534524 0
M  V30 19 N -1.832342 -0.529368 1.348034 0
M  V30 20 H -3.742500 -1.278712 2.194136 0
M  V30 21 H -2.816035 -3.319626 3.021158 0
M  V30 22 H 1.901359 -4.419781 2.456191 0
M  V30 23 H 3.277018 -1.822810 1.752337 0
M  V30 24 H 3.932036 -3.470710 0.011064 0
M  V30 25 H 2.186206 -3.784491 -0.456741 0
M  V30 26 H 1.788159 -1.402221 -1.037618 0
M  V30 27 H 3.510787 -0.990270 -0.576350 0
M  V30 28 H 1.780944 1.014688 -0.189357 0
M  V30 29 H 0.629035 2.423994 1.598809 0
M  V30 30 H 1.074989 3.190524 0.052170 0
M  V30 31 H -1.774773 2.151826 0.543265 0
M  V30 32 H -1.158838 3.864836 0.799968 0
M  V30 33 H -1.875078 1.141311 -0.980081 0
M  V30 34 H -1.509149 1.686518 -2.656290 0
M  V30 35 H 0.898447 1.610259 -2.184416 0
M  V30 36 H 0.063811 0.055681 -1.839255 0
M  V30 END ATOM
M  V30 BEGIN BOND
M  V30 1 2 1 2
M  V30 2 1 2 3
M  V30 3 2 3 4
M  V30 4 1 4 5
M  V30 5 1 5 6
M  V30 6 1 6 7
M  V30 7 1 7 8
M  V30 8 1 8 9
M  V30 9 2 6 10
M  V30 10 1 10 11
M  V30 11 1 11 12
M  V30 12 1 12 13
M  V30 13 1 13 14
M  V30 14 1 14 15
M  V30 15 1 15 16
M  V30 16 1 16 17
M  V30 17 1 17 18
M  V30 18 2 11 19
M  V30 19 1 19 1
M  V30 20 1 10 3
M  V30 21 1 18 13
M  V30 22 1 9 7
M  V30 23 1 1 20
M  V30 24 1 2 21
M  V30 25 1 5 22
M  V30 26 1 7 23
M  V30 27 1 8 24
M  V30 28 1 8 25
M  V30 29 1 9 26
M  V30 30 1 9 27
M  V30 31 1 13 28
M  V30 32 1 14 29
M  V30 33 1 14 30
M  V30 34 1 15 31
M  V30 35 1 15 32
M  V30 36 1 17 33
M  V30 37 1 17 34
M  V30 38 1 18 35
M  V30 39 1 18 36
M  V30 END BOND
M  V30 END CTAB
M  END
>  <Dataset>  (866) 
ChEMBL_Kinases

>  <Ligand_Instance>  (866) 
nan

>  <PDB_ID>  (866) 
nan

>  <Standardized_SMILES>  (866) 
c1cc2n[nH]c(C3CC3)c2c(OC2CCOCC2)n1

>  <Name>  (866) 
nan

>  <Pocket>  (866) 
nan

>  <ATP_Site>  (866) 
nan

>  <Peripheral>  (866) 
nan

>  <Num_H_Atoms_ProtBoundConf>  (866) 
nan

>  <Num_Resolved_Atoms>  (866) 
nan

>  <Num_Not_Resolved_Atoms>  (866) 
nan

$$$$
CHEMBL3651736
     RDKit          3D

  0  0  0  0  0  0  0  0  0  0999 V3000
M  V30 BEGIN CTAB
M  V30 COUNTS 34 36 0 0 0
M  V30 BEGIN ATOM
M  V30 1 C -2.956501 -3.163538 -0.436607 0
M  V30 2 C -2.200052 -1.908355 -0.005516 0
M  V30 3 C -0.779430 -2.329177 0.358209 0
M  V30 4 C -0.795169 -3.321278 1.474224 0
M  V30 5 O -0.072146 -1.163989 0.637387 0
M  V30 6 C 1.014703 -0.699753 -0.046275 0
M  V30 7 N 1.463041 -1.420107 -1.093442 0
M  V30 8 C 2.545629 -0.996682 -1.802389 0
M  V30 9 C 3.219282 0.180205 -1.474784 0
M  V30 10 C 2.781770 0.953574 -0.393892 0
M  V30 11 N 3.121186 2.076680 0.229946 0
M  V30 12 N 2.277702 2.293087 1.247529 0
M  V30 13 C 1.363560 1.299536 1.300844 0
M  V30 14 C 0.330690 1.415676 2.350939 0
M  V30 15 C -0.622341 2.577347 2.352464 0
M  V30 16 C -1.081838 1.287064 1.833834 0
M  V30 17 C 1.686985 0.455071 0.262691 0
M  V30 18 H -2.669009 -3.464281 -1.454010 0
M  V30 19 H -2.809996 -3.939163 0.319125 0
M  V30 20 H -4.054353 -2.929766 -0.502728 0
M  V30 21 H -2.177614 -1.192343 -0.846652 0
M  V30 22 H -2.702547 -1.415988 0.844660 0
M  V30 23 H -0.305991 -2.812759 -0.514329 0
M  V30 24 H -0.936131 -4.340924 1.018282 0
M  V30 25 H -1.523008 -3.134583 2.271838 0
M  V30 26 H 0.238174 -3.343898 1.903131 0
M  V30 27 H 2.956735 -1.523001 -2.649916 0
M  V30 28 H 4.080395 0.543898 -2.015642 0
M  V30 29 H 2.475293 3.156800 1.790597 0
M  V30 30 H 0.570598 1.016603 3.354276 0
M  V30 31 H -1.010088 2.946710 3.325649 0
M  V30 32 H -0.378518 3.417320 1.665171 0
M  V30 33 H -1.811464 0.715725 2.421326 0
M  V30 34 H -1.241153 1.220808 0.732303 0
M  V30 END ATOM
M  V30 BEGIN BOND
M  V30 1 1 1 2
M  V30 2 1 2 3
M  V30 3 1 3 4
M  V30 4 1 3 5
M  V30 5 1 5 6
M  V30 6 2 6 7
M  V30 7 1 7 8
M  V30 8 2 8 9
M  V30 9 1 9 10
M  V30 10 2 10 11
M  V30 11 1 11 12
M  V30 12 1 12 13
M  V30 13 1 13 14
M  V30 14 1 14 15
M  V30 15 1 15 16
M  V30 16 2 13 17
M  V30 17 1 17 6
M  V30 18 1 17 10
M  V30 19 1 16 14
M  V30 20 1 1 18
M  V30 21 1 1 19
M  V30 22 1 1 20
M  V30 23 1 2 21
M  V30 24 1 2 22
M  V30 25 1 3 23
M  V30 26 1 4 24
M  V30 27 1 4 25
M  V30 28 1 4 26
M  V30 29 1 8 27
M  V30 30 1 9 28
M  V30 31 1 12 29
M  V30 32 1 14 30
M  V30 33 1 15 31
M  V30 34 1 15 32
M  V30 35 1 16 33
M  V30 36 1 16 34
M  V30 END BOND
M  V30 END CTAB
M  END
>  <Dataset>  (867) 
ChEMBL_Kinases

>  <Ligand_Instance>  (867) 
nan

>  <PDB_ID>  (867) 
nan

>  <Standardized_SMILES>  (867) 
CCC(C)Oc1nccc2n[nH]c(C3CC3)c12

>  <Name>  (867) 
nan

>  <Pocket>  (867) 
nan

>  <ATP_Site>  (867) 
nan

>  <Peripheral>  (867) 
nan

>  <Num_H_Atoms_ProtBoundConf>  (867) 
nan

>  <Num_Resolved_Atoms>  (867) 
nan

>  <Num_Not_Resolved_Atoms>  (867) 
nan

$$$$
CHEMBL3651737
     RDKit          3D

  0  0  0  0  0  0  0  0  0  0999 V3000
M  V30 BEGIN CTAB
M  V30 COUNTS 29 31 0 0 0
M  V30 BEGIN ATOM
M  V30 1 C -0.271637 -3.140795 1.549868 0
M  V30 2 C 1.024715 -2.648406 2.124071 0
M  V30 3 N 1.880694 -3.306731 2.920496 0
M  V30 4 N 2.923864 -2.530956 3.221516 0
M  V30 5 C 2.761162 -1.324482 2.611323 0
M  V30 6 C 3.583485 -0.192371 2.627737 0
M  V30 7 C 3.106005 0.874563 1.886592 0
M  V30 8 N 1.956716 0.811368 1.219119 0
M  V30 9 C 1.161821 -0.275478 1.200070 0
M  V30 10 O -0.043844 -0.392507 0.521383 0
M  V30 11 C -0.648058 0.588581 -0.259897 0
M  V30 12 C -1.065851 0.087359 -1.636209 0
M  V30 13 C -2.287158 0.928997 -1.892287 0
M  V30 14 O -2.719954 1.457087 -0.695569 0
M  V30 15 C -2.045551 0.816131 0.328414 0
M  V30 16 C 1.563711 -1.386642 1.914316 0
M  V30 17 H -1.115408 -2.490993 1.877887 0
M  V30 18 H -0.207364 -3.063679 0.435941 0
M  V30 19 H -0.417766 -4.172507 1.905808 0
M  V30 20 H 1.674805 -4.282450 3.210111 0
M  V30 21 H 4.507644 -0.234379 3.203844 0
M  V30 22 H 3.724161 1.763618 1.882798 0
M  V30 23 H -0.091602 1.543767 -0.329019 0
M  V30 24 H -0.284102 0.211070 -2.402212 0
M  V30 25 H -1.400303 -0.970223 -1.502426 0
M  V30 26 H -3.039156 0.291481 -2.405433 0
M  V30 27 H -2.013205 1.738275 -2.611482 0
M  V30 28 H -2.012752 1.436833 1.240604 0
M  V30 29 H -2.482174 -0.188929 0.501329 0
M  V30 END ATOM
M  V30 BEGIN BOND
M  V30 1 1 1 2
M  V30 2 1 2 3
M  V30 3 1 3 4
M  V30 4 2 4 5
M  V30 5 1 5 6
M  V30 6 2 6 7
M  V30 7 1 7 8
M  V30 8 2 8 9
M  V30 9 1 9 10
M  V30 10 1 10 11
M  V30 11 1 11 12
M  V30 12 1 12 13
M  V30 13 1 13 14
M  V30 14 1 14 15
M  V30 15 1 9 16
M  V30 16 2 16 2
M  V30 17 1 16 5
M  V30 18 1 15 11
M  V30 19 1 1 17
M  V30 20 1 1 18
M  V30 21 1 1 19
M  V30 22 1 3 20
M  V30 23 1 6 21
M  V30 24 1 7 22
M  V30 25 1 11 23
M  V30 26 1 12 24
M  V30 27 1 12 25
M  V30 28 1 13 26
M  V30 29 1 13 27
M  V30 30 1 15 28
M  V30 31 1 15 29
M  V30 END BOND
M  V30 END CTAB
M  END
>  <Dataset>  (868) 
ChEMBL_Kinases

>  <Ligand_Instance>  (868) 
nan

>  <PDB_ID>  (868) 
nan

>  <Standardized_SMILES>  (868) 
Cc1[nH]nc2ccnc(OC3CCOC3)c12

>  <Name>  (868) 
nan

>  <Pocket>  (868) 
nan

>  <ATP_Site>  (868) 
nan

>  <Peripheral>  (868) 
nan

>  <Num_H_Atoms_ProtBoundConf>  (868) 
nan

>  <Num_Resolved_Atoms>  (868) 
nan

>  <Num_Not_Resolved_Atoms>  (868) 
nan

$$$$
CHEMBL3651738
     RDKit          3D

  0  0  0  0  0  0  0  0  0  0999 V3000
M  V30 BEGIN CTAB
M  V30 COUNTS 36 39 0 0 0
M  V30 BEGIN ATOM
M  V30 1 C -1.958007 -4.024047 1.229080 0
M  V30 2 C -2.044057 -2.652040 1.354625 0
M  V30 3 O -0.946487 -2.114366 0.944685 0
M  V30 4 C -0.059767 -2.981194 0.527527 0
M  V30 5 C 1.282249 -2.808305 -0.005815 0
M  V30 6 N 2.108624 -3.789842 -0.405481 0
M  V30 7 N 3.250911 -3.286011 -0.836791 0
M  V30 8 C 3.227035 -1.943880 -0.739687 0
M  V30 9 C 4.197504 -0.999096 -1.072669 0
M  V30 10 C 3.808106 0.301047 -0.829933 0
M  V30 11 N 2.610676 0.643062 -0.321060 0
M  V30 12 C 1.686176 -0.308666 -0.007211 0
M  V30 13 O 0.471878 0.036311 0.508883 0
M  V30 14 C 0.008849 1.328115 0.781700 0
M  V30 15 C -1.146928 1.624442 -0.130810 0
M  V30 16 C -2.195508 2.523615 0.397582 0
M  V30 17 O -2.169785 2.802925 1.735878 0
M  V30 18 C -1.782578 1.649796 2.418274 0
M  V30 19 C -0.280846 1.576718 2.221529 0
M  V30 20 C 1.983132 -1.640824 -0.214533 0
M  V30 21 C -0.696334 -4.191095 0.705976 0
M  V30 22 H -2.740125 -4.712631 1.500884 0
M  V30 23 H -2.840526 -2.012683 1.720109 0
M  V30 24 H 4.001935 -3.921811 -1.183174 0
M  V30 25 H 5.154898 -1.290731 -1.480566 0
M  V30 26 H 4.517510 1.108865 -1.065888 0
M  V30 27 H 0.837145 2.004426 0.481593 0
M  V30 28 H -1.631683 0.647601 -0.408148 0
M  V30 29 H -0.799774 2.012649 -1.127194 0
M  V30 30 H -2.141878 3.519959 -0.134269 0
M  V30 31 H -3.221411 2.149227 0.108354 0
M  V30 32 H -2.214592 0.800061 1.834164 0
M  V30 33 H -2.095085 1.623076 3.465359 0
M  V30 34 H 0.097777 2.577035 2.514882 0
M  V30 35 H 0.211280 0.803648 2.836999 0
M  V30 36 H -0.276649 -5.182226 0.470129 0
M  V30 END ATOM
M  V30 BEGIN BOND
M  V30 1 2 1 2
M  V30 2 1 2 3
M  V30 3 1 3 4
M  V30 4 1 4 5
M  V30 5 2 5 6
M  V30 6 1 6 7
M  V30 7 1 7 8
M  V30 8 2 8 9
M  V30 9 1 9 10
M  V30 10 2 10 11
M  V30 11 1 11 12
M  V30 12 1 12 13
M  V30 13 1 13 14
M  V30 14 1 14 15
M  V30 15 1 15 16
M  V30 16 1 16 17
M  V30 17 1 17 18
M  V30 18 1 18 19
M  V30 19 2 12 20
M  V30 20 2 4 21
M  V30 21 1 21 1
M  V30 22 1 20 5
M  V30 23 1 20 8
M  V30 24 1 19 14
M  V30 25 1 1 22
M  V30 26 1 2 23
M  V30 27 1 7 24
M  V30 28 1 9 25
M  V30 29 1 10 26
M  V30 30 1 14 27
M  V30 31 1 15 28
M  V30 32 1 15 29
M  V30 33 1 16 30
M  V30 34 1 16 31
M  V30 35 1 18 32
M  V30 36 1 18 33
M  V30 37 1 19 34
M  V30 38 1 19 35
M  V30 39 1 21 36
M  V30 END BOND
M  V30 END CTAB
M  END
>  <Dataset>  (869) 
ChEMBL_Kinases

>  <Ligand_Instance>  (869) 
nan

>  <PDB_ID>  (869) 
nan

>  <Standardized_SMILES>  (869) 
c1coc(-c2n[nH]c3ccnc(OC4CCOCC4)c23)c1

>  <Name>  (869) 
nan

>  <Pocket>  (869) 
nan

>  <ATP_Site>  (869) 
nan

>  <Peripheral>  (869) 
nan

>  <Num_H_Atoms_ProtBoundConf>  (869) 
nan

>  <Num_Resolved_Atoms>  (869) 
nan

>  <Num_Not_Resolved_Atoms>  (869) 
nan

$$$$
CHEMBL3651739
     RDKit          3D

  0  0  0  0  0  0  0  0  0  0999 V3000
M  V30 BEGIN CTAB
M  V30 COUNTS 49 53 0 0 0
M  V30 BEGIN ATOM
M  V30 1 C 0.991645 -4.715590 3.185564 0
M  V30 2 C 2.283767 -4.179333 3.148402 0
M  V30 3 C 2.515416 -3.063848 2.369524 0
M  V30 4 N 3.552773 -2.292384 2.084096 0
M  V30 5 N 3.219900 -1.319690 1.253415 0
M  V30 6 C 1.899335 -1.412369 0.944371 0
M  V30 7 C 1.255926 -0.462527 0.045629 0
M  V30 8 C 0.401366 -0.552687 -1.032406 0
M  V30 9 N 0.119733 0.682136 -1.483155 0
M  V30 10 N 0.752049 1.592084 -0.749472 0
M  V30 11 C 0.732967 3.053265 -0.884152 0
M  V30 12 C 2.074116 3.591848 -1.261095 0
M  V30 13 C 2.717719 4.097966 -0.007670 0
M  V30 14 C 1.666509 4.180694 1.056803 0
M  V30 15 C 0.386642 3.719033 0.414385 0
M  V30 16 C 1.447744 0.919581 0.184364 0
M  V30 17 C 1.479305 -2.506543 1.651249 0
M  V30 18 C 0.214323 -3.049489 1.701523 0
M  V30 19 O -0.836927 -2.497352 0.984037 0
M  V30 20 C -2.130247 -3.069471 1.049238 0
M  V30 21 C -3.168938 -2.113096 1.500070 0
M  V30 22 C -4.338639 -1.887417 0.616141 0
M  V30 23 O -4.696233 -2.898399 -0.222538 0
M  V30 24 C -3.973190 -4.061158 -0.117101 0
M  V30 25 C -2.505282 -3.690685 -0.301457 0
M  V30 26 N 0.002042 -4.136893 2.464609 0
M  V30 27 H 0.819939 -5.601689 3.807688 0
M  V30 28 H 3.108749 -4.614256 3.713519 0
M  V30 29 H 4.534478 -2.428127 2.468376 0
M  V30 30 H 0.067348 -1.516577 -1.389147 0
M  V30 31 H -0.040845 3.356456 -1.616405 0
M  V30 32 H 2.707296 2.847662 -1.792781 0
M  V30 33 H 1.916124 4.474549 -1.930170 0
M  V30 34 H 3.131536 5.126752 -0.146736 0
M  V30 35 H 3.560032 3.442485 0.299904 0
M  V30 36 H 1.949202 3.587152 1.962331 0
M  V30 37 H 1.508912 5.232305 1.415010 0
M  V30 38 H -0.370738 4.518353 0.319723 0
M  V30 39 H -0.037719 2.943387 1.100516 0
M  V30 40 H 2.065501 1.409851 0.931219 0
M  V30 41 H -2.076670 -3.958560 1.738270 0
M  V30 42 H -2.658352 -1.112958 1.619791 0
M  V30 43 H -3.458742 -2.370224 2.547557 0
M  V30 44 H -5.220085 -1.675881 1.276608 0
M  V30 45 H -4.219067 -0.972092 -0.003350 0
M  V30 46 H -4.095051 -4.506438 0.870909 0
M  V30 47 H -4.322781 -4.729650 -0.949581 0
M  V30 48 H -1.887353 -4.569781 -0.500801 0
M  V30 49 H -2.452636 -2.917844 -1.091226 0
M  V30 END ATOM
M  V30 BEGIN BOND
M  V30 1 2 1 2
M  V30 2 1 2 3
M  V30 3 1 3 4
M  V30 4 1 4 5
M  V30 5 2 5 6
M  V30 6 1 6 7
M  V30 7 1 7 8
M  V30 8 2 8 9
M  V30 9 1 9 10
M  V30 10 1 10 11
M  V30 11 1 11 12
M  V30 12 1 12 13
M  V30 13 1 13 14
M  V30 14 1 14 15
M  V30 15 1 10 16
M  V30 16 1 6 17
M  V30 17 1 17 18
M  V30 18 1 18 19
M  V30 19 1 19 20
M  V30 20 1 20 21
M  V30 21 1 21 22
M  V30 22 1 22 23
M  V30 23 1 23 24
M  V30 24 1 24 25
M  V30 25 2 18 26
M  V30 26 1 26 1
M  V30 27 2 17 3
M  V30 28 1 25 20
M  V30 29 2 16 7
M  V30 30 1 15 11
M  V30 31 1 1 27
M  V30 32 1 2 28
M  V30 33 1 4 29
M  V30 34 1 8 30
M  V30 35 1 11 31
M  V30 36 1 12 32
M  V30 37 1 12 33
M  V30 38 1 13 34
M  V30 39 1 13 35
M  V30 40 1 14 36
M  V30 41 1 14 37
M  V30 42 1 15 38
M  V30 43 1 15 39
M  V30 44 1 16 40
M  V30 45 1 20 41
M  V30 46 1 21 42
M  V30 47 1 21 43
M  V30 48 1 22 44
M  V30 49 1 22 45
M  V30 50 1 24 46
M  V30 51 1 24 47
M  V30 52 1 25 48
M  V30 53 1 25 49
M  V30 END BOND
M  V30 END CTAB
M  END
>  <Dataset>  (870) 
ChEMBL_Kinases

>  <Ligand_Instance>  (870) 
nan

>  <PDB_ID>  (870) 
nan

>  <Standardized_SMILES>  (870) 
c1cc2[nH]nc(-c3cnn(C4CCCC4)c3)c2c(OC2CCOCC2)n1

>  <Name>  (870) 
nan

>  <Pocket>  (870) 
nan

>  <ATP_Site>  (870) 
nan

>  <Peripheral>  (870) 
nan

>  <Num_H_Atoms_ProtBoundConf>  (870) 
nan

>  <Num_Resolved_Atoms>  (870) 
nan

>  <Num_Not_Resolved_Atoms>  (870) 
nan

$$$$
CHEMBL3651740
     RDKit          3D

  0  0  0  0  0  0  0  0  0  0999 V3000
M  V30 BEGIN CTAB
M  V30 COUNTS 51 55 0 0 0
M  V30 BEGIN ATOM
M  V30 1 C 1.073985 -5.119410 2.688016 0
M  V30 2 C 2.121238 -4.414484 3.248164 0
M  V30 3 C 2.300338 -3.065366 3.005700 0
M  V30 4 N 3.149420 -2.079624 3.343474 0
M  V30 5 N 2.804399 -0.936796 2.779287 0
M  V30 6 C 1.689307 -1.103431 2.023834 0
M  V30 7 C 1.082249 -0.013324 1.282406 0
M  V30 8 C -0.201845 0.462256 1.113472 0
M  V30 9 N -0.215579 1.524888 0.294899 0
M  V30 10 N 1.032683 1.757313 -0.077190 0
M  V30 11 C 1.311063 2.845176 -0.961330 0
M  V30 12 C 1.597901 4.156053 -0.297716 0
M  V30 13 C 2.804883 4.060480 0.611251 0
M  V30 14 C 1.866181 4.086277 1.802533 0
M  V30 15 C 0.770060 4.509201 0.889234 0
M  V30 16 C 1.855517 0.851202 0.495561 0
M  V30 17 C 1.391397 -2.439896 2.178992 0
M  V30 18 C 0.354024 -3.156733 1.628981 0
M  V30 19 O -0.555360 -2.559426 0.808637 0
M  V30 20 C -1.648663 -3.226696 0.204041 0
M  V30 21 C -2.896100 -2.603895 0.748881 0
M  V30 22 C -4.130968 -2.995722 -0.067287 0
M  V30 23 C -3.883184 -2.406136 -1.444186 0
M  V30 24 C -2.767816 -3.246325 -2.047889 0
M  V30 25 C -1.491382 -3.079408 -1.280646 0
M  V30 26 N 0.202925 -4.464078 1.880143 0
M  V30 27 H 0.932820 -6.171303 2.876049 0
M  V30 28 H 2.845031 -4.889581 3.900249 0
M  V30 29 H 3.976989 -2.253841 3.986654 0
M  V30 30 H -1.031835 0.003953 1.599591 0
M  V30 31 H 0.513671 3.004749 -1.714832 0
M  V30 32 H 2.220444 2.591588 -1.579985 0
M  V30 33 H 1.622993 4.975605 -1.036826 0
M  V30 34 H 3.356365 5.026556 0.540897 0
M  V30 35 H 3.419072 3.158574 0.487348 0
M  V30 36 H 1.784859 3.115261 2.304810 0
M  V30 37 H 2.143940 4.849183 2.573234 0
M  V30 38 H 0.595484 5.598096 0.974967 0
M  V30 39 H -0.199003 3.991996 0.996657 0
M  V30 40 H 2.927368 0.815788 0.357223 0
M  V30 41 H -1.594695 -4.290357 0.535989 0
M  V30 42 H -2.989245 -2.860734 1.805055 0
M  V30 43 H -2.792098 -1.499445 0.559185 0
M  V30 44 H -4.276112 -4.087153 -0.101636 0
M  V30 45 H -4.979960 -2.469997 0.418385 0
M  V30 46 H -4.770811 -2.448569 -2.095584 0
M  V30 47 H -3.524110 -1.353394 -1.283780 0
M  V30 48 H -3.135195 -4.305332 -1.959637 0
M  V30 49 H -2.586631 -2.967574 -3.093162 0
M  V30 50 H -0.792214 -3.883250 -1.608457 0
M  V30 51 H -1.036096 -2.119623 -1.568994 0
M  V30 END ATOM
M  V30 BEGIN BOND
M  V30 1 2 1 2
M  V30 2 1 2 3
M  V30 3 1 3 4
M  V30 4 1 4 5
M  V30 5 2 5 6
M  V30 6 1 6 7
M  V30 7 1 7 8
M  V30 8 2 8 9
M  V30 9 1 9 10
M  V30 10 1 10 11
M  V30 11 1 11 12
M  V30 12 1 12 13
M  V30 13 1 13 14
M  V30 14 1 14 15
M  V30 15 1 10 16
M  V30 16 1 6 17
M  V30 17 1 17 18
M  V30 18 1 18 19
M  V30 19 1 19 20
M  V30 20 1 20 21
M  V30 21 1 21 22
M  V30 22 1 22 23
M  V30 23 1 23 24
M  V30 24 1 24 25
M  V30 25 2 18 26
M  V30 26 1 26 1
M  V30 27 2 17 3
M  V30 28 1 25 20
M  V30 29 2 16 7
M  V30 30 1 15 12
M  V30 31 1 1 27
M  V30 32 1 2 28
M  V30 33 1 4 29
M  V30 34 1 8 30
M  V30 35 1 11 31
M  V30 36 1 11 32
M  V30 37 1 12 33
M  V30 38 1 13 34
M  V30 39 1 13 35
M  V30 40 1 14 36
M  V30 41 1 14 37
M  V30 42 1 15 38
M  V30 43 1 15 39
M  V30 44 1 16 40
M  V30 45 1 20 41
M  V30 46 1 21 42
M  V30 47 1 21 43
M  V30 48 1 22 44
M  V30 49 1 22 45
M  V30 50 1 23 46
M  V30 51 1 23 47
M  V30 52 1 24 48
M  V30 53 1 24 49
M  V30 54 1 25 50
M  V30 55 1 25 51
M  V30 END BOND
M  V30 END CTAB
M  END
>  <Dataset>  (871) 
ChEMBL_Kinases

>  <Ligand_Instance>  (871) 
nan

>  <PDB_ID>  (871) 
nan

>  <Standardized_SMILES>  (871) 
c1cc2[nH]nc(-c3cnn(CC4CCC4)c3)c2c(OC2CCCCC2)n1

>  <Name>  (871) 
nan

>  <Pocket>  (871) 
nan

>  <ATP_Site>  (871) 
nan

>  <Peripheral>  (871) 
nan

>  <Num_H_Atoms_ProtBoundConf>  (871) 
nan

>  <Num_Resolved_Atoms>  (871) 
nan

>  <Num_Not_Resolved_Atoms>  (871) 
nan

$$$$
CHEMBL3651741
     RDKit          3D

  0  0  0  0  0  0  0  0  0  0999 V3000
M  V30 BEGIN CTAB
M  V30 COUNTS 51 53 0 0 0
M  V30 BEGIN ATOM
M  V30 1 C 2.258593 -2.256236 2.794417 0
M  V30 2 C 2.419077 -2.653217 1.324622 0
M  V30 3 C 1.461016 -3.799168 1.045616 0
M  V30 4 O 2.119805 -1.513530 0.582674 0
M  V30 5 C 3.047337 -0.980260 -0.286819 0
M  V30 6 N 4.285771 -1.523133 -0.493542 0
M  V30 7 C 5.112895 -0.932570 -1.357079 0
M  V30 8 C 4.891265 0.200416 -2.109712 0
M  V30 9 C 3.627233 0.755697 -1.900032 0
M  V30 10 N 3.089722 1.855110 -2.470478 0
M  V30 11 N 1.854157 2.005241 -1.965819 0
M  V30 12 C 1.636610 0.996533 -1.086017 0
M  V30 13 C 0.384218 0.870142 -0.360956 0
M  V30 14 C 0.000251 0.673665 0.974761 0
M  V30 15 C -1.406847 0.609884 1.046063 0
M  V30 16 C -1.731954 0.371574 2.450528 0
M  V30 17 O -1.805711 1.279532 3.337299 0
M  V30 18 N -2.026938 -0.839756 3.138936 0
M  V30 19 C -2.256462 -0.386038 4.508578 0
M  V30 20 C -2.140513 -2.264703 2.839779 0
M  V30 21 N -1.837514 0.763390 -0.191857 0
M  V30 22 C -3.264840 0.733872 -0.295182 0
M  V30 23 C -3.976018 -0.230821 0.579423 0
M  V30 24 C -3.601587 0.386896 -1.744820 0
M  V30 25 C -0.820116 0.919450 -1.054472 0
M  V30 26 C 2.752195 0.173427 -1.017429 0
M  V30 27 H 3.065827 -2.766601 3.346381 0
M  V30 28 H 2.302286 -1.157059 2.932474 0
M  V30 29 H 1.297003 -2.646812 3.167645 0
M  V30 30 H 3.445436 -2.982897 1.109992 0
M  V30 31 H 1.155142 -4.286066 2.002072 0
M  V30 32 H 1.994224 -4.582219 0.475213 0
M  V30 33 H 0.565873 -3.481111 0.471400 0
M  V30 34 H 6.054858 -1.467264 -1.421743 0
M  V30 35 H 5.643279 0.574965 -2.771762 0
M  V30 36 H 3.578211 2.469906 -3.184565 0
M  V30 37 H 0.896209 0.628276 1.616446 0
M  V30 38 H -3.121676 0.277363 4.607755 0
M  V30 39 H -2.441161 -1.277574 5.168348 0
M  V30 40 H -1.319535 0.063860 4.940955 0
M  V30 41 H -3.181996 -2.637416 2.916213 0
M  V30 42 H -1.671336 -2.467896 1.847289 0
M  V30 43 H -1.540372 -2.836057 3.593133 0
M  V30 44 H -3.722222 1.744072 -0.132148 0
M  V30 45 H -3.484894 -1.211277 0.521531 0
M  V30 46 H -4.173299 0.141835 1.604028 0
M  V30 47 H -5.002456 -0.375950 0.123149 0
M  V30 48 H -3.145965 -0.575212 -2.062511 0
M  V30 49 H -3.235693 1.180983 -2.439995 0
M  V30 50 H -4.701078 0.275854 -1.905948 0
M  V30 51 H -1.080608 1.052193 -2.089176 0
M  V30 END ATOM
M  V30 BEGIN BOND
M  V30 1 1 1 2
M  V30 2 1 2 3
M  V30 3 1 2 4
M  V30 4 1 4 5
M  V30 5 2 5 6
M  V30 6 1 6 7
M  V30 7 2 7 8
M  V30 8 1 8 9
M  V30 9 1 9 10
M  V30 10 1 10 11
M  V30 11 2 11 12
M  V30 12 1 12 13
M  V30 13 1 13 14
M  V30 14 2 14 15
M  V30 15 1 15 16
M  V30 16 2 16 17
M  V30 17 1 16 18
M  V30 18 1 18 19
M  V30 19 1 18 20
M  V30 20 1 15 21
M  V30 21 1 21 22
M  V30 22 1 22 23
M  V30 23 1 22 24
M  V30 24 1 21 25
M  V30 25 1 12 26
M  V30 26 1 26 5
M  V30 27 2 26 9
M  V30 28 2 25 13
M  V30 29 1 1 27
M  V30 30 1 1 28
M  V30 31 1 1 29
M  V30 32 1 2 30
M  V30 33 1 3 31
M  V30 34 1 3 32
M  V30 35 1 3 33
M  V30 36 1 7 34
M  V30 37 1 8 35
M  V30 38 1 10 36
M  V30 39 1 14 37
M  V30 40 1 19 38
M  V30 41 1 19 39
M  V30 42 1 19 40
M  V30 43 1 20 41
M  V30 44 1 20 42
M  V30 45 1 20 43
M  V30 46 1 22 44
M  V30 47 1 23 45
M  V30 48 1 23 46
M  V30 49 1 23 47
M  V30 50 1 24 48
M  V30 51 1 24 49
M  V30 52 1 24 50
M  V30 53 1 25 51
M  V30 END BOND
M  V30 END CTAB
M  END
>  <Dataset>  (872) 
ChEMBL_Kinases

>  <Ligand_Instance>  (872) 
nan

>  <PDB_ID>  (872) 
nan

>  <Standardized_SMILES>  (872) 
CC(C)Oc1nccc2[nH]nc(-c3cc(C(=O)N(C)C)n(C(C)C)c3)c12

>  <Name>  (872) 
nan

>  <Pocket>  (872) 
nan

>  <ATP_Site>  (872) 
nan

>  <Peripheral>  (872) 
nan

>  <Num_H_Atoms_ProtBoundConf>  (872) 
nan

>  <Num_Resolved_Atoms>  (872) 
nan

>  <Num_Not_Resolved_Atoms>  (872) 
nan

$$$$
CHEMBL3651733
     RDKit          3D

  0  0  0  0  0  0  0  0  0  0999 V3000
M  V30 BEGIN CTAB
M  V30 COUNTS 55 59 0 0 0
M  V30 BEGIN ATOM
M  V30 1 C -2.965628 -5.181002 2.382837 0
M  V30 2 N -1.764701 -5.110897 1.572394 0
M  V30 3 C -1.736100 -3.905884 0.795006 0
M  V30 4 C -0.341332 -3.367385 0.547845 0
M  V30 5 N 0.355085 -3.090469 1.787429 0
M  V30 6 C 1.306115 -2.048603 1.968793 0
M  V30 7 C 1.618667 -1.219549 0.935410 0
M  V30 8 C 2.540637 -0.212971 1.119810 0
M  V30 9 C 3.005617 0.788394 0.169801 0
M  V30 10 N 4.350648 0.989548 0.019205 0
M  V30 11 N 4.561974 1.938154 -0.878110 0
M  V30 12 C 3.391523 2.408851 -1.361587 0
M  V30 13 C 3.019407 3.368251 -2.280237 0
M  V30 14 C 1.661639 3.544646 -2.481267 0
M  V30 15 N 0.736586 2.811832 -1.809461 0
M  V30 16 C 1.104918 1.871174 -0.908918 0
M  V30 17 O 0.123321 1.149582 -0.246476 0
M  V30 18 C -1.212418 1.460440 -0.569986 0
M  V30 19 C -2.028705 1.917266 0.611333 0
M  V30 20 C -3.429532 2.196138 0.107921 0
M  V30 21 O -3.973459 1.098430 -0.542698 0
M  V30 22 C -3.263266 0.799539 -1.695183 0
M  V30 23 C -1.913692 0.278409 -1.243880 0
M  V30 24 C 2.447093 1.676571 -0.692147 0
M  V30 25 C 3.091750 -0.136713 2.407362 0
M  V30 26 C 2.782185 -0.971990 3.461657 0
M  V30 27 N 1.871571 -1.921521 3.181376 0
M  V30 28 C -0.007303 -3.990867 2.864404 0
M  V30 29 C -0.549707 -5.292828 2.340287 0
M  V30 30 H -3.447090 -4.163721 2.358556 0
M  V30 31 H -3.728683 -5.863165 1.920238 0
M  V30 32 H -2.679913 -5.466993 3.393944 0
M  V30 33 H -2.384885 -3.152928 1.267197 0
M  V30 34 H -2.147761 -4.175840 -0.213247 0
M  V30 35 H -0.462658 -2.470898 -0.068645 0
M  V30 36 H 0.189020 -4.182701 -0.011731 0
M  V30 37 H 1.201121 -1.297964 -0.034178 0
M  V30 38 H 5.499109 2.292329 -1.187421 0
M  V30 39 H 3.793493 3.925347 -2.789107 0
M  V30 40 H 1.339296 4.303349 -3.208670 0
M  V30 41 H -1.272114 2.274172 -1.336638 0
M  V30 42 H -1.581767 2.865614 0.954758 0
M  V30 43 H -2.098042 1.157149 1.406072 0
M  V30 44 H -4.083970 2.395799 0.993126 0
M  V30 45 H -3.444330 3.122004 -0.498996 0
M  V30 46 H -3.058659 1.753291 -2.252526 0
M  V30 47 H -3.829074 0.090212 -2.319294 0
M  V30 48 H -1.976736 -0.605149 -0.606334 0
M  V30 49 H -1.335859 0.076479 -2.192486 0
M  V30 50 H 3.837428 0.642193 2.634146 0
M  V30 51 H 3.256394 -0.841438 4.424083 0
M  V30 52 H 0.890164 -4.227268 3.472519 0
M  V30 53 H -0.734814 -3.516902 3.562238 0
M  V30 54 H -0.775585 -5.948218 3.183806 0
M  V30 55 H 0.198106 -5.772235 1.692917 0
M  V30 END ATOM
M  V30 BEGIN BOND
M  V30 1 1 1 2
M  V30 2 1 2 3
M  V30 3 1 3 4
M  V30 4 1 4 5
M  V30 5 1 5 6
M  V30 6 2 6 7
M  V30 7 1 7 8
M  V30 8 1 8 9
M  V30 9 2 9 10
M  V30 10 1 10 11
M  V30 11 1 11 12
M  V30 12 2 12 13
M  V30 13 1 13 14
M  V30 14 2 14 15
M  V30 15 1 15 16
M  V30 16 1 16 17
M  V30 17 1 17 18
M  V30 18 1 18 19
M  V30 19 1 19 20
M  V30 20 1 20 21
M  V30 21 1 21 22
M  V30 22 1 22 23
M  V30 23 2 16 24
M  V30 24 2 8 25
M  V30 25 1 25 26
M  V30 26 2 26 27
M  V30 27 1 5 28
M  V30 28 1 28 29
M  V30 29 1 29 2
M  V30 30 1 27 6
M  V30 31 1 24 9
M  V30 32 1 24 12
M  V30 33 1 23 18
M  V30 34 1 1 30
M  V30 35 1 1 31
M  V30 36 1 1 32
M  V30 37 1 3 33
M  V30 38 1 3 34
M  V30 39 1 4 35
M  V30 40 1 4 36
M  V30 41 1 7 37
M  V30 42 1 11 38
M  V30 43 1 13 39
M  V30 44 1 14 40
M  V30 45 1 18 41
M  V30 46 1 19 42
M  V30 47 1 19 43
M  V30 48 1 20 44
M  V30 49 1 20 45
M  V30 50 1 22 46
M  V30 51 1 22 47
M  V30 52 1 23 48
M  V30 53 1 23 49
M  V30 54 1 25 50
M  V30 55 1 26 51
M  V30 56 1 28 52
M  V30 57 1 28 53
M  V30 58 1 29 54
M  V30 59 1 29 55
M  V30 END BOND
M  V30 END CTAB
M  END
>  <Dataset>  (873) 
ChEMBL_Kinases

>  <Ligand_Instance>  (873) 
nan

>  <PDB_ID>  (873) 
nan

>  <Standardized_SMILES>  (873) 
CN1CCN(c2cc(-c3n[nH]c4ccnc(OC5CCOCC5)c34)ccn2)CC1

>  <Name>  (873) 
nan

>  <Pocket>  (873) 
nan

>  <ATP_Site>  (873) 
nan

>  <Peripheral>  (873) 
nan

>  <Num_H_Atoms_ProtBoundConf>  (873) 
nan

>  <Num_Resolved_Atoms>  (873) 
nan

>  <Num_Not_Resolved_Atoms>  (873) 
nan

$$$$
CHEMBL3651790
     RDKit          3D

  0  0  0  0  0  0  0  0  0  0999 V3000
M  V30 BEGIN CTAB
M  V30 COUNTS 41 44 0 0 0
M  V30 BEGIN ATOM
M  V30 1 C -2.703822 -0.766663 3.003839 0
M  V30 2 C -2.939429 -1.201145 1.603349 0
M  V30 3 N -4.078046 -1.647792 1.016523 0
M  V30 4 N -3.838823 -1.931781 -0.272938 0
M  V30 5 C -2.528132 -1.673394 -0.553753 0
M  V30 6 C -1.884560 -1.832245 -1.759975 0
M  V30 7 C -0.533399 -1.487373 -1.755881 0
M  V30 8 C 0.271208 -1.609731 -2.978737 0
M  V30 9 C 1.742486 -1.705146 -2.936185 0
M  V30 10 C 1.158508 -0.372325 -3.243013 0
M  V30 11 N 0.040876 -1.034965 -0.610625 0
M  V30 12 C -0.648146 -0.905458 0.529106 0
M  V30 13 O 0.022097 -0.429248 1.672068 0
M  V30 14 C 1.410385 -0.100427 1.580956 0
M  V30 15 C 1.547342 1.371572 1.724960 0
M  V30 16 C 2.866154 1.681348 2.421719 0
M  V30 17 C 2.663423 1.121356 3.828668 0
M  V30 18 C 2.798231 -0.373603 3.698334 0
M  V30 19 C 2.290425 -0.936144 2.425518 0
M  V30 20 C -1.972647 -1.218159 0.619954 0
M  V30 21 H -1.879503 -1.301531 3.494146 0
M  V30 22 H -3.605768 -0.961384 3.628736 0
M  V30 23 H -2.560519 0.337722 3.054062 0
M  V30 24 H -4.962344 -1.726101 1.564995 0
M  V30 25 H -2.389906 -2.196230 -2.640183 0
M  V30 26 H -0.301241 -1.987240 -3.845460 0
M  V30 27 H 2.215251 -2.225411 -3.792995 0
M  V30 28 H 2.244025 -1.852583 -1.956160 0
M  V30 29 H 1.156533 0.051715 -4.269008 0
M  V30 30 H 1.236095 0.393757 -2.450699 0
M  V30 31 H 1.652290 -0.327903 0.499907 0
M  V30 32 H 1.483469 1.922299 0.784931 0
M  V30 33 H 0.762817 1.754837 2.413582 0
M  V30 34 H 3.084243 2.762548 2.457594 0
M  V30 35 H 3.623437 1.066062 1.914840 0
M  V30 36 H 1.624038 1.327158 4.163598 0
M  V30 37 H 3.408890 1.530288 4.539829 0
M  V30 38 H 3.879921 -0.591500 3.847688 0
M  V30 39 H 2.303121 -0.821056 4.608807 0
M  V30 40 H 3.169525 -1.325346 1.837382 0
M  V30 41 H 1.724327 -1.874827 2.685604 0
M  V30 END ATOM
M  V30 BEGIN BOND
M  V30 1 1 1 2
M  V30 2 1 2 3
M  V30 3 1 3 4
M  V30 4 2 4 5
M  V30 5 1 5 6
M  V30 6 2 6 7
M  V30 7 1 7 8
M  V30 8 1 8 9
M  V30 9 1 9 10
M  V30 10 1 7 11
M  V30 11 2 11 12
M  V30 12 1 12 13
M  V30 13 1 13 14
M  V30 14 1 14 15
M  V30 15 1 15 16
M  V30 16 1 16 17
M  V30 17 1 17 18
M  V30 18 1 18 19
M  V30 19 1 12 20
M  V30 20 2 20 2
M  V30 21 1 20 5
M  V30 22 1 10 8
M  V30 23 1 19 14
M  V30 24 1 1 21
M  V30 25 1 1 22
M  V30 26 1 1 23
M  V30 27 1 3 24
M  V30 28 1 6 25
M  V30 29 1 8 26
M  V30 30 1 9 27
M  V30 31 1 9 28
M  V30 32 1 10 29
M  V30 33 1 10 30
M  V30 34 1 14 31
M  V30 35 1 15 32
M  V30 36 1 15 33
M  V30 37 1 16 34
M  V30 38 1 16 35
M  V30 39 1 17 36
M  V30 40 1 17 37
M  V30 41 1 18 38
M  V30 42 1 18 39
M  V30 43 1 19 40
M  V30 44 1 19 41
M  V30 END BOND
M  V30 END CTAB
M  END
>  <Dataset>  (874) 
ChEMBL_Kinases

>  <Ligand_Instance>  (874) 
nan

>  <PDB_ID>  (874) 
nan

>  <Standardized_SMILES>  (874) 
Cc1[nH]nc2cc(C3CC3)nc(OC3CCCCC3)c12

>  <Name>  (874) 
nan

>  <Pocket>  (874) 
nan

>  <ATP_Site>  (874) 
nan

>  <Peripheral>  (874) 
nan

>  <Num_H_Atoms_ProtBoundConf>  (874) 
nan

>  <Num_Resolved_Atoms>  (874) 
nan

>  <Num_Not_Resolved_Atoms>  (874) 
nan

$$$$
CHEMBL3651789
     RDKit          3D

  0  0  0  0  0  0  0  0  0  0999 V3000
M  V30 BEGIN CTAB
M  V30 COUNTS 47 51 0 0 0
M  V30 BEGIN ATOM
M  V30 1 C 0.808567 -4.443126 3.717425 0
M  V30 2 C 2.135766 -4.428672 3.314633 0
M  V30 3 C 2.487421 -3.542813 2.314258 0
M  V30 4 N 3.602552 -3.200833 1.644651 0
M  V30 5 N 3.361506 -2.253533 0.756598 0
M  V30 6 C 2.045260 -1.913232 0.794352 0
M  V30 7 C 1.509050 -0.886001 -0.087062 0
M  V30 8 C 0.410415 -0.756340 -0.906951 0
M  V30 9 N 0.411852 0.433186 -1.491531 0
M  V30 10 N 1.455805 1.116871 -1.109866 0
M  V30 11 C 1.754822 2.455692 -1.563321 0 CFG=1
M  V30 12 C 0.480691 3.289458 -1.567271 0
M  V30 13 C 0.573646 4.109520 -0.314615 0
M  V30 14 O 1.770859 3.826405 0.311337 0
M  V30 15 C 2.619666 3.240532 -0.618786 0
M  V30 16 C 2.142979 0.350089 -0.259568 0
M  V30 17 C 1.517222 -2.726607 1.770895 0
M  V30 18 C 0.209401 -2.761661 2.189341 0
M  V30 19 O -0.809600 -1.951490 1.668305 0
M  V30 20 C -2.127872 -2.100971 2.205998 0
M  V30 21 C -2.657211 -0.848778 2.829154 0
M  V30 22 C -2.827640 0.250339 1.781051 0
M  V30 23 O -2.437215 -0.210841 0.524068 0
M  V30 24 C -3.133717 -1.321040 0.120116 0
M  V30 25 C -3.029350 -2.492753 1.059893 0
M  V30 26 N -0.114941 -3.631426 3.165299 0
M  V30 27 H 0.567488 -5.149985 4.503955 0
M  V30 28 H 2.914780 -5.056849 3.723280 0
M  V30 29 H 4.536001 -3.648371 1.826270 0
M  V30 30 H -0.300778 -1.591158 -0.989053 0
M  V30 31 H 2.129687 2.413095 -2.597608 0
M  V30 32 H -0.409339 2.638457 -1.628383 0
M  V30 33 H 0.486874 3.983549 -2.427864 0
M  V30 34 H -0.230876 3.832175 0.378455 0
M  V30 35 H 0.446823 5.196681 -0.526077 0
M  V30 36 H 3.410512 2.678066 -0.123621 0
M  V30 37 H 3.109831 4.054606 -1.203165 0
M  V30 38 H 3.059057 0.694992 0.200838 0
M  V30 39 H -2.103801 -2.913553 2.989181 0
M  V30 40 H -2.064517 -0.489307 3.679182 0
M  V30 41 H -3.679084 -1.043091 3.210495 0
M  V30 42 H -3.839578 0.672185 1.756953 0
M  V30 43 H -2.108994 1.054685 2.039772 0
M  V30 44 H -4.223613 -1.109986 -0.026965 0
M  V30 45 H -2.696717 -1.627104 -0.877649 0
M  V30 46 H -2.535391 -3.343723 0.537881 0
M  V30 47 H -4.038210 -2.791611 1.427315 0
M  V30 END ATOM
M  V30 BEGIN BOND
M  V30 1 2 1 2
M  V30 2 1 2 3
M  V30 3 1 3 4
M  V30 4 1 4 5
M  V30 5 2 5 6
M  V30 6 1 6 7
M  V30 7 1 7 8
M  V30 8 2 8 9
M  V30 9 1 9 10
M  V30 10 1 10 11
M  V30 11 1 11 12
M  V30 12 1 12 13
M  V30 13 1 13 14
M  V30 14 1 14 15
M  V30 15 1 10 16
M  V30 16 1 6 17
M  V30 17 1 17 18
M  V30 18 1 18 19
M  V30 19 1 19 20
M  V30 20 1 20 21
M  V30 21 1 21 22
M  V30 22 1 22 23
M  V30 23 1 23 24
M  V30 24 1 24 25
M  V30 25 2 18 26
M  V30 26 1 26 1
M  V30 27 2 17 3
M  V30 28 1 25 20
M  V30 29 2 16 7
M  V30 30 1 15 11
M  V30 31 1 1 27
M  V30 32 1 2 28
M  V30 33 1 4 29
M  V30 34 1 8 30
M  V30 35 1 11 31 CFG=3
M  V30 36 1 12 32
M  V30 37 1 12 33
M  V30 38 1 13 34
M  V30 39 1 13 35
M  V30 40 1 15 36
M  V30 41 1 15 37
M  V30 42 1 16 38
M  V30 43 1 20 39
M  V30 44 1 21 40
M  V30 45 1 21 41
M  V30 46 1 22 42
M  V30 47 1 22 43
M  V30 48 1 24 44
M  V30 49 1 24 45
M  V30 50 1 25 46
M  V30 51 1 25 47
M  V30 END BOND
M  V30 END CTAB
M  END
>  <Dataset>  (875) 
ChEMBL_Kinases

>  <Ligand_Instance>  (875) 
nan

>  <PDB_ID>  (875) 
nan

>  <Standardized_SMILES>  (875) 
c1cc2[nH]nc(-c3cnn([C@H]4CCOC4)c3)c2c(OC2CCOCC2)n1

>  <Name>  (875) 
nan

>  <Pocket>  (875) 
nan

>  <ATP_Site>  (875) 
nan

>  <Peripheral>  (875) 
nan

>  <Num_H_Atoms_ProtBoundConf>  (875) 
nan

>  <Num_Resolved_Atoms>  (875) 
nan

>  <Num_Not_Resolved_Atoms>  (875) 
nan

$$$$
CHEMBL3651788
     RDKit          3D

  0  0  0  0  0  0  0  0  0  0999 V3000
M  V30 BEGIN CTAB
M  V30 COUNTS 48 52 0 0 0
M  V30 BEGIN ATOM
M  V30 1 C 0.613767 -5.098604 -1.078196 0
M  V30 2 C 1.947318 -4.859449 -0.790633 0
M  V30 3 C 2.244426 -3.591516 -0.329681 0
M  V30 4 N 3.380487 -2.998975 0.044063 0
M  V30 5 C 3.144713 -1.733445 0.421383 0
M  V30 6 C 1.789945 -1.456986 0.297654 0
M  V30 7 C 1.205483 -0.161739 0.621403 0
M  V30 8 C 0.328082 0.711965 0.014717 0
M  V30 9 N 0.162047 1.768063 0.822095 0
M  V30 10 N 0.877036 1.639496 1.920130 0
M  V30 11 C 0.817285 2.696151 2.911363 0 CFG=2
M  V30 12 C 1.714400 3.851845 2.495999 0
M  V30 13 C 3.032475 3.413522 3.054698 0
M  V30 14 O 2.807581 2.619503 4.151000 0
M  V30 15 C 1.488971 2.261228 4.188539 0
M  V30 16 C 1.529284 0.467032 1.829616 0
M  V30 17 C 1.260385 -2.638275 -0.172853 0
M  V30 18 C -0.045709 -2.939475 -0.476242 0
M  V30 19 O -1.039742 -2.012587 -0.328974 0
M  V30 20 C -2.390138 -2.221702 -0.609294 0
M  V30 21 C -2.853032 -1.262448 -1.684884 0
M  V30 22 C -4.320670 -0.932987 -1.483799 0
M  V30 23 O -4.520648 -0.215212 -0.317771 0
M  V30 24 C -3.643224 -0.551310 0.689502 0
M  V30 25 C -3.277195 -2.017159 0.600128 0
M  V30 26 N -0.366248 -4.169838 -0.928605 0
M  V30 27 H 0.354021 -6.078972 -1.439359 0
M  V30 28 H 2.701068 -5.608971 -0.917228 0
M  V30 29 H 4.330639 -3.457531 0.044055 0
M  V30 30 H 3.919491 -1.056739 0.765616 0
M  V30 31 H -0.083513 0.466490 -0.953593 0
M  V30 32 H -0.225918 3.034722 3.080006 0
M  V30 33 H 1.728840 3.972436 1.393996 0
M  V30 34 H 1.291520 4.759255 2.991010 0
M  V30 35 H 3.700530 4.283146 3.299312 0
M  V30 36 H 3.583562 2.848774 2.262579 0
M  V30 37 H 1.397122 1.142623 4.264440 0
M  V30 38 H 0.924199 2.653853 5.069070 0
M  V30 39 H 2.186461 0.166787 2.650529 0
M  V30 40 H -2.548935 -3.258566 -0.973607 0
M  V30 41 H -2.750853 -1.774229 -2.660293 0
M  V30 42 H -2.239469 -0.333610 -1.648082 0
M  V30 43 H -4.632666 -0.329095 -2.379075 0
M  V30 44 H -4.896657 -1.871678 -1.544353 0
M  V30 45 H -2.687617 0.025876 0.679328 0
M  V30 46 H -4.196801 -0.372077 1.656211 0
M  V30 47 H -4.216945 -2.586829 0.466199 0
M  V30 48 H -2.781132 -2.359975 1.526606 0
M  V30 END ATOM
M  V30 BEGIN BOND
M  V30 1 2 1 2
M  V30 2 1 2 3
M  V30 3 1 3 4
M  V30 4 1 4 5
M  V30 5 2 5 6
M  V30 6 1 6 7
M  V30 7 1 7 8
M  V30 8 2 8 9
M  V30 9 1 9 10
M  V30 10 1 10 11
M  V30 11 1 11 12
M  V30 12 1 12 13
M  V30 13 1 13 14
M  V30 14 1 14 15
M  V30 15 1 10 16
M  V30 16 1 6 17
M  V30 17 1 17 18
M  V30 18 1 18 19
M  V30 19 1 19 20
M  V30 20 1 20 21
M  V30 21 1 21 22
M  V30 22 1 22 23
M  V30 23 1 23 24
M  V30 24 1 24 25
M  V30 25 2 18 26
M  V30 26 1 26 1
M  V30 27 2 17 3
M  V30 28 1 25 20
M  V30 29 2 16 7
M  V30 30 1 15 11
M  V30 31 1 1 27
M  V30 32 1 2 28
M  V30 33 1 4 29
M  V30 34 1 5 30
M  V30 35 1 8 31
M  V30 36 1 11 32 CFG=1
M  V30 37 1 12 33
M  V30 38 1 12 34
M  V30 39 1 13 35
M  V30 40 1 13 36
M  V30 41 1 15 37
M  V30 42 1 15 38
M  V30 43 1 16 39
M  V30 44 1 20 40
M  V30 45 1 21 41
M  V30 46 1 21 42
M  V30 47 1 22 43
M  V30 48 1 22 44
M  V30 49 1 24 45
M  V30 50 1 24 46
M  V30 51 1 25 47
M  V30 52 1 25 48
M  V30 END BOND
M  V30 END CTAB
M  END
>  <Dataset>  (876) 
ChEMBL_Kinases

>  <Ligand_Instance>  (876) 
nan

>  <PDB_ID>  (876) 
nan

>  <Standardized_SMILES>  (876) 
c1cc2[nH]cc(-c3cnn([C@@H]4CCOC4)c3)c2c(OC2CCOCC2)n1

>  <Name>  (876) 
nan

>  <Pocket>  (876) 
nan

>  <ATP_Site>  (876) 
nan

>  <Peripheral>  (876) 
nan

>  <Num_H_Atoms_ProtBoundConf>  (876) 
nan

>  <Num_Resolved_Atoms>  (876) 
nan

>  <Num_Not_Resolved_Atoms>  (876) 
nan

$$$$
CHEMBL3651787
     RDKit          3D

  0  0  0  0  0  0  0  0  0  0999 V3000
M  V30 BEGIN CTAB
M  V30 COUNTS 51 55 0 0 0
M  V30 BEGIN ATOM
M  V30 1 C 1.334203 -6.550323 -0.221943 0
M  V30 2 C 0.290230 -5.588770 0.257208 0
M  V30 3 C -0.271291 -6.040611 1.610786 0
M  V30 4 N 0.780519 -4.225709 0.329867 0
M  V30 5 C 1.851635 -3.939130 1.126184 0
M  V30 6 C 2.091596 -2.585991 0.999392 0
M  V30 7 C 3.039250 -1.761036 1.568629 0
M  V30 8 C 2.985936 -0.420881 1.208731 0
M  V30 9 C 2.053178 0.141793 0.323376 0
M  V30 10 C 2.208916 1.568309 0.092559 0
M  V30 11 N 3.443528 2.062858 -0.207280 0
M  V30 12 N 3.378731 3.383637 -0.375895 0
M  V30 13 C 2.120515 3.819696 -0.198564 0
M  V30 14 C 1.452770 5.031747 -0.234788 0
M  V30 15 C 0.084122 5.043834 0.025999 0
M  V30 16 N -0.569205 3.897357 0.306827 0
M  V30 17 C 0.046534 2.702782 0.350501 0
M  V30 18 O -0.669829 1.583623 0.641398 0
M  V30 19 C -2.025607 1.494422 0.915213 0
M  V30 20 C -2.793743 0.688677 -0.113784 0
M  V30 21 C -4.225277 0.608224 0.325052 0
M  V30 22 O -4.428199 0.166670 1.606456 0
M  V30 23 C -3.242203 -0.275241 2.182070 0
M  V30 24 C -2.330808 0.931189 2.285293 0
M  V30 25 C 1.397684 2.682122 0.093470 0
M  V30 26 C 1.148708 -0.730877 -0.200456 0
M  V30 27 C 1.158541 -2.072989 0.125157 0
M  V30 28 N 0.374893 -3.094649 -0.265196 0
M  V30 29 H 1.097698 -7.531526 0.249705 0
M  V30 30 H 2.372989 -6.226156 -0.015933 0
M  V30 31 H 1.222941 -6.681685 -1.313183 0
M  V30 32 H -0.579582 -5.654736 -0.433953 0
M  V30 33 H 0.510303 -6.597526 2.167378 0
M  V30 34 H -1.224948 -6.562266 1.529565 0
M  V30 35 H -0.467990 -5.114058 2.188985 0
M  V30 36 H 2.431420 -4.614794 1.753969 0
M  V30 37 H 3.768479 -2.129967 2.243985 0
M  V30 38 H 3.758119 0.202733 1.684031 0
M  V30 39 H 4.172557 4.032019 -0.614262 0
M  V30 40 H 2.045259 5.923010 -0.469187 0
M  V30 41 H -0.425449 6.020122 -0.008713 0
M  V30 42 H -2.466063 2.510243 0.861927 0
M  V30 43 H -2.344092 -0.306219 -0.206640 0
M  V30 44 H -2.764057 1.273205 -1.056804 0
M  V30 45 H -4.736705 -0.145492 -0.343297 0
M  V30 46 H -4.764152 1.571557 0.217008 0
M  V30 47 H -2.741623 -1.086672 1.656448 0
M  V30 48 H -3.450518 -0.608226 3.222270 0
M  V30 49 H -2.893318 1.670899 2.889496 0
M  V30 50 H -1.400414 0.742841 2.843804 0
M  V30 51 H 0.441522 -0.334743 -0.878202 0
M  V30 END ATOM
M  V30 BEGIN BOND
M  V30 1 1 1 2
M  V30 2 1 2 3
M  V30 3 1 2 4
M  V30 4 1 4 5
M  V30 5 2 5 6
M  V30 6 1 6 7
M  V30 7 2 7 8
M  V30 8 1 8 9
M  V30 9 1 9 10
M  V30 10 2 10 11
M  V30 11 1 11 12
M  V30 12 1 12 13
M  V30 13 2 13 14
M  V30 14 1 14 15
M  V30 15 2 15 16
M  V30 16 1 16 17
M  V30 17 1 17 18
M  V30 18 1 18 19
M  V30 19 1 19 20
M  V30 20 1 20 21
M  V30 21 1 21 22
M  V30 22 1 22 23
M  V30 23 1 23 24
M  V30 24 2 17 25
M  V30 25 2 9 26
M  V30 26 1 26 27
M  V30 27 2 27 28
M  V30 28 1 28 4
M  V30 29 1 27 6
M  V30 30 1 25 10
M  V30 31 1 25 13
M  V30 32 1 24 19
M  V30 33 1 1 29
M  V30 34 1 1 30
M  V30 35 1 1 31
M  V30 36 1 2 32
M  V30 37 1 3 33
M  V30 38 1 3 34
M  V30 39 1 3 35
M  V30 40 1 5 36
M  V30 41 1 7 37
M  V30 42 1 8 38
M  V30 43 1 12 39
M  V30 44 1 14 40
M  V30 45 1 15 41
M  V30 46 1 19 42
M  V30 47 1 20 43
M  V30 48 1 20 44
M  V30 49 1 21 45
M  V30 50 1 21 46
M  V30 51 1 23 47
M  V30 52 1 23 48
M  V30 53 1 24 49
M  V30 54 1 24 50
M  V30 55 1 26 51
M  V30 END BOND
M  V30 END CTAB
M  END
>  <Dataset>  (877) 
ChEMBL_Kinases

>  <Ligand_Instance>  (877) 
nan

>  <PDB_ID>  (877) 
nan

>  <Standardized_SMILES>  (877) 
CC(C)n1cc2ccc(-c3n[nH]c4ccnc(OC5CCOCC5)c34)cc2n1

>  <Name>  (877) 
nan

>  <Pocket>  (877) 
nan

>  <ATP_Site>  (877) 
nan

>  <Peripheral>  (877) 
nan

>  <Num_H_Atoms_ProtBoundConf>  (877) 
nan

>  <Num_Resolved_Atoms>  (877) 
nan

>  <Num_Not_Resolved_Atoms>  (877) 
nan

$$$$
CHEMBL3651786
     RDKit          3D

  0  0  0  0  0  0  0  0  0  0999 V3000
M  V30 BEGIN CTAB
M  V30 COUNTS 45 49 0 0 0
M  V30 BEGIN ATOM
M  V30 1 C -2.128104 -4.980024 2.424690 0
M  V30 2 N -1.134789 -4.715540 1.410653 0
M  V30 3 N -0.284451 -5.578115 0.899437 0
M  V30 4 C 0.509518 -5.018676 -0.025108 0
M  V30 5 C 0.118187 -3.701022 -0.091518 0
M  V30 6 C 0.536276 -2.612755 -0.838086 0
M  V30 7 C -0.020967 -1.337659 -0.735529 0
M  V30 8 C 0.553633 -0.338816 -1.623924 0
M  V30 9 N 0.705734 -0.619351 -2.940257 0
M  V30 10 N 1.248954 0.427086 -3.550741 0
M  V30 11 C 1.481277 1.434278 -2.691193 0
M  V30 12 C 2.007260 2.708351 -2.732100 0
M  V30 13 C 2.059436 3.415877 -1.542987 0
M  V30 14 N 1.617526 2.899795 -0.369386 0
M  V30 15 C 1.103239 1.660394 -0.317538 0
M  V30 16 O 0.682944 1.224272 0.924980 0
M  V30 17 C 0.765560 1.968162 2.096983 0
M  V30 18 C 1.777959 1.245575 3.004969 0
M  V30 19 C 1.139209 0.043938 3.642182 0
M  V30 20 O -0.119061 -0.220797 3.119609 0
M  V30 21 C -1.040355 0.770056 3.213179 0
M  V30 22 C -0.486748 2.116901 2.887658 0
M  V30 23 C 1.041336 0.941210 -1.486343 0
M  V30 24 C -1.042630 -1.220501 0.178903 0
M  V30 25 C -1.468701 -2.278244 0.923377 0
M  V30 26 C -0.905099 -3.528544 0.807267 0
M  V30 27 H -1.709738 -4.678962 3.392083 0
M  V30 28 H -2.295879 -6.091516 2.493196 0
M  V30 29 H -3.084227 -4.471020 2.165866 0
M  V30 30 H 1.296563 -5.470687 -0.611787 0
M  V30 31 H 1.347621 -2.823084 -1.526430 0
M  V30 32 H 1.471097 0.469348 -4.572606 0
M  V30 33 H 2.348773 3.085681 -3.682417 0
M  V30 34 H 2.473372 4.420992 -1.571055 0
M  V30 35 H 1.204781 2.960246 1.809183 0
M  V30 36 H 2.662388 0.940224 2.454744 0
M  V30 37 H 2.051599 1.961654 3.793365 0
M  V30 38 H 1.163851 0.152411 4.732456 0
M  V30 39 H 1.771978 -0.835282 3.411410 0
M  V30 40 H -1.853706 0.526011 2.466293 0
M  V30 41 H -1.553403 0.756551 4.212837 0
M  V30 42 H -0.193773 2.582825 3.872887 0
M  V30 43 H -1.231668 2.793818 2.414432 0
M  V30 44 H -1.470863 -0.251825 0.245718 0
M  V30 45 H -2.287072 -2.106238 1.630796 0
M  V30 END ATOM
M  V30 BEGIN BOND
M  V30 1 1 1 2
M  V30 2 1 2 3
M  V30 3 2 3 4
M  V30 4 1 4 5
M  V30 5 2 5 6
M  V30 6 1 6 7
M  V30 7 1 7 8
M  V30 8 2 8 9
M  V30 9 1 9 10
M  V30 10 1 10 11
M  V30 11 2 11 12
M  V30 12 1 12 13
M  V30 13 2 13 14
M  V30 14 1 14 15
M  V30 15 1 15 16
M  V30 16 1 16 17
M  V30 17 1 17 18
M  V30 18 1 18 19
M  V30 19 1 19 20
M  V30 20 1 20 21
M  V30 21 1 21 22
M  V30 22 2 15 23
M  V30 23 2 7 24
M  V30 24 1 24 25
M  V30 25 2 25 26
M  V30 26 1 26 2
M  V30 27 1 26 5
M  V30 28 1 23 8
M  V30 29 1 23 11
M  V30 30 1 22 17
M  V30 31 1 1 27
M  V30 32 1 1 28
M  V30 33 1 1 29
M  V30 34 1 4 30
M  V30 35 1 6 31
M  V30 36 1 10 32
M  V30 37 1 12 33
M  V30 38 1 13 34
M  V30 39 1 17 35
M  V30 40 1 18 36
M  V30 41 1 18 37
M  V30 42 1 19 38
M  V30 43 1 19 39
M  V30 44 1 21 40
M  V30 45 1 21 41
M  V30 46 1 22 42
M  V30 47 1 22 43
M  V30 48 1 24 44
M  V30 49 1 25 45
M  V30 END BOND
M  V30 END CTAB
M  END
>  <Dataset>  (878) 
ChEMBL_Kinases

>  <Ligand_Instance>  (878) 
nan

>  <PDB_ID>  (878) 
nan

>  <Standardized_SMILES>  (878) 
Cn1ncc2cc(-c3n[nH]c4ccnc(OC5CCOCC5)c34)ccc21

>  <Name>  (878) 
nan

>  <Pocket>  (878) 
nan

>  <ATP_Site>  (878) 
nan

>  <Peripheral>  (878) 
nan

>  <Num_H_Atoms_ProtBoundConf>  (878) 
nan

>  <Num_Resolved_Atoms>  (878) 
nan

>  <Num_Not_Resolved_Atoms>  (878) 
nan

$$$$
CHEMBL3651785
     RDKit          3D

  0  0  0  0  0  0  0  0  0  0999 V3000
M  V30 BEGIN CTAB
M  V30 COUNTS 42 46 0 0 0
M  V30 BEGIN ATOM
M  V30 1 C 3.680609 -3.510073 0.162371 0
M  V30 2 C 4.429648 -2.800799 1.105947 0
M  V30 3 C 3.895150 -1.698646 1.750123 0
M  V30 4 N 4.286408 -0.797813 2.670275 0
M  V30 5 N 3.316521 0.063543 2.903306 0
M  V30 6 C 2.230639 -0.216411 2.153717 0
M  V30 7 C 1.044449 0.615040 2.248277 0
M  V30 8 C -0.265233 0.253288 2.411582 0
M  V30 9 C -1.279629 1.185149 2.464594 0
M  V30 10 C -1.035081 2.538050 2.356703 0
M  V30 11 N -1.804616 3.649175 2.372676 0
M  V30 12 C -0.985806 4.721578 2.219974 0
M  V30 13 N 0.281385 4.291299 2.109442 0
M  V30 14 C 0.269754 2.952119 2.191288 0
M  V30 15 C 1.258086 1.994283 2.142399 0
M  V30 16 C 2.606744 -1.317464 1.439134 0
M  V30 17 C 1.866305 -2.013348 0.509914 0
M  V30 18 O 0.580876 -1.645664 0.186151 0
M  V30 19 C -0.234441 -2.291392 -0.740488 0
M  V30 20 C -0.575592 -1.387494 -1.890827 0
M  V30 21 C -1.962811 -1.629223 -2.432615 0
M  V30 22 O -2.363228 -2.957797 -2.166559 0
M  V30 23 C -2.668875 -2.973767 -0.795224 0
M  V30 24 C -1.402342 -2.878893 -0.023528 0
M  V30 25 N 2.416581 -3.075386 -0.093639 0
M  V30 26 H 4.117458 -4.366019 -0.327108 0
M  V30 27 H 5.443318 -3.068757 1.377071 0
M  V30 28 H 5.248875 -0.841844 3.097685 0
M  V30 29 H -0.461360 -0.785203 2.506305 0
M  V30 30 H -2.285187 0.817880 2.594989 0
M  V30 31 H -1.259244 5.776249 2.185937 0
M  V30 32 H 1.144594 4.890631 1.980438 0
M  V30 33 H 2.274983 2.386544 2.009348 0
M  V30 34 H 0.361527 -3.145652 -1.151399 0
M  V30 35 H 0.117267 -1.562484 -2.743883 0
M  V30 36 H -0.443921 -0.345967 -1.571747 0
M  V30 37 H -2.649147 -0.985981 -1.840423 0
M  V30 38 H -2.063717 -1.411590 -3.512240 0
M  V30 39 H -3.215870 -3.926577 -0.547670 0
M  V30 40 H -3.301055 -2.086479 -0.550655 0
M  V30 41 H -1.146807 -3.908613 0.353009 0
M  V30 42 H -1.602325 -2.298034 0.917063 0
M  V30 END ATOM
M  V30 BEGIN BOND
M  V30 1 2 1 2
M  V30 2 1 2 3
M  V30 3 1 3 4
M  V30 4 1 4 5
M  V30 5 2 5 6
M  V30 6 1 6 7
M  V30 7 2 7 8
M  V30 8 1 8 9
M  V30 9 2 9 10
M  V30 10 1 10 11
M  V30 11 2 11 12
M  V30 12 1 12 13
M  V30 13 1 13 14
M  V30 14 2 14 15
M  V30 15 1 6 16
M  V30 16 1 16 17
M  V30 17 1 17 18
M  V30 18 1 18 19
M  V30 19 1 19 20
M  V30 20 1 20 21
M  V30 21 1 21 22
M  V30 22 1 22 23
M  V30 23 1 23 24
M  V30 24 2 17 25
M  V30 25 1 25 1
M  V30 26 2 16 3
M  V30 27 1 24 19
M  V30 28 1 15 7
M  V30 29 1 14 10
M  V30 30 1 1 26
M  V30 31 1 2 27
M  V30 32 1 4 28
M  V30 33 1 8 29
M  V30 34 1 9 30
M  V30 35 1 12 31
M  V30 36 1 13 32
M  V30 37 1 15 33
M  V30 38 1 19 34
M  V30 39 1 20 35
M  V30 40 1 20 36
M  V30 41 1 21 37
M  V30 42 1 21 38
M  V30 43 1 23 39
M  V30 44 1 23 40
M  V30 45 1 24 41
M  V30 46 1 24 42
M  V30 END BOND
M  V30 END CTAB
M  END
>  <Dataset>  (879) 
ChEMBL_Kinases

>  <Ligand_Instance>  (879) 
nan

>  <PDB_ID>  (879) 
nan

>  <Standardized_SMILES>  (879) 
c1cc2[nH]nc(-c3ccc4nc[nH]c4c3)c2c(OC2CCOCC2)n1

>  <Name>  (879) 
nan

>  <Pocket>  (879) 
nan

>  <ATP_Site>  (879) 
nan

>  <Peripheral>  (879) 
nan

>  <Num_H_Atoms_ProtBoundConf>  (879) 
nan

>  <Num_Resolved_Atoms>  (879) 
nan

>  <Num_Not_Resolved_Atoms>  (879) 
nan

$$$$
CHEMBL3651784
     RDKit          3D

  0  0  0  0  0  0  0  0  0  0999 V3000
M  V30 BEGIN CTAB
M  V30 COUNTS 42 46 0 0 0
M  V30 BEGIN ATOM
M  V30 1 C -0.550518 -3.044641 3.881758 0
M  V30 2 C 0.622871 -2.698077 4.502913 0
M  V30 3 C 1.472111 -1.777736 3.933204 0
M  V30 4 N 2.642749 -1.257457 4.271882 0
M  V30 5 N 2.994171 -0.420479 3.334762 0
M  V30 6 C 2.049158 -0.370899 2.346096 0
M  V30 7 C 2.194545 0.471170 1.197949 0
M  V30 8 C 1.346101 1.385028 0.619439 0
M  V30 9 C 1.689766 2.087558 -0.512513 0
M  V30 10 C 2.907400 1.911225 -1.126724 0
M  V30 11 C 3.447462 2.487947 -2.237872 0
M  V30 12 N 4.657922 1.924308 -2.356880 0
M  V30 13 N 4.884626 1.040251 -1.384571 0
M  V30 14 C 3.801242 1.006919 -0.591419 0
M  V30 15 C 3.425216 0.325735 0.535147 0
M  V30 16 C 1.082768 -1.243837 2.739790 0
M  V30 17 C -0.071126 -1.551851 2.076742 0
M  V30 18 O -0.610492 -1.190845 0.991864 0
M  V30 19 C -1.170081 -0.814535 -0.136406 0
M  V30 20 C -2.478963 -0.080208 0.171396 0
M  V30 21 C -3.680796 -0.958681 0.132059 0
M  V30 22 O -3.727952 -1.857832 -0.911636 0
M  V30 23 C -2.636771 -2.723371 -0.909496 0
M  V30 24 C -1.416440 -1.904126 -1.173247 0
M  V30 25 N -0.873693 -2.475812 2.698715 0
M  V30 26 H -1.114347 -3.778663 4.446379 0
M  V30 27 H 0.948463 -3.110151 5.450468 0
M  V30 28 H 3.216746 -1.457909 5.132587 0
M  V30 29 H 0.408569 1.471603 1.154854 0
M  V30 30 H 0.946425 2.775624 -0.876959 0
M  V30 31 H 3.027430 3.238081 -2.906198 0
M  V30 32 H 5.732237 0.459142 -1.228661 0
M  V30 33 H 4.201078 -0.368112 0.884013 0
M  V30 34 H -0.575221 -0.054601 -0.704788 0
M  V30 35 H -2.612214 0.812139 -0.472499 0
M  V30 36 H -2.433402 0.322987 1.225846 0
M  V30 37 H -3.881014 -1.437751 1.129092 0
M  V30 38 H -4.561677 -0.267876 -0.030120 0
M  V30 39 H -2.574952 -3.383601 -0.046273 0
M  V30 40 H -2.791257 -3.368697 -1.822440 0
M  V30 41 H -1.567257 -1.409900 -2.158530 0
M  V30 42 H -0.505989 -2.504613 -1.238014 0
M  V30 END ATOM
M  V30 BEGIN BOND
M  V30 1 2 1 2
M  V30 2 1 2 3
M  V30 3 1 3 4
M  V30 4 1 4 5
M  V30 5 2 5 6
M  V30 6 1 6 7
M  V30 7 2 7 8
M  V30 8 1 8 9
M  V30 9 2 9 10
M  V30 10 1 10 11
M  V30 11 2 11 12
M  V30 12 1 12 13
M  V30 13 1 13 14
M  V30 14 2 14 15
M  V30 15 1 6 16
M  V30 16 1 16 17
M  V30 17 1 17 18
M  V30 18 1 18 19
M  V30 19 1 19 20
M  V30 20 1 20 21
M  V30 21 1 21 22
M  V30 22 1 22 23
M  V30 23 1 23 24
M  V30 24 2 17 25
M  V30 25 1 25 1
M  V30 26 2 16 3
M  V30 27 1 24 19
M  V30 28 1 15 7
M  V30 29 1 14 10
M  V30 30 1 1 26
M  V30 31 1 2 27
M  V30 32 1 4 28
M  V30 33 1 8 29
M  V30 34 1 9 30
M  V30 35 1 11 31
M  V30 36 1 13 32
M  V30 37 1 15 33
M  V30 38 1 19 34
M  V30 39 1 20 35
M  V30 40 1 20 36
M  V30 41 1 21 37
M  V30 42 1 21 38
M  V30 43 1 23 39
M  V30 44 1 23 40
M  V30 45 1 24 41
M  V30 46 1 24 42
M  V30 END BOND
M  V30 END CTAB
M  END
>  <Dataset>  (880) 
ChEMBL_Kinases

>  <Ligand_Instance>  (880) 
nan

>  <PDB_ID>  (880) 
nan

>  <Standardized_SMILES>  (880) 
c1cc2[nH]nc(-c3ccc4cn[nH]c4c3)c2c(OC2CCOCC2)n1

>  <Name>  (880) 
nan

>  <Pocket>  (880) 
nan

>  <ATP_Site>  (880) 
nan

>  <Peripheral>  (880) 
nan

>  <Num_H_Atoms_ProtBoundConf>  (880) 
nan

>  <Num_Resolved_Atoms>  (880) 
nan

>  <Num_Not_Resolved_Atoms>  (880) 
nan

$$$$
CHEMBL3651783
     RDKit          3D

  0  0  0  0  0  0  0  0  0  0999 V3000
M  V30 BEGIN CTAB
M  V30 COUNTS 49 52 0 0 0
M  V30 BEGIN ATOM
M  V30 1 C 0.430422 -0.012386 5.662794 0
M  V30 2 N 1.544209 -0.936171 5.521249 0
M  V30 3 C 2.020652 -1.620543 6.708139 0
M  V30 4 C 2.291769 -1.310874 4.368114 0
M  V30 5 O 3.270406 -2.115234 4.212096 0
M  V30 6 C 2.121984 -0.847373 2.997980 0
M  V30 7 C 2.805897 0.260375 2.559867 0
M  V30 8 C 2.612169 0.661939 1.256468 0
M  V30 9 C 1.775821 0.049277 0.312784 0
M  V30 10 C 1.800952 0.636236 -0.988948 0
M  V30 11 N 2.847952 1.392892 -1.427671 0
M  V30 12 N 2.639855 1.855153 -2.630384 0
M  V30 13 C 1.449980 1.459830 -3.104422 0
M  V30 14 C 0.701673 1.638436 -4.249199 0
M  V30 15 C -0.555002 1.093734 -4.417560 0
M  V30 16 N -0.999423 0.361669 -3.354494 0
M  V30 17 C -0.280622 0.181113 -2.238201 0
M  V30 18 O -0.918311 -0.569139 -1.317919 0
M  V30 19 C -2.182897 -1.140897 -1.413097 0
M  V30 20 C -2.184056 -2.634884 -1.374875 0
M  V30 21 C -2.897653 -3.216590 -0.191447 0
M  V30 22 O -4.109735 -2.652041 0.102289 0
M  V30 23 C -4.409968 -1.488935 -0.576531 0
M  V30 24 C -3.189410 -0.570406 -0.427444 0
M  V30 25 C 0.960005 0.710039 -2.062136 0
M  V30 26 C 1.164587 -1.026278 0.867809 0
M  V30 27 C 1.278665 -1.515415 2.141906 0
M  V30 28 F 0.588623 -2.608825 2.532156 0
M  V30 29 H 0.696068 0.841614 6.328029 0
M  V30 30 H 0.032354 0.331231 4.708876 0
M  V30 31 H -0.388878 -0.565272 6.173898 0
M  V30 32 H 3.122408 -1.512498 6.758362 0
M  V30 33 H 1.705514 -2.677891 6.599268 0
M  V30 34 H 1.604413 -1.167340 7.628075 0
M  V30 35 H 3.456323 0.755410 3.259324 0
M  V30 36 H 3.216484 1.560390 1.035129 0
M  V30 37 H 3.770281 1.674840 -1.004370 0
M  V30 38 H 1.165319 2.240221 -5.019490 0
M  V30 39 H -1.128562 1.243153 -5.322738 0
M  V30 40 H -2.567373 -0.839923 -2.432458 0
M  V30 41 H -2.531059 -3.123911 -2.303805 0
M  V30 42 H -1.104979 -2.937560 -1.254187 0
M  V30 43 H -3.069209 -4.298341 -0.420390 0
M  V30 44 H -2.267724 -3.244873 0.741158 0
M  V30 45 H -4.544312 -1.665873 -1.658600 0
M  V30 46 H -5.321080 -1.061097 -0.153793 0
M  V30 47 H -3.550911 0.435757 -0.727467 0
M  V30 48 H -2.821800 -0.520063 0.600738 0
M  V30 49 H 0.541078 -1.610128 0.240719 0
M  V30 END ATOM
M  V30 BEGIN BOND
M  V30 1 1 1 2
M  V30 2 1 2 3
M  V30 3 1 2 4
M  V30 4 2 4 5
M  V30 5 1 4 6
M  V30 6 2 6 7
M  V30 7 1 7 8
M  V30 8 2 8 9
M  V30 9 1 9 10
M  V30 10 1 10 11
M  V30 11 1 11 12
M  V30 12 2 12 13
M  V30 13 1 13 14
M  V30 14 2 14 15
M  V30 15 1 15 16
M  V30 16 2 16 17
M  V30 17 1 17 18
M  V30 18 1 18 19
M  V30 19 1 19 20
M  V30 20 1 20 21
M  V30 21 1 21 22
M  V30 22 1 22 23
M  V30 23 1 23 24
M  V30 24 1 17 25
M  V30 25 1 9 26
M  V30 26 2 26 27
M  V30 27 1 27 28
M  V30 28 1 27 6
M  V30 29 2 25 10
M  V30 30 1 25 13
M  V30 31 1 24 19
M  V30 32 1 1 29
M  V30 33 1 1 30
M  V30 34 1 1 31
M  V30 35 1 3 32
M  V30 36 1 3 33
M  V30 37 1 3 34
M  V30 38 1 7 35
M  V30 39 1 8 36
M  V30 40 1 11 37
M  V30 41 1 14 38
M  V30 42 1 15 39
M  V30 43 1 19 40
M  V30 44 1 20 41
M  V30 45 1 20 42
M  V30 46 1 21 43
M  V30 47 1 21 44
M  V30 48 1 23 45
M  V30 49 1 23 46
M  V30 50 1 24 47
M  V30 51 1 24 48
M  V30 52 1 26 49
M  V30 END BOND
M  V30 END CTAB
M  END
>  <Dataset>  (881) 
ChEMBL_Kinases

>  <Ligand_Instance>  (881) 
nan

>  <PDB_ID>  (881) 
nan

>  <Standardized_SMILES>  (881) 
CN(C)C(=O)c1ccc(-c2[nH]nc3ccnc(OC4CCOCC4)c23)cc1F

>  <Name>  (881) 
nan

>  <Pocket>  (881) 
nan

>  <ATP_Site>  (881) 
nan

>  <Peripheral>  (881) 
nan

>  <Num_H_Atoms_ProtBoundConf>  (881) 
nan

>  <Num_Resolved_Atoms>  (881) 
nan

>  <Num_Not_Resolved_Atoms>  (881) 
nan

$$$$
CHEMBL3651782
     RDKit          3D

  0  0  0  0  0  0  0  0  0  0999 V3000
M  V30 BEGIN CTAB
M  V30 COUNTS 54 58 0 0 0
M  V30 BEGIN ATOM
M  V30 1 O 0.980646 -5.739017 -0.335711 0
M  V30 2 C 0.109358 -4.855749 -0.616480 0
M  V30 3 C 0.552424 -3.475451 -0.590178 0
M  V30 4 C 1.217076 -2.984501 -1.680139 0
M  V30 5 C 1.636082 -1.674200 -1.692517 0
M  V30 6 C 1.448667 -0.742067 -0.662644 0
M  V30 7 C 1.969336 0.547966 -0.949978 0
M  V30 8 N 2.720461 0.789264 -2.062474 0
M  V30 9 N 3.044722 2.051540 -2.162715 0
M  V30 10 C 2.551032 2.761067 -1.146202 0
M  V30 11 C 2.569062 4.079616 -0.766033 0
M  V30 12 C 1.927094 4.479859 0.361209 0
M  V30 13 N 1.280774 3.523627 1.076686 0
M  V30 14 C 1.267236 2.246347 0.704606 0
M  V30 15 O 0.592902 1.420295 1.518686 0
M  V30 16 C -0.090416 1.801290 2.670004 0
M  V30 17 C 0.754628 1.820441 3.923774 0
M  V30 18 C -0.005546 2.653415 4.955508 0
M  V30 19 O -1.382198 2.576167 4.791203 0
M  V30 20 C -1.833084 3.203464 3.629811 0
M  V30 21 C -0.713313 3.199255 2.587142 0
M  V30 22 C 1.894122 1.797641 -0.418490 0
M  V30 23 C 0.789988 -1.344290 0.347503 0
M  V30 24 C 0.332720 -2.623536 0.460865 0
M  V30 25 N -1.228830 -5.267974 -0.935822 0
M  V30 26 C -1.470477 -6.701840 -0.919407 0
M  V30 27 C -2.957922 -6.974364 -0.864077 0
M  V30 28 O -3.630936 -5.838460 -0.359237 0
M  V30 29 C -3.593830 -4.795509 -1.268512 0
M  V30 30 C -2.184935 -4.219555 -1.236524 0
M  V30 31 H 1.391878 -3.649988 -2.505138 0
M  V30 32 H 2.145239 -1.470206 -2.647980 0
M  V30 33 H 3.118001 0.251492 -2.862890 0
M  V30 34 H 3.110511 4.774638 -1.401113 0
M  V30 35 H 1.973704 5.517861 0.607344 0
M  V30 36 H -0.970396 1.114736 2.873415 0
M  V30 37 H 1.049564 0.836947 4.290236 0
M  V30 38 H 1.653155 2.452822 3.650548 0
M  V30 39 H 0.213621 2.287916 5.988871 0
M  V30 40 H 0.258050 3.721746 4.917366 0
M  V30 41 H -2.704800 2.612175 3.288520 0
M  V30 42 H -2.108293 4.265476 3.791482 0
M  V30 43 H 0.036906 3.929072 2.921682 0
M  V30 44 H -1.172815 3.376571 1.620187 0
M  V30 45 H 0.598158 -0.774382 1.213648 0
M  V30 46 H -0.187721 -2.976809 1.328363 0
M  V30 47 H -0.906920 -7.232429 -0.150609 0
M  V30 48 H -1.131945 -7.057436 -1.937686 0
M  V30 49 H -3.398597 -7.127620 -1.874262 0
M  V30 50 H -3.210464 -7.781972 -0.158685 0
M  V30 51 H -4.321518 -4.027128 -0.911755 0
M  V30 52 H -3.919471 -5.081451 -2.289799 0
M  V30 53 H -2.201139 -3.417484 -0.461003 0
M  V30 54 H -1.970589 -3.782739 -2.241898 0
M  V30 END ATOM
M  V30 BEGIN BOND
M  V30 1 2 1 2
M  V30 2 1 2 3
M  V30 3 2 3 4
M  V30 4 1 4 5
M  V30 5 2 5 6
M  V30 6 1 6 7
M  V30 7 1 7 8
M  V30 8 1 8 9
M  V30 9 2 9 10
M  V30 10 1 10 11
M  V30 11 2 11 12
M  V30 12 1 12 13
M  V30 13 2 13 14
M  V30 14 1 14 15
M  V30 15 1 15 16
M  V30 16 1 16 17
M  V30 17 1 17 18
M  V30 18 1 18 19
M  V30 19 1 19 20
M  V30 20 1 20 21
M  V30 21 1 14 22
M  V30 22 1 6 23
M  V30 23 2 23 24
M  V30 24 1 2 25
M  V30 25 1 25 26
M  V30 26 1 26 27
M  V30 27 1 27 28
M  V30 28 1 28 29
M  V30 29 1 29 30
M  V30 30 1 24 3
M  V30 31 1 30 25
M  V30 32 2 22 7
M  V30 33 1 22 10
M  V30 34 1 21 16
M  V30 35 1 4 31
M  V30 36 1 5 32
M  V30 37 1 8 33
M  V30 38 1 11 34
M  V30 39 1 12 35
M  V30 40 1 16 36
M  V30 41 1 17 37
M  V30 42 1 17 38
M  V30 43 1 18 39
M  V30 44 1 18 40
M  V30 45 1 20 41
M  V30 46 1 20 42
M  V30 47 1 21 43
M  V30 48 1 21 44
M  V30 49 1 23 45
M  V30 50 1 24 46
M  V30 51 1 26 47
M  V30 52 1 26 48
M  V30 53 1 27 49
M  V30 54 1 27 50
M  V30 55 1 29 51
M  V30 56 1 29 52
M  V30 57 1 30 53
M  V30 58 1 30 54
M  V30 END BOND
M  V30 END CTAB
M  END
>  <Dataset>  (882) 
ChEMBL_Kinases

>  <Ligand_Instance>  (882) 
nan

>  <PDB_ID>  (882) 
nan

>  <Standardized_SMILES>  (882) 
O=C(c1ccc(-c2[nH]nc3ccnc(OC4CCOCC4)c23)cc1)N1CCOCC1

>  <Name>  (882) 
nan

>  <Pocket>  (882) 
nan

>  <ATP_Site>  (882) 
nan

>  <Peripheral>  (882) 
nan

>  <Num_H_Atoms_ProtBoundConf>  (882) 
nan

>  <Num_Resolved_Atoms>  (882) 
nan

>  <Num_Not_Resolved_Atoms>  (882) 
nan

$$$$
CHEMBL3651781
     RDKit          3D

  0  0  0  0  0  0  0  0  0  0999 V3000
M  V30 BEGIN CTAB
M  V30 COUNTS 41 44 0 0 0
M  V30 BEGIN ATOM
M  V30 1 Cl 2.809062 -3.025404 -0.249194 0
M  V30 2 C 3.799106 -1.770675 0.474617 0
M  V30 3 C 4.880411 -2.195767 1.236438 0
M  V30 4 C 5.651182 -1.218971 1.799931 0
M  V30 5 C 5.355534 0.129294 1.611327 0
M  V30 6 C 4.277202 0.527338 0.851190 0
M  V30 7 C 3.487648 -0.453691 0.274278 0
M  V30 8 C 2.336696 -0.141536 -0.538859 0
M  V30 9 C 1.376200 0.138261 -1.218400 0
M  V30 10 C 0.229762 0.471381 -2.015288 0
M  V30 11 N 0.162462 0.903009 -3.285947 0
M  V30 12 N -1.097640 1.093063 -3.638843 0
M  V30 13 C -1.906236 0.788936 -2.599803 0
M  V30 14 C -3.286798 0.834088 -2.502114 0
M  V30 15 C -3.781550 0.447247 -1.270109 0
M  V30 16 N -3.016968 0.059108 -0.245686 0
M  V30 17 C -1.680649 0.026451 -0.373058 0
M  V30 18 O -0.807747 -0.367687 0.651001 0
M  V30 19 C -1.439910 -0.741470 1.867322 0
M  V30 20 C -1.181269 -2.202476 2.099418 0
M  V30 21 C -1.473298 -2.523221 3.543681 0
M  V30 22 O -0.546508 -1.808276 4.300122 0
M  V30 23 C -0.846543 -0.454867 4.296979 0
M  V30 24 C -0.888994 0.151386 2.933372 0
M  V30 25 C -1.078537 0.394099 -1.566088 0
M  V30 26 H 5.101246 -3.246947 1.376612 0
M  V30 27 H 6.504365 -1.458711 2.402558 0
M  V30 28 H 5.998984 0.885681 2.080788 0
M  V30 29 H 4.029753 1.558410 0.691785 0
M  V30 30 H 1.005616 1.065073 -3.908836 0
M  V30 31 H -3.897503 1.144298 -3.320929 0
M  V30 32 H -4.847338 0.450939 -1.102120 0
M  V30 33 H -2.528306 -0.619262 1.687135 0
M  V30 34 H -0.184371 -2.554064 1.829480 0
M  V30 35 H -1.932044 -2.792198 1.496695 0
M  V30 36 H -2.501305 -2.239586 3.782526 0
M  V30 37 H -1.268854 -3.602200 3.726950 0
M  V30 38 H -0.085729 0.050115 4.927726 0
M  V30 39 H -1.816785 -0.343957 4.801291 0
M  V30 40 H 0.145667 0.471127 2.689710 0
M  V30 41 H -1.503176 1.075614 2.957421 0
M  V30 END ATOM
M  V30 BEGIN BOND
M  V30 1 1 1 2
M  V30 2 2 2 3
M  V30 3 1 3 4
M  V30 4 2 4 5
M  V30 5 1 5 6
M  V30 6 2 6 7
M  V30 7 1 7 8
M  V30 8 3 8 9
M  V30 9 1 9 10
M  V30 10 1 10 11
M  V30 11 1 11 12
M  V30 12 2 12 13
M  V30 13 1 13 14
M  V30 14 2 14 15
M  V30 15 1 15 16
M  V30 16 2 16 17
M  V30 17 1 17 18
M  V30 18 1 18 19
M  V30 19 1 19 20
M  V30 20 1 20 21
M  V30 21 1 21 22
M  V30 22 1 22 23
M  V30 23 1 23 24
M  V30 24 1 17 25
M  V30 25 1 7 2
M  V30 26 2 25 10
M  V30 27 1 25 13
M  V30 28 1 24 19
M  V30 29 1 3 26
M  V30 30 1 4 27
M  V30 31 1 5 28
M  V30 32 1 6 29
M  V30 33 1 11 30
M  V30 34 1 14 31
M  V30 35 1 15 32
M  V30 36 1 19 33
M  V30 37 1 20 34
M  V30 38 1 20 35
M  V30 39 1 21 36
M  V30 40 1 21 37
M  V30 41 1 23 38
M  V30 42 1 23 39
M  V30 43 1 24 40
M  V30 44 1 24 41
M  V30 END BOND
M  V30 END CTAB
M  END
>  <Dataset>  (883) 
ChEMBL_Kinases

>  <Ligand_Instance>  (883) 
nan

>  <PDB_ID>  (883) 
nan

>  <Standardized_SMILES>  (883) 
Clc1ccccc1C#Cc1[nH]nc2ccnc(OC3CCOCC3)c12

>  <Name>  (883) 
nan

>  <Pocket>  (883) 
nan

>  <ATP_Site>  (883) 
nan

>  <Peripheral>  (883) 
nan

>  <Num_H_Atoms_ProtBoundConf>  (883) 
nan

>  <Num_Resolved_Atoms>  (883) 
nan

>  <Num_Not_Resolved_Atoms>  (883) 
nan

$$$$
CHEMBL3651780
     RDKit          3D

  0  0  0  0  0  0  0  0  0  0999 V3000
M  V30 BEGIN CTAB
M  V30 COUNTS 53 58 0 0 0
M  V30 BEGIN ATOM
M  V30 1 C 0.962076 -5.486146 3.201226 0
M  V30 2 C 1.922517 -4.855330 3.979675 0
M  V30 3 C 2.185215 -3.544932 3.721335 0
M  V30 4 N 2.992397 -2.591805 4.208166 0
M  V30 5 N 2.821977 -1.438522 3.549601 0
M  V30 6 C 1.881812 -1.595261 2.590873 0
M  V30 7 C 1.543579 -0.460046 1.766862 0
M  V30 8 C 1.279337 0.742641 2.437234 0
M  V30 9 C 0.951100 1.942335 1.837870 0
M  V30 10 C 0.878882 1.950218 0.459024 0
M  V30 11 C 1.127520 0.802902 -0.253833 0
M  V30 12 C 1.451075 -0.366827 0.394986 0
M  V30 13 N 0.993340 1.074599 -1.563176 0
M  V30 14 C 0.660040 2.392874 -1.678815 0
M  V30 15 N 0.590389 2.926658 -0.443634 0
M  V30 16 C 0.273169 4.286358 -0.041654 0
M  V30 17 C -1.184329 4.389293 0.418736 0
M  V30 18 C -1.878226 4.198118 -0.911850 0
M  V30 19 O -1.033648 4.632501 -1.895469 0
M  V30 20 C 0.140829 5.088518 -1.321307 0
M  V30 21 C 1.499792 -2.907945 2.715158 0
M  V30 22 C 0.553569 -3.546718 1.956200 0
M  V30 23 O -0.150854 -2.922795 0.938253 0
M  V30 24 C -1.102473 -3.636549 0.206521 0
M  V30 25 C -2.500770 -3.066484 0.316695 0
M  V30 26 C -3.386026 -3.838913 -0.642162 0
M  V30 27 O -2.769748 -5.003294 -1.066163 0
M  V30 28 C -1.685536 -4.741456 -1.905414 0
M  V30 29 C -0.762219 -3.729871 -1.263013 0
M  V30 30 N 0.289755 -4.838921 2.205659 0
M  V30 31 H 0.759965 -6.539704 3.418521 0
M  V30 32 H 2.463042 -5.344000 4.767200 0
M  V30 33 H 3.668944 -2.743473 5.006232 0
M  V30 34 H 1.326105 0.776284 3.518175 0
M  V30 35 H 0.761379 2.822515 2.400776 0
M  V30 36 H 1.655728 -1.258220 -0.151191 0
M  V30 37 H 0.471901 2.964026 -2.587434 0
M  V30 38 H 0.978157 4.694525 0.679813 0
M  V30 39 H -1.459247 3.634887 1.158918 0
M  V30 40 H -1.337104 5.438667 0.739021 0
M  V30 41 H -2.019712 3.086353 -1.021895 0
M  V30 42 H -2.892157 4.661023 -0.924292 0
M  V30 43 H 0.050028 6.182987 -1.114243 0
M  V30 44 H 1.002219 4.908201 -1.998383 0
M  V30 45 H -1.145639 -4.680528 0.591411 0
M  V30 46 H -2.549930 -2.008898 0.028658 0
M  V30 47 H -2.873894 -3.144102 1.359224 0
M  V30 48 H -4.344239 -4.133777 -0.157979 0
M  V30 49 H -3.679149 -3.204081 -1.515993 0
M  V30 50 H -1.186169 -5.712946 -2.072104 0
M  V30 51 H -2.041215 -4.394291 -2.904492 0
M  V30 52 H -0.837767 -2.740320 -1.736869 0
M  V30 53 H 0.270282 -4.134309 -1.333055 0
M  V30 END ATOM
M  V30 BEGIN BOND
M  V30 1 2 1 2
M  V30 2 1 2 3
M  V30 3 1 3 4
M  V30 4 1 4 5
M  V30 5 2 5 6
M  V30 6 1 6 7
M  V30 7 2 7 8
M  V30 8 1 8 9
M  V30 9 2 9 10
M  V30 10 1 10 11
M  V30 11 2 11 12
M  V30 12 1 11 13
M  V30 13 2 13 14
M  V30 14 1 14 15
M  V30 15 1 15 16
M  V30 16 1 16 17
M  V30 17 1 17 18
M  V30 18 1 18 19
M  V30 19 1 19 20
M  V30 20 1 6 21
M  V30 21 1 21 22
M  V30 22 1 22 23
M  V30 23 1 23 24
M  V30 24 1 24 25
M  V30 25 1 25 26
M  V30 26 1 26 27
M  V30 27 1 27 28
M  V30 28 1 28 29
M  V30 29 2 22 30
M  V30 30 1 30 1
M  V30 31 2 21 3
M  V30 32 1 29 24
M  V30 33 1 12 7
M  V30 34 1 20 16
M  V30 35 1 15 10
M  V30 36 1 1 31
M  V30 37 1 2 32
M  V30 38 1 4 33
M  V30 39 1 8 34
M  V30 40 1 9 35
M  V30 41 1 12 36
M  V30 42 1 14 37
M  V30 43 1 16 38
M  V30 44 1 17 39
M  V30 45 1 17 40
M  V30 46 1 18 41
M  V30 47 1 18 42
M  V30 48 1 20 43
M  V30 49 1 20 44
M  V30 50 1 24 45
M  V30 51 1 25 46
M  V30 52 1 25 47
M  V30 53 1 26 48
M  V30 54 1 26 49
M  V30 55 1 28 50
M  V30 56 1 28 51
M  V30 57 1 29 52
M  V30 58 1 29 53
M  V30 END BOND
M  V30 END CTAB
M  END
>  <Dataset>  (884) 
ChEMBL_Kinases

>  <Ligand_Instance>  (884) 
nan

>  <PDB_ID>  (884) 
nan

>  <Standardized_SMILES>  (884) 
c1cc2[nH]nc(-c3ccc4c(c3)ncn4C3CCOC3)c2c(OC2CCOCC2)n1

>  <Name>  (884) 
nan

>  <Pocket>  (884) 
nan

>  <ATP_Site>  (884) 
nan

>  <Peripheral>  (884) 
nan

>  <Num_H_Atoms_ProtBoundConf>  (884) 
nan

>  <Num_Resolved_Atoms>  (884) 
nan

>  <Num_Not_Resolved_Atoms>  (884) 
nan

$$$$
CHEMBL3651779
     RDKit          3D

  0  0  0  0  0  0  0  0  0  0999 V3000
M  V30 BEGIN CTAB
M  V30 COUNTS 53 58 0 0 0
M  V30 BEGIN ATOM
M  V30 1 C -2.892839 -4.060441 3.102333 0
M  V30 2 C -2.285115 -3.366162 4.137275 0
M  V30 3 C -1.579747 -2.192506 3.881998 0
M  V30 4 N -0.873369 -1.258434 4.543498 0
M  V30 5 N -0.423524 -0.344519 3.708885 0
M  V30 6 C -0.814784 -0.630443 2.433940 0
M  V30 7 C -0.404677 0.268260 1.366677 0
M  V30 8 C -1.164893 0.838404 0.369140 0
M  V30 9 C -0.620691 1.664254 -0.589727 0
M  V30 10 C 0.722284 1.961322 -0.594798 0
M  V30 11 N 1.516606 2.716141 -1.383010 0
M  V30 12 C 2.791908 2.644694 -0.908152 0
M  V30 13 N 2.796955 1.844710 0.178221 0
M  V30 14 C 3.932622 1.484138 1.003831 0
M  V30 15 C 3.983218 2.370562 2.224053 0
M  V30 16 C 5.380583 2.936422 2.194457 0
M  V30 17 O 5.851473 2.798671 0.902511 0
M  V30 18 C 5.245462 1.690470 0.343847 0
M  V30 19 C 1.534314 1.425293 0.372776 0
M  V30 20 C 0.951235 0.606672 1.309869 0
M  V30 21 C -1.529452 -1.780771 2.566832 0
M  V30 22 C -2.133864 -2.472447 1.538035 0
M  V30 23 O -2.087751 -2.069092 0.212369 0
M  V30 24 C -2.741831 -2.859448 -0.745041 0
M  V30 25 C -3.828936 -2.138029 -1.489504 0
M  V30 26 C -4.539067 -3.146572 -2.368220 0
M  V30 27 O -3.941454 -4.402314 -2.281081 0
M  V30 28 C -2.611167 -4.333298 -2.689052 0
M  V30 29 C -1.803401 -3.428868 -1.782995 0
M  V30 30 N -2.807894 -3.603010 1.818406 0
M  V30 31 H -3.424752 -4.968577 3.387525 0
M  V30 32 H -2.310350 -3.668122 5.175796 0
M  V30 33 H -0.741566 -1.317698 5.586172 0
M  V30 34 H -2.219234 0.605725 0.392224 0
M  V30 35 H -1.287856 2.073851 -1.342878 0
M  V30 36 H 3.631613 3.158176 -1.355623 0
M  V30 37 H 3.851302 0.419633 1.339168 0
M  V30 38 H 3.197073 3.131431 2.159475 0
M  V30 39 H 3.865666 1.813742 3.173385 0
M  V30 40 H 5.297899 4.022890 2.406143 0
M  V30 41 H 6.035398 2.501798 2.965401 0
M  V30 42 H 5.873806 0.778652 0.392795 0
M  V30 43 H 5.109136 1.893851 -0.738556 0
M  V30 44 H 1.626286 0.201930 2.058841 0
M  V30 45 H -3.221934 -3.735969 -0.259973 0
M  V30 46 H -4.580863 -1.667977 -0.832404 0
M  V30 47 H -3.450269 -1.345242 -2.167674 0
M  V30 48 H -4.487911 -2.877904 -3.455959 0
M  V30 49 H -5.606066 -3.248390 -2.087664 0
M  V30 50 H -2.212156 -5.378778 -2.628308 0
M  V30 51 H -2.590388 -3.995710 -3.753755 0
M  V30 52 H -1.419127 -2.595590 -2.426425 0
M  V30 53 H -0.971841 -3.979365 -1.297476 0
M  V30 END ATOM
M  V30 BEGIN BOND
M  V30 1 2 1 2
M  V30 2 1 2 3
M  V30 3 1 3 4
M  V30 4 1 4 5
M  V30 5 2 5 6
M  V30 6 1 6 7
M  V30 7 2 7 8
M  V30 8 1 8 9
M  V30 9 2 9 10
M  V30 10 1 10 11
M  V30 11 2 11 12
M  V30 12 1 12 13
M  V30 13 1 13 14
M  V30 14 1 14 15
M  V30 15 1 15 16
M  V30 16 1 16 17
M  V30 17 1 17 18
M  V30 18 1 13 19
M  V30 19 2 19 20
M  V30 20 1 6 21
M  V30 21 1 21 22
M  V30 22 1 22 23
M  V30 23 1 23 24
M  V30 24 1 24 25
M  V30 25 1 25 26
M  V30 26 1 26 27
M  V30 27 1 27 28
M  V30 28 1 28 29
M  V30 29 2 22 30
M  V30 30 1 30 1
M  V30 31 2 21 3
M  V30 32 1 29 24
M  V30 33 1 20 7
M  V30 34 1 19 10
M  V30 35 1 18 14
M  V30 36 1 1 31
M  V30 37 1 2 32
M  V30 38 1 4 33
M  V30 39 1 8 34
M  V30 40 1 9 35
M  V30 41 1 12 36
M  V30 42 1 14 37
M  V30 43 1 15 38
M  V30 44 1 15 39
M  V30 45 1 16 40
M  V30 46 1 16 41
M  V30 47 1 18 42
M  V30 48 1 18 43
M  V30 49 1 20 44
M  V30 50 1 24 45
M  V30 51 1 25 46
M  V30 52 1 25 47
M  V30 53 1 26 48
M  V30 54 1 26 49
M  V30 55 1 28 50
M  V30 56 1 28 51
M  V30 57 1 29 52
M  V30 58 1 29 53
M  V30 END BOND
M  V30 END CTAB
M  END
>  <Dataset>  (885) 
ChEMBL_Kinases

>  <Ligand_Instance>  (885) 
nan

>  <PDB_ID>  (885) 
nan

>  <Standardized_SMILES>  (885) 
c1cc2[nH]nc(-c3ccc4ncn(C5CCOC5)c4c3)c2c(OC2CCOCC2)n1

>  <Name>  (885) 
nan

>  <Pocket>  (885) 
nan

>  <ATP_Site>  (885) 
nan

>  <Peripheral>  (885) 
nan

>  <Num_H_Atoms_ProtBoundConf>  (885) 
nan

>  <Num_Resolved_Atoms>  (885) 
nan

>  <Num_Not_Resolved_Atoms>  (885) 
nan

$$$$
CHEMBL3651778
     RDKit          3D

  0  0  0  0  0  0  0  0  0  0999 V3000
M  V30 BEGIN CTAB
M  V30 COUNTS 52 57 0 0 0
M  V30 BEGIN ATOM
M  V30 1 F 6.928448 2.811199 1.949927 0
M  V30 2 C 6.070905 1.887724 1.350028 0
M  V30 3 F 6.614753 1.276936 0.246211 0
M  V30 4 C 5.146002 1.073592 2.185105 0
M  V30 5 C 4.615689 2.198206 1.411913 0
M  V30 6 C 3.749342 2.015911 0.191008 0
M  V30 7 N 2.356430 2.364938 0.426066 0
M  V30 8 C 1.850853 3.597476 0.239430 0
M  V30 9 N 0.526025 3.540886 0.558218 0
M  V30 10 C 0.212326 2.294680 0.936746 0
M  V30 11 C -0.934767 1.655556 1.357185 0
M  V30 12 C -0.936445 0.318892 1.685476 0
M  V30 13 C 0.190257 -0.463395 1.618479 0
M  V30 14 C 0.376685 -1.870374 1.916228 0
M  V30 15 N 1.393088 -2.258197 2.738648 0
M  V30 16 N 1.393378 -3.566198 2.891624 0
M  V30 17 C 0.372259 -4.057602 2.167381 0
M  V30 18 C -0.160787 -5.301496 1.903924 0
M  V30 19 C -1.255648 -5.431445 1.078271 0
M  V30 20 N -1.841793 -4.351621 0.500542 0
M  V30 21 C -1.364276 -3.104136 0.720711 0
M  V30 22 O -2.057959 -2.272441 0.084775 0
M  V30 23 C -2.779436 -1.404721 -0.577028 0
M  V30 24 C -3.002631 -1.744976 -2.066424 0
M  V30 25 C -4.302292 -1.127098 -2.535188 0
M  V30 26 O -5.403089 -1.802596 -2.000785 0
M  V30 27 C -5.121297 -2.232435 -0.695957 0
M  V30 28 C -4.218215 -1.227723 -0.039764 0
M  V30 29 C -0.276530 -3.017849 1.548387 0
M  V30 30 C 1.334077 0.222274 1.187422 0
M  V30 31 C 1.371891 1.552777 0.852249 0
M  V30 32 H 5.195353 1.195394 3.305163 0
M  V30 33 H 4.995996 0.010433 1.900206 0
M  V30 34 H 4.328671 3.123337 1.990784 0
M  V30 35 H 4.156846 2.678496 -0.599488 0
M  V30 36 H 3.820254 0.979333 -0.218492 0
M  V30 37 H 2.379258 4.488240 -0.101139 0
M  V30 38 H -1.865872 2.198887 1.438022 0
M  V30 39 H -1.820231 -0.244078 2.026789 0
M  V30 40 H 2.026999 -4.182858 3.448634 0
M  V30 41 H 0.356938 -6.127768 2.398298 0
M  V30 42 H -1.533635 -6.484120 0.988998 0
M  V30 43 H -2.346906 -0.353397 -0.598230 0
M  V30 44 H -2.986349 -2.823847 -2.251800 0
M  V30 45 H -2.194474 -1.286164 -2.683461 0
M  V30 46 H -4.318238 -0.053931 -2.315740 0
M  V30 47 H -4.370925 -1.233273 -3.632518 0
M  V30 48 H -4.685797 -3.251762 -0.669994 0
M  V30 49 H -6.078045 -2.218719 -0.117801 0
M  V30 50 H -4.264943 -1.354059 1.048294 0
M  V30 51 H -4.563455 -0.229516 -0.301633 0
M  V30 52 H 2.285653 -0.303915 1.097989 0
M  V30 END ATOM
M  V30 BEGIN BOND
M  V30 1 1 1 2
M  V30 2 1 2 3
M  V30 3 1 2 4
M  V30 4 1 4 5
M  V30 5 1 5 6
M  V30 6 1 6 7
M  V30 7 1 7 8
M  V30 8 2 8 9
M  V30 9 1 9 10
M  V30 10 2 10 11
M  V30 11 1 11 12
M  V30 12 2 12 13
M  V30 13 1 13 14
M  V30 14 2 14 15
M  V30 15 1 15 16
M  V30 16 1 16 17
M  V30 17 2 17 18
M  V30 18 1 18 19
M  V30 19 2 19 20
M  V30 20 1 20 21
M  V30 21 1 21 22
M  V30 22 1 22 23
M  V30 23 1 23 24
M  V30 24 1 24 25
M  V30 25 1 25 26
M  V30 26 1 26 27
M  V30 27 1 27 28
M  V30 28 2 21 29
M  V30 29 1 13 30
M  V30 30 2 30 31
M  V30 31 1 5 2
M  V30 32 1 31 7
M  V30 33 1 31 10
M  V30 34 1 29 14
M  V30 35 1 29 17
M  V30 36 1 28 23
M  V30 37 1 4 32
M  V30 38 1 4 33
M  V30 39 1 5 34
M  V30 40 1 6 35
M  V30 41 1 6 36
M  V30 42 1 8 37
M  V30 43 1 11 38
M  V30 44 1 12 39
M  V30 45 1 16 40
M  V30 46 1 18 41
M  V30 47 1 19 42
M  V30 48 1 23 43
M  V30 49 1 24 44
M  V30 50 1 24 45
M  V30 51 1 25 46
M  V30 52 1 25 47
M  V30 53 1 27 48
M  V30 54 1 27 49
M  V30 55 1 28 50
M  V30 56 1 28 51
M  V30 57 1 30 52
M  V30 END BOND
M  V30 END CTAB
M  END
>  <Dataset>  (886) 
ChEMBL_Kinases

>  <Ligand_Instance>  (886) 
nan

>  <PDB_ID>  (886) 
nan

>  <Standardized_SMILES>  (886) 
FC1(F)CC1Cn1cnc2ccc(-c3n[nH]c4ccnc(OC5CCOCC5)c34)cc21

>  <Name>  (886) 
nan

>  <Pocket>  (886) 
nan

>  <ATP_Site>  (886) 
nan

>  <Peripheral>  (886) 
nan

>  <Num_H_Atoms_ProtBoundConf>  (886) 
nan

>  <Num_Resolved_Atoms>  (886) 
nan

>  <Num_Not_Resolved_Atoms>  (886) 
nan

$$$$
CHEMBL3651777
     RDKit          3D

  0  0  0  0  0  0  0  0  0  0999 V3000
M  V30 BEGIN CTAB
M  V30 COUNTS 50 55 0 0 0
M  V30 BEGIN ATOM
M  V30 1 C -0.683874 -4.635269 2.691035 0
M  V30 2 C 0.584463 -4.489977 3.206357 0
M  V30 3 C 1.353222 -3.479399 2.666510 0
M  V30 4 N 2.589429 -2.981489 2.847408 0
M  V30 5 N 2.794315 -1.978273 2.029048 0
M  V30 6 C 1.697774 -1.745184 1.246368 0
M  V30 7 C 1.733170 -0.660841 0.275678 0
M  V30 8 C 1.398895 -0.661397 -1.039474 0
M  V30 9 C 1.465660 0.456597 -1.842439 0
M  V30 10 C 1.891898 1.656044 -1.310609 0
M  V30 11 N 2.065565 2.896084 -1.810334 0
M  V30 12 C 2.512363 3.696275 -0.817698 0
M  V30 13 N 2.631177 2.990570 0.321818 0
M  V30 14 C 3.080826 3.498549 1.604249 0
M  V30 15 C 2.260473 3.032227 2.791077 0
M  V30 16 O 2.155686 4.332577 3.278406 0
M  V30 17 C 2.456289 4.814484 2.005518 0
M  V30 18 C 2.249897 1.737088 0.018701 0
M  V30 19 C 2.159854 0.582186 0.766486 0
M  V30 20 C 0.801729 -2.704920 1.668268 0
M  V30 21 C -0.473573 -2.869977 1.168457 0
M  V30 22 O -1.012398 -2.075680 0.161817 0
M  V30 23 C -2.331572 -2.388087 -0.222321 0
M  V30 24 C -3.310138 -1.254040 0.004828 0
M  V30 25 C -4.683866 -1.832782 -0.274647 0
M  V30 26 O -4.792792 -2.346146 -1.549096 0
M  V30 27 C -3.856687 -3.327769 -1.826429 0
M  V30 28 C -2.449686 -2.780258 -1.669126 0
M  V30 29 N -1.215181 -3.861288 1.704254 0
M  V30 30 H -1.288161 -5.423131 3.109114 0
M  V30 31 H 0.990833 -5.096683 3.974927 0
M  V30 32 H 3.256739 -3.369946 3.550642 0
M  V30 33 H 1.077957 -1.606443 -1.451399 0
M  V30 34 H 1.181284 0.374554 -2.881594 0
M  V30 35 H 2.724963 4.752566 -0.989289 0
M  V30 36 H 4.164309 3.399249 1.791069 0
M  V30 37 H 2.798198 2.365693 3.496641 0
M  V30 38 H 1.266731 2.672186 2.451295 0
M  V30 39 H 1.556309 5.045814 1.379368 0
M  V30 40 H 3.173781 5.657591 2.108802 0
M  V30 41 H 2.452623 0.682439 1.821101 0
M  V30 42 H -2.737850 -3.258437 0.372922 0
M  V30 43 H -3.306566 -0.863181 1.035216 0
M  V30 44 H -3.165814 -0.438657 -0.756276 0
M  V30 45 H -5.477316 -1.066158 -0.171357 0
M  V30 46 H -4.814416 -2.676917 0.445304 0
M  V30 47 H -4.043923 -3.700023 -2.850586 0
M  V30 48 H -3.927630 -4.179614 -1.115834 0
M  V30 49 H -1.753549 -3.617441 -1.886420 0
M  V30 50 H -2.299896 -1.914802 -2.358494 0
M  V30 END ATOM
M  V30 BEGIN BOND
M  V30 1 2 1 2
M  V30 2 1 2 3
M  V30 3 1 3 4
M  V30 4 1 4 5
M  V30 5 2 5 6
M  V30 6 1 6 7
M  V30 7 2 7 8
M  V30 8 1 8 9
M  V30 9 2 9 10
M  V30 10 1 10 11
M  V30 11 2 11 12
M  V30 12 1 12 13
M  V30 13 1 13 14
M  V30 14 1 14 15
M  V30 15 1 15 16
M  V30 16 1 16 17
M  V30 17 1 13 18
M  V30 18 2 18 19
M  V30 19 1 6 20
M  V30 20 1 20 21
M  V30 21 1 21 22
M  V30 22 1 22 23
M  V30 23 1 23 24
M  V30 24 1 24 25
M  V30 25 1 25 26
M  V30 26 1 26 27
M  V30 27 1 27 28
M  V30 28 2 21 29
M  V30 29 1 29 1
M  V30 30 2 20 3
M  V30 31 1 28 23
M  V30 32 1 19 7
M  V30 33 1 18 10
M  V30 34 1 17 14
M  V30 35 1 1 30
M  V30 36 1 2 31
M  V30 37 1 4 32
M  V30 38 1 8 33
M  V30 39 1 9 34
M  V30 40 1 12 35
M  V30 41 1 14 36
M  V30 42 1 15 37
M  V30 43 1 15 38
M  V30 44 1 17 39
M  V30 45 1 17 40
M  V30 46 1 19 41
M  V30 47 1 23 42
M  V30 48 1 24 43
M  V30 49 1 24 44
M  V30 50 1 25 45
M  V30 51 1 25 46
M  V30 52 1 27 47
M  V30 53 1 27 48
M  V30 54 1 28 49
M  V30 55 1 28 50
M  V30 END BOND
M  V30 END CTAB
M  END
>  <Dataset>  (887) 
ChEMBL_Kinases

>  <Ligand_Instance>  (887) 
nan

>  <PDB_ID>  (887) 
nan

>  <Standardized_SMILES>  (887) 
c1cc2[nH]nc(-c3ccc4ncn(C5COC5)c4c3)c2c(OC2CCOCC2)n1

>  <Name>  (887) 
nan

>  <Pocket>  (887) 
nan

>  <ATP_Site>  (887) 
nan

>  <Peripheral>  (887) 
nan

>  <Num_H_Atoms_ProtBoundConf>  (887) 
nan

>  <Num_Resolved_Atoms>  (887) 
nan

>  <Num_Not_Resolved_Atoms>  (887) 
nan

$$$$
CHEMBL3651776
     RDKit          3D

  0  0  0  0  0  0  0  0  0  0999 V3000
M  V30 BEGIN CTAB
M  V30 COUNTS 50 55 0 0 0
M  V30 BEGIN ATOM
M  V30 1 C 1.689649 -4.108207 -3.376333 0
M  V30 2 C 2.383071 -4.783455 -2.386820 0
M  V30 3 C 2.339833 -4.398319 -1.065903 0
M  V30 4 N 2.861840 -4.784060 0.132154 0
M  V30 5 N 2.462082 -4.007171 1.105481 0
M  V30 6 C 1.643467 -3.040953 0.649045 0
M  V30 7 C 1.029528 -2.007695 1.466115 0
M  V30 8 C -0.274930 -1.572937 1.552411 0
M  V30 9 C -0.608146 -0.543686 2.407432 0
M  V30 10 C 0.322234 0.088763 3.201785 0
M  V30 11 C 1.635833 -0.327894 3.134857 0
M  V30 12 C 1.969343 -1.358458 2.278321 0
M  V30 13 N 2.294118 0.458959 4.005069 0
M  V30 14 C 1.408177 1.320647 4.577333 0
M  V30 15 N 0.166589 1.096316 4.079539 0
M  V30 16 C -1.025395 1.823266 4.457374 0
M  V30 17 C -0.910317 2.338647 5.890675 0
M  V30 18 O -0.535185 3.576666 5.426487 0
M  V30 19 C -1.005383 3.297297 4.142030 0
M  V30 20 C 1.576241 -3.294362 -0.701347 0
M  V30 21 C 0.910215 -2.662922 -1.725613 0
M  V30 22 O 0.127071 -1.554316 -1.466236 0
M  V30 23 C -0.573876 -0.870575 -2.497250 0
M  V30 24 C -0.059383 0.523669 -2.698778 0
M  V30 25 C -0.956502 1.585167 -2.125172 0
M  V30 26 O -2.289190 1.392942 -2.441852 0
M  V30 27 C -2.690281 0.250502 -1.735988 0
M  V30 28 C -2.058910 -0.950501 -2.344041 0
M  V30 29 N 0.943300 -3.026302 -3.012142 0
M  V30 30 H 1.748672 -4.439599 -4.392976 0
M  V30 31 H 2.999863 -5.646823 -2.563095 0
M  V30 32 H 3.504793 -5.615672 0.211697 0
M  V30 33 H -0.947142 -2.107648 0.923532 0
M  V30 34 H -1.655594 -0.273776 2.403821 0
M  V30 35 H 3.041077 -1.594403 2.318222 0
M  V30 36 H 1.652374 2.087381 5.330784 0
M  V30 37 H -1.934964 1.262615 4.252332 0
M  V30 38 H -0.114438 1.845457 6.479533 0
M  V30 39 H -1.894694 2.291809 6.396923 0
M  V30 40 H -0.251318 3.580060 3.392347 0
M  V30 41 H -2.022302 3.719581 4.034227 0
M  V30 42 H -0.321261 -1.425371 -3.428589 0
M  V30 43 H 0.920305 0.621112 -2.175401 0
M  V30 44 H 0.120642 0.782874 -3.763652 0
M  V30 45 H -0.637078 2.555740 -2.565331 0
M  V30 46 H -0.795789 1.698275 -1.016449 0
M  V30 47 H -3.800530 0.167759 -1.929870 0
M  V30 48 H -2.592681 0.343464 -0.650824 0
M  V30 49 H -2.304796 -1.821032 -1.699295 0
M  V30 50 H -2.588708 -1.134270 -3.317307 0
M  V30 END ATOM
M  V30 BEGIN BOND
M  V30 1 2 1 2
M  V30 2 1 2 3
M  V30 3 1 3 4
M  V30 4 1 4 5
M  V30 5 2 5 6
M  V30 6 1 6 7
M  V30 7 2 7 8
M  V30 8 1 8 9
M  V30 9 2 9 10
M  V30 10 1 10 11
M  V30 11 2 11 12
M  V30 12 1 11 13
M  V30 13 2 13 14
M  V30 14 1 14 15
M  V30 15 1 15 16
M  V30 16 1 16 17
M  V30 17 1 17 18
M  V30 18 1 18 19
M  V30 19 1 6 20
M  V30 20 1 20 21
M  V30 21 1 21 22
M  V30 22 1 22 23
M  V30 23 1 23 24
M  V30 24 1 24 25
M  V30 25 1 25 26
M  V30 26 1 26 27
M  V30 27 1 27 28
M  V30 28 2 21 29
M  V30 29 1 29 1
M  V30 30 2 20 3
M  V30 31 1 28 23
M  V30 32 1 12 7
M  V30 33 1 19 16
M  V30 34 1 15 10
M  V30 35 1 1 30
M  V30 36 1 2 31
M  V30 37 1 4 32
M  V30 38 1 8 33
M  V30 39 1 9 34
M  V30 40 1 12 35
M  V30 41 1 14 36
M  V30 42 1 16 37
M  V30 43 1 17 38
M  V30 44 1 17 39
M  V30 45 1 19 40
M  V30 46 1 19 41
M  V30 47 1 23 42
M  V30 48 1 24 43
M  V30 49 1 24 44
M  V30 50 1 25 45
M  V30 51 1 25 46
M  V30 52 1 27 47
M  V30 53 1 27 48
M  V30 54 1 28 49
M  V30 55 1 28 50
M  V30 END BOND
M  V30 END CTAB
M  END
>  <Dataset>  (888) 
ChEMBL_Kinases

>  <Ligand_Instance>  (888) 
nan

>  <PDB_ID>  (888) 
nan

>  <Standardized_SMILES>  (888) 
c1cc2[nH]nc(-c3ccc4c(c3)ncn4C3COC3)c2c(OC2CCOCC2)n1

>  <Name>  (888) 
nan

>  <Pocket>  (888) 
nan

>  <ATP_Site>  (888) 
nan

>  <Peripheral>  (888) 
nan

>  <Num_H_Atoms_ProtBoundConf>  (888) 
nan

>  <Num_Resolved_Atoms>  (888) 
nan

>  <Num_Not_Resolved_Atoms>  (888) 
nan

$$$$
CHEMBL3651758
     RDKit          3D

  0  0  0  0  0  0  0  0  0  0999 V3000
M  V30 BEGIN CTAB
M  V30 COUNTS 47 51 0 0 0
M  V30 BEGIN ATOM
M  V30 1 C 0.745668 -4.113462 4.002067 0
M  V30 2 C 2.082102 -4.121894 3.660016 0
M  V30 3 C 2.424649 -3.300825 2.605635 0
M  V30 4 N 3.566029 -3.003539 1.959678 0
M  V30 5 N 3.332582 -2.128956 0.995898 0
M  V30 6 C 2.017235 -1.803011 0.956826 0
M  V30 7 C 1.515361 -0.851076 -0.023198 0
M  V30 8 C 0.442492 -0.817526 -0.888253 0
M  V30 9 N 0.435055 0.329867 -1.588759 0
M  V30 10 N 1.475070 1.052591 -1.207714 0
M  V30 11 C 1.647022 2.333607 -1.848008 0
M  V30 12 C 0.527251 3.293890 -1.440771 0
M  V30 13 C 1.012163 3.698269 -0.070300 0
M  V30 14 O 2.379277 3.613243 -0.046035 0
M  V30 15 C 2.833424 3.070769 -1.238131 0
M  V30 16 C 2.143720 0.375254 -0.271250 0
M  V30 17 C 1.458478 -2.546580 1.974212 0
M  V30 18 C 0.141111 -2.566629 2.345020 0
M  V30 19 O -0.842634 -1.805879 1.712139 0
M  V30 20 C -2.153991 -1.946552 2.227565 0
M  V30 21 C -2.780697 -0.658467 2.659535 0
M  V30 22 C -3.039851 0.204420 1.433854 0
M  V30 23 O -2.553955 -0.379665 0.281398 0
M  V30 24 C -3.143761 -1.607702 0.013350 0
M  V30 25 C -3.034776 -2.575040 1.159255 0
M  V30 26 N -0.190280 -3.373875 3.380178 0
M  V30 27 H 0.445152 -4.754683 4.834090 0
M  V30 28 H 2.834377 -4.715508 4.158975 0
M  V30 29 H 4.496381 -3.405956 2.188525 0
M  V30 30 H -0.255492 -1.641067 -0.943931 0
M  V30 31 H 1.692449 2.275798 -2.947052 0
M  V30 32 H -0.459919 2.796229 -1.402916 0
M  V30 33 H 0.578575 4.123254 -2.177998 0
M  V30 34 H 0.519910 3.026320 0.680491 0
M  V30 35 H 0.630875 4.714449 0.156064 0
M  V30 36 H 3.065105 3.924430 -1.918445 0
M  V30 37 H 3.704356 2.408250 -1.123085 0
M  V30 38 H 3.034936 0.836429 0.150951 0
M  V30 39 H -2.179430 -2.669406 3.080783 0
M  V30 40 H -2.187193 -0.119207 3.416059 0
M  V30 41 H -3.769795 -0.904005 3.096503 0
M  V30 42 H -4.103318 0.504473 1.367395 0
M  V30 43 H -2.471195 1.146161 1.572057 0
M  V30 44 H -4.208589 -1.490277 -0.316523 0
M  V30 45 H -2.620284 -2.029771 -0.866479 0
M  V30 46 H -2.567219 -3.504213 0.786698 0
M  V30 47 H -4.028338 -2.837204 1.585231 0
M  V30 END ATOM
M  V30 BEGIN BOND
M  V30 1 2 1 2
M  V30 2 1 2 3
M  V30 3 1 3 4
M  V30 4 1 4 5
M  V30 5 2 5 6
M  V30 6 1 6 7
M  V30 7 1 7 8
M  V30 8 2 8 9
M  V30 9 1 9 10
M  V30 10 1 10 11
M  V30 11 1 11 12
M  V30 12 1 12 13
M  V30 13 1 13 14
M  V30 14 1 14 15
M  V30 15 1 10 16
M  V30 16 1 6 17
M  V30 17 1 17 18
M  V30 18 1 18 19
M  V30 19 1 19 20
M  V30 20 1 20 21
M  V30 21 1 21 22
M  V30 22 1 22 23
M  V30 23 1 23 24
M  V30 24 1 24 25
M  V30 25 2 18 26
M  V30 26 1 26 1
M  V30 27 2 17 3
M  V30 28 1 25 20
M  V30 29 2 16 7
M  V30 30 1 15 11
M  V30 31 1 1 27
M  V30 32 1 2 28
M  V30 33 1 4 29
M  V30 34 1 8 30
M  V30 35 1 11 31
M  V30 36 1 12 32
M  V30 37 1 12 33
M  V30 38 1 13 34
M  V30 39 1 13 35
M  V30 40 1 15 36
M  V30 41 1 15 37
M  V30 42 1 16 38
M  V30 43 1 20 39
M  V30 44 1 21 40
M  V30 45 1 21 41
M  V30 46 1 22 42
M  V30 47 1 22 43
M  V30 48 1 24 44
M  V30 49 1 24 45
M  V30 50 1 25 46
M  V30 51 1 25 47
M  V30 END BOND
M  V30 END CTAB
M  END
>  <Dataset>  (889) 
ChEMBL_Kinases

>  <Ligand_Instance>  (889) 
nan

>  <PDB_ID>  (889) 
nan

>  <Standardized_SMILES>  (889) 
c1cc2[nH]nc(-c3cnn(C4CCOC4)c3)c2c(OC2CCOCC2)n1

>  <Name>  (889) 
nan

>  <Pocket>  (889) 
nan

>  <ATP_Site>  (889) 
nan

>  <Peripheral>  (889) 
nan

>  <Num_H_Atoms_ProtBoundConf>  (889) 
nan

>  <Num_Resolved_Atoms>  (889) 
nan

>  <Num_Not_Resolved_Atoms>  (889) 
nan

$$$$
CHEMBL3651759
     RDKit          3D

  0  0  0  0  0  0  0  0  0  0999 V3000
M  V30 BEGIN CTAB
M  V30 COUNTS 44 47 0 0 0
M  V30 BEGIN ATOM
M  V30 1 C 1.036469 -2.159509 3.938200 0
M  V30 2 C 1.015133 -2.560697 2.520121 0
M  V30 3 C 1.422560 -1.666907 1.563303 0
M  V30 4 C 1.428635 -1.967848 0.241119 0
M  V30 5 C 1.809492 -1.144468 -0.898659 0
M  V30 6 N 2.662364 -1.670908 -1.827408 0
M  V30 7 N 2.899515 -0.802219 -2.792635 0
M  V30 8 C 2.224332 0.333674 -2.559067 0
M  V30 9 C 2.065765 1.556259 -3.177485 0
M  V30 10 C 1.232082 2.458743 -2.549125 0
M  V30 11 N 0.577462 2.227797 -1.396290 0
M  V30 12 C 0.716782 1.039177 -0.772298 0
M  V30 13 O 0.042759 0.794884 0.415971 0
M  V30 14 C -0.766006 1.855883 0.891486 0
M  V30 15 C -0.263454 2.390562 2.214421 0
M  V30 16 C -0.523488 1.457488 3.355066 0
M  V30 17 O -1.471709 0.480466 3.080019 0
M  V30 18 C -2.559045 1.024779 2.422206 0
M  V30 19 C -2.216305 1.501155 1.031049 0
M  V30 20 C 1.545598 0.120012 -1.380159 0
M  V30 21 C 0.982827 -3.268340 -0.044843 0
M  V30 22 C 0.570181 -4.182926 0.888493 0
M  V30 23 C 0.114983 -5.535816 0.492860 0
M  V30 24 N 0.601047 -3.789554 2.164989 0
M  V30 25 H 1.760505 -1.350588 4.132604 0
M  V30 26 H -0.005241 -1.853901 4.206981 0
M  V30 27 H 1.257175 -3.060050 4.557151 0
M  V30 28 H 1.759423 -0.701175 1.841862 0
M  V30 29 H 3.506319 -0.923146 -3.629537 0
M  V30 30 H 2.587164 1.747887 -4.101342 0
M  V30 31 H 1.108995 3.433213 -3.046761 0
M  V30 32 H -0.669110 2.684568 0.163839 0
M  V30 33 H 0.822799 2.627462 2.107271 0
M  V30 34 H -0.755612 3.356531 2.420921 0
M  V30 35 H 0.417641 0.892624 3.599350 0
M  V30 36 H -0.834767 1.944731 4.284897 0
M  V30 37 H -2.948424 1.841303 3.056094 0
M  V30 38 H -3.362908 0.259640 2.353289 0
M  V30 39 H -2.803825 2.435424 0.855606 0
M  V30 40 H -2.565056 0.785756 0.263777 0
M  V30 41 H 0.951212 -3.607946 -1.090020 0
M  V30 42 H -0.874097 -5.474729 -0.029568 0
M  V30 43 H 0.808811 -5.979196 -0.241336 0
M  V30 44 H 0.088899 -6.220913 1.351179 0
M  V30 END ATOM
M  V30 BEGIN BOND
M  V30 1 1 1 2
M  V30 2 2 2 3
M  V30 3 1 3 4
M  V30 4 1 4 5
M  V30 5 2 5 6
M  V30 6 1 6 7
M  V30 7 1 7 8
M  V30 8 2 8 9
M  V30 9 1 9 10
M  V30 10 2 10 11
M  V30 11 1 11 12
M  V30 12 1 12 13
M  V30 13 1 13 14
M  V30 14 1 14 15
M  V30 15 1 15 16
M  V30 16 1 16 17
M  V30 17 1 17 18
M  V30 18 1 18 19
M  V30 19 2 12 20
M  V30 20 2 4 21
M  V30 21 1 21 22
M  V30 22 1 22 23
M  V30 23 2 22 24
M  V30 24 1 24 2
M  V30 25 1 20 5
M  V30 26 1 20 8
M  V30 27 1 19 14
M  V30 28 1 1 25
M  V30 29 1 1 26
M  V30 30 1 1 27
M  V30 31 1 3 28
M  V30 32 1 7 29
M  V30 33 1 9 30
M  V30 34 1 10 31
M  V30 35 1 14 32
M  V30 36 1 15 33
M  V30 37 1 15 34
M  V30 38 1 16 35
M  V30 39 1 16 36
M  V30 40 1 18 37
M  V30 41 1 18 38
M  V30 42 1 19 39
M  V30 43 1 19 40
M  V30 44 1 21 41
M  V30 45 1 23 42
M  V30 46 1 23 43
M  V30 47 1 23 44
M  V30 END BOND
M  V30 END CTAB
M  END
>  <Dataset>  (890) 
ChEMBL_Kinases

>  <Ligand_Instance>  (890) 
nan

>  <PDB_ID>  (890) 
nan

>  <Standardized_SMILES>  (890) 
Cc1cc(-c2n[nH]c3ccnc(OC4CCOCC4)c23)cc(C)n1

>  <Name>  (890) 
nan

>  <Pocket>  (890) 
nan

>  <ATP_Site>  (890) 
nan

>  <Peripheral>  (890) 
nan

>  <Num_H_Atoms_ProtBoundConf>  (890) 
nan

>  <Num_Resolved_Atoms>  (890) 
nan

>  <Num_Not_Resolved_Atoms>  (890) 
nan

$$$$
CHEMBL3651760
     RDKit          3D

  0  0  0  0  0  0  0  0  0  0999 V3000
M  V30 BEGIN CTAB
M  V30 COUNTS 42 45 0 0 0
M  V30 BEGIN ATOM
M  V30 1 C -0.475287 -4.675382 3.155056 0
M  V30 2 O -0.058176 -3.341093 2.932906 0
M  V30 3 C 0.928621 -3.135362 1.964311 0
M  V30 4 C 1.299627 -1.835680 1.783675 0
M  V30 5 C 2.262161 -1.488097 0.860190 0
M  V30 6 C 2.785700 -0.178172 0.501869 0
M  V30 7 N 4.138360 0.013511 0.441787 0
M  V30 8 N 4.404164 1.241508 0.100751 0
M  V30 9 C 3.299332 1.945606 -0.088695 0
M  V30 10 C 2.961314 3.234237 -0.447653 0
M  V30 11 C 1.620811 3.550078 -0.533273 0
M  V30 12 N 0.636155 2.639858 -0.277623 0
M  V30 13 C 0.944139 1.371295 0.075953 0
M  V30 14 O -0.074371 0.467712 0.327976 0
M  V30 15 C -1.404684 0.983216 0.184519 0
M  V30 16 C -2.078332 0.117233 -0.858496 0
M  V30 17 C -2.043045 -1.296552 -0.312851 0
M  V30 18 O -2.741553 -1.410296 0.863082 0
M  V30 19 C -2.385456 -0.547474 1.865522 0
M  V30 20 C -2.185470 0.878076 1.452643 0
M  V30 21 C 2.278246 1.057771 0.161743 0
M  V30 22 C 2.798107 -2.575904 0.154456 0
M  V30 23 C 2.410795 -3.884646 0.350613 0
M  V30 24 N 1.472974 -4.143978 1.261520 0
M  V30 25 H -1.332539 -4.744029 3.834416 0
M  V30 26 H -0.732410 -5.166760 2.183498 0
M  V30 27 H 0.380701 -5.282543 3.551350 0
M  V30 28 H 0.887966 -1.030803 2.336870 0
M  V30 29 H 5.375814 1.632245 -0.012064 0
M  V30 30 H 3.750942 3.945607 -0.647653 0
M  V30 31 H 1.355724 4.574422 -0.818465 0
M  V30 32 H -1.362989 2.064244 -0.116625 0
M  V30 33 H -1.523426 0.140214 -1.797219 0
M  V30 34 H -3.126072 0.457322 -0.951650 0
M  V30 35 H -2.517012 -1.986497 -1.041362 0
M  V30 36 H -0.976324 -1.604282 -0.239051 0
M  V30 37 H -3.234124 -0.555870 2.606915 0
M  V30 38 H -1.506072 -0.863372 2.456204 0
M  V30 39 H -1.651256 1.381999 2.310732 0
M  V30 40 H -3.160198 1.340293 1.292733 0
M  V30 41 H 3.573544 -2.408266 -0.605727 0
M  V30 42 H 2.868490 -4.673937 -0.231170 0
M  V30 END ATOM
M  V30 BEGIN BOND
M  V30 1 1 1 2
M  V30 2 1 2 3
M  V30 3 2 3 4
M  V30 4 1 4 5
M  V30 5 1 5 6
M  V30 6 2 6 7
M  V30 7 1 7 8
M  V30 8 1 8 9
M  V30 9 2 9 10
M  V30 10 1 10 11
M  V30 11 2 11 12
M  V30 12 1 12 13
M  V30 13 1 13 14
M  V30 14 1 14 15
M  V30 15 1 15 16
M  V30 16 1 16 17
M  V30 17 1 17 18
M  V30 18 1 18 19
M  V30 19 1 19 20
M  V30 20 2 13 21
M  V30 21 2 5 22
M  V30 22 1 22 23
M  V30 23 2 23 24
M  V30 24 1 24 3
M  V30 25 1 21 6
M  V30 26 1 21 9
M  V30 27 1 20 15
M  V30 28 1 1 25
M  V30 29 1 1 26
M  V30 30 1 1 27
M  V30 31 1 4 28
M  V30 32 1 8 29
M  V30 33 1 10 30
M  V30 34 1 11 31
M  V30 35 1 15 32
M  V30 36 1 16 33
M  V30 37 1 16 34
M  V30 38 1 17 35
M  V30 39 1 17 36
M  V30 40 1 19 37
M  V30 41 1 19 38
M  V30 42 1 20 39
M  V30 43 1 20 40
M  V30 44 1 22 41
M  V30 45 1 23 42
M  V30 END BOND
M  V30 END CTAB
M  END
>  <Dataset>  (891) 
ChEMBL_Kinases

>  <Ligand_Instance>  (891) 
nan

>  <PDB_ID>  (891) 
nan

>  <Standardized_SMILES>  (891) 
COc1cc(-c2n[nH]c3ccnc(OC4CCOCC4)c23)ccn1

>  <Name>  (891) 
nan

>  <Pocket>  (891) 
nan

>  <ATP_Site>  (891) 
nan

>  <Peripheral>  (891) 
nan

>  <Num_H_Atoms_ProtBoundConf>  (891) 
nan

>  <Num_Resolved_Atoms>  (891) 
nan

>  <Num_Not_Resolved_Atoms>  (891) 
nan

$$$$
CHEMBL3651761
     RDKit          3D

  0  0  0  0  0  0  0  0  0  0999 V3000
M  V30 BEGIN CTAB
M  V30 COUNTS 51 55 0 0 0
M  V30 BEGIN ATOM
M  V30 1 F -0.152879 -2.951018 -0.918489 0
M  V30 2 C -0.890181 -2.075192 -0.155591 0
M  V30 3 C -0.890086 -0.691686 -0.387686 0
M  V30 4 C -0.031338 -0.308569 -1.512386 0
M  V30 5 N -0.209706 -0.896184 -2.734248 0
M  V30 6 N 0.669780 -0.412380 -3.603455 0
M  V30 7 C 1.452678 0.499652 -3.001810 0
M  V30 8 C 2.507995 1.306992 -3.389567 0
M  V30 9 C 3.042179 2.124372 -2.416492 0
M  V30 10 N 2.596066 2.170631 -1.145352 0
M  V30 11 C 1.557325 1.383908 -0.741989 0
M  V30 12 O 1.092717 1.433792 0.579792 0
M  V30 13 C 1.794764 2.343891 1.409104 0
M  V30 14 C 2.445506 1.722297 2.597920 0
M  V30 15 C 1.592780 1.959850 3.850692 0
M  V30 16 O 1.460339 3.287910 4.166949 0
M  V30 17 C 1.617402 4.114179 3.074081 0
M  V30 18 C 0.925734 3.493210 1.853579 0
M  V30 19 C 1.018353 0.568722 -1.693781 0
M  V30 20 C -1.656775 0.130873 0.418938 0
M  V30 21 C -2.400202 -0.454984 1.434996 0
M  V30 22 N -2.383561 -1.790738 1.639047 0
M  V30 23 C -1.643017 -2.606750 0.862585 0
M  V30 24 N -1.734136 -3.984663 1.193067 0
M  V30 25 C -2.489298 -4.575418 2.280659 0
M  V30 26 C -3.572582 -5.403761 1.610001 0
M  V30 27 O -2.970275 -6.515178 1.083230 0
M  V30 28 C -1.625648 -6.418098 0.878494 0
M  V30 29 C -1.096525 -5.073303 0.507564 0
M  V30 30 H 0.793399 -0.659353 -4.624260 0
M  V30 31 H 2.861459 1.267507 -4.410643 0
M  V30 32 H 3.876629 2.753755 -2.752753 0
M  V30 33 H 2.615655 2.745275 0.740924 0
M  V30 34 H 3.465932 2.156984 2.760974 0
M  V30 35 H 2.594690 0.624205 2.544548 0
M  V30 36 H 0.616591 1.465148 3.630808 0
M  V30 37 H 2.074631 1.354243 4.639280 0
M  V30 38 H 2.694237 4.300295 2.873359 0
M  V30 39 H 1.167659 5.098740 3.267647 0
M  V30 40 H -0.062041 3.161642 2.170827 0
M  V30 41 H 0.926681 4.282520 1.081784 0
M  V30 42 H -1.602604 1.180434 0.169516 0
M  V30 43 H -2.987526 0.234800 2.046266 0
M  V30 44 H -2.932853 -3.815675 2.948292 0
M  V30 45 H -1.843409 -5.210416 2.939114 0
M  V30 46 H -4.356819 -5.709664 2.329734 0
M  V30 47 H -3.991360 -4.803094 0.773583 0
M  V30 48 H -1.029443 -6.871635 1.713989 0
M  V30 49 H -1.400068 -7.090484 -0.003523 0
M  V30 50 H -0.010407 -5.050570 0.731927 0
M  V30 51 H -1.250736 -4.923723 -0.586585 0
M  V30 END ATOM
M  V30 BEGIN BOND
M  V30 1 1 1 2
M  V30 2 2 2 3
M  V30 3 1 3 4
M  V30 4 2 4 5
M  V30 5 1 5 6
M  V30 6 1 6 7
M  V30 7 2 7 8
M  V30 8 1 8 9
M  V30 9 2 9 10
M  V30 10 1 10 11
M  V30 11 1 11 12
M  V30 12 1 12 13
M  V30 13 1 13 14
M  V30 14 1 14 15
M  V30 15 1 15 16
M  V30 16 1 16 17
M  V30 17 1 17 18
M  V30 18 2 11 19
M  V30 19 1 3 20
M  V30 20 2 20 21
M  V30 21 1 21 22
M  V30 22 2 22 23
M  V30 23 1 23 24
M  V30 24 1 24 25
M  V30 25 1 25 26
M  V30 26 1 26 27
M  V30 27 1 27 28
M  V30 28 1 28 29
M  V30 29 1 23 2
M  V30 30 1 29 24
M  V30 31 1 19 4
M  V30 32 1 19 7
M  V30 33 1 18 13
M  V30 34 1 6 30
M  V30 35 1 8 31
M  V30 36 1 9 32
M  V30 37 1 13 33
M  V30 38 1 14 34
M  V30 39 1 14 35
M  V30 40 1 15 36
M  V30 41 1 15 37
M  V30 42 1 17 38
M  V30 43 1 17 39
M  V30 44 1 18 40
M  V30 45 1 18 41
M  V30 46 1 20 42
M  V30 47 1 21 43
M  V30 48 1 25 44
M  V30 49 1 25 45
M  V30 50 1 26 46
M  V30 51 1 26 47
M  V30 52 1 28 48
M  V30 53 1 28 49
M  V30 54 1 29 50
M  V30 55 1 29 51
M  V30 END BOND
M  V30 END CTAB
M  END
>  <Dataset>  (892) 
ChEMBL_Kinases

>  <Ligand_Instance>  (892) 
nan

>  <PDB_ID>  (892) 
nan

>  <Standardized_SMILES>  (892) 
Fc1c(-c2n[nH]c3ccnc(OC4CCOCC4)c23)ccnc1N1CCOCC1

>  <Name>  (892) 
nan

>  <Pocket>  (892) 
nan

>  <ATP_Site>  (892) 
nan

>  <Peripheral>  (892) 
nan

>  <Num_H_Atoms_ProtBoundConf>  (892) 
nan

>  <Num_Resolved_Atoms>  (892) 
nan

>  <Num_Not_Resolved_Atoms>  (892) 
nan

$$$$
CHEMBL3651762
     RDKit          3D

  0  0  0  0  0  0  0  0  0  0999 V3000
M  V30 BEGIN CTAB
M  V30 COUNTS 31 33 0 0 0
M  V30 BEGIN ATOM
M  V30 1 C -1.604498 -4.035970 4.651107 0
M  V30 2 O -0.680329 -3.748276 3.607419 0
M  V30 3 C -1.039860 -2.738840 2.724998 0
M  V30 4 C -0.194602 -2.394469 1.677089 0
M  V30 5 C -0.458214 -1.394237 0.731252 0
M  V30 6 C 0.548938 -1.196939 -0.299085 0
M  V30 7 N 1.010783 -2.302877 -0.954818 0
M  V30 8 N 1.921932 -1.955742 -1.853251 0
M  V30 9 C 2.108040 -0.623103 -1.838903 0
M  V30 10 C 2.882560 0.311768 -2.496699 0
M  V30 11 C 2.743376 1.637204 -2.136903 0
M  V30 12 N 1.891445 2.049943 -1.180005 0
M  V30 13 C 1.107875 1.163382 -0.505163 0
M  V30 14 O 0.244067 1.616097 0.473073 0
M  V30 15 C 0.174889 2.998272 0.769845 0
M  V30 16 C 1.249484 -0.154700 -0.867387 0
M  V30 17 C -1.659577 -0.742296 0.908313 0
M  V30 18 C -2.510136 -1.070653 1.942342 0
M  V30 19 N -2.184035 -2.043664 2.809118 0
M  V30 20 H -2.637578 -4.034505 4.293485 0
M  V30 21 H -1.555157 -3.294210 5.478354 0
M  V30 22 H -1.425643 -5.054010 5.078237 0
M  V30 23 H 0.726938 -2.958318 1.613831 0
M  V30 24 H 2.454673 -2.573621 -2.507273 0
M  V30 25 H 3.559088 -0.053602 -3.262469 0
M  V30 26 H 3.357559 2.357876 -2.662074 0
M  V30 27 H 1.167117 3.499164 0.572019 0
M  V30 28 H -0.553537 3.523043 0.116168 0
M  V30 29 H -0.154641 3.183544 1.815094 0
M  V30 30 H -1.894112 0.012607 0.203652 0
M  V30 31 H -3.442206 -0.507179 2.014098 0
M  V30 END ATOM
M  V30 BEGIN BOND
M  V30 1 1 1 2
M  V30 2 1 2 3
M  V30 3 2 3 4
M  V30 4 1 4 5
M  V30 5 1 5 6
M  V30 6 2 6 7
M  V30 7 1 7 8
M  V30 8 1 8 9
M  V30 9 2 9 10
M  V30 10 1 10 11
M  V30 11 2 11 12
M  V30 12 1 12 13
M  V30 13 1 13 14
M  V30 14 1 14 15
M  V30 15 2 13 16
M  V30 16 2 5 17
M  V30 17 1 17 18
M  V30 18 2 18 19
M  V30 19 1 19 3
M  V30 20 1 16 6
M  V30 21 1 16 9
M  V30 22 1 1 20
M  V30 23 1 1 21
M  V30 24 1 1 22
M  V30 25 1 4 23
M  V30 26 1 8 24
M  V30 27 1 10 25
M  V30 28 1 11 26
M  V30 29 1 15 27
M  V30 30 1 15 28
M  V30 31 1 15 29
M  V30 32 1 17 30
M  V30 33 1 18 31
M  V30 END BOND
M  V30 END CTAB
M  END
>  <Dataset>  (893) 
ChEMBL_Kinases

>  <Ligand_Instance>  (893) 
nan

>  <PDB_ID>  (893) 
nan

>  <Standardized_SMILES>  (893) 
COc1cc(-c2n[nH]c3ccnc(OC)c23)ccn1

>  <Name>  (893) 
nan

>  <Pocket>  (893) 
nan

>  <ATP_Site>  (893) 
nan

>  <Peripheral>  (893) 
nan

>  <Num_H_Atoms_ProtBoundConf>  (893) 
nan

>  <Num_Resolved_Atoms>  (893) 
nan

>  <Num_Not_Resolved_Atoms>  (893) 
nan

$$$$
CHEMBL3651763
     RDKit          3D

  0  0  0  0  0  0  0  0  0  0999 V3000
M  V30 BEGIN CTAB
M  V30 COUNTS 40 43 0 0 0
M  V30 BEGIN ATOM
M  V30 1 C 0.461353 -3.583037 1.299637 0
M  V30 2 O 1.037034 -2.477220 0.672045 0
M  V30 3 C 2.373878 -2.455979 0.315651 0
M  V30 4 N 3.134837 -3.546605 0.587987 0
M  V30 5 C 4.436921 -3.555323 0.251683 0
M  V30 6 C 5.067573 -2.492580 -0.372167 0
M  V30 7 C 4.325775 -1.366473 -0.664737 0
M  V30 8 N 4.493821 -0.161119 -1.234589 0
M  V30 9 N 3.355360 0.518357 -1.232949 0
M  V30 10 C 2.371001 -0.225537 -0.650291 0
M  V30 11 C 1.045789 0.367518 -0.567709 0
M  V30 12 C 0.536781 0.935733 -1.732626 0
M  V30 13 C -0.704593 1.562016 -1.849928 0
M  V30 14 N -1.440552 1.599785 -0.723268 0
M  V30 15 C -1.015765 1.074063 0.434742 0
M  V30 16 N -1.843065 1.149984 1.581294 0
M  V30 17 C -3.140650 1.798508 1.487216 0
M  V30 18 C -4.171885 0.728675 1.781065 0
M  V30 19 O -3.735005 -0.162789 2.726311 0
M  V30 20 C -2.762716 0.325577 3.589305 0
M  V30 21 C -1.458392 0.607347 2.860644 0
M  V30 22 C 0.199177 0.471026 0.514986 0
M  V30 23 C 2.996130 -1.401266 -0.301961 0
M  V30 24 H 0.742389 -3.528058 2.372733 0
M  V30 25 H -0.637104 -3.593036 1.233129 0
M  V30 26 H 0.816995 -4.550018 0.866758 0
M  V30 27 H 5.009809 -4.435110 0.482162 0
M  V30 28 H 6.109615 -2.473729 -0.652631 0
M  V30 29 H 5.432079 0.128451 -1.606556 0
M  V30 30 H 1.139398 0.904021 -2.652479 0
M  V30 31 H -1.004631 1.971260 -2.803166 0
M  V30 32 H -3.301872 2.187824 0.462844 0
M  V30 33 H -3.242767 2.623144 2.219438 0
M  V30 34 H -4.299561 0.168893 0.814165 0
M  V30 35 H -5.164685 1.168433 2.003907 0
M  V30 36 H -2.555066 -0.475603 4.326295 0
M  V30 37 H -3.117753 1.198894 4.185827 0
M  V30 38 H -0.943038 1.416077 3.444683 0
M  V30 39 H -0.903677 -0.325236 2.802582 0
M  V30 40 H 0.560542 0.054689 1.433796 0
M  V30 END ATOM
M  V30 BEGIN BOND
M  V30 1 1 1 2
M  V30 2 1 2 3
M  V30 3 2 3 4
M  V30 4 1 4 5
M  V30 5 2 5 6
M  V30 6 1 6 7
M  V30 7 1 7 8
M  V30 8 1 8 9
M  V30 9 2 9 10
M  V30 10 1 10 11
M  V30 11 2 11 12
M  V30 12 1 12 13
M  V30 13 2 13 14
M  V30 14 1 14 15
M  V30 15 1 15 16
M  V30 16 1 16 17
M  V30 17 1 17 18
M  V30 18 1 18 19
M  V30 19 1 19 20
M  V30 20 1 20 21
M  V30 21 2 15 22
M  V30 22 1 10 23
M  V30 23 1 23 3
M  V30 24 2 23 7
M  V30 25 1 22 11
M  V30 26 1 21 16
M  V30 27 1 1 24
M  V30 28 1 1 25
M  V30 29 1 1 26
M  V30 30 1 5 27
M  V30 31 1 6 28
M  V30 32 1 8 29
M  V30 33 1 12 30
M  V30 34 1 13 31
M  V30 35 1 17 32
M  V30 36 1 17 33
M  V30 37 1 18 34
M  V30 38 1 18 35
M  V30 39 1 20 36
M  V30 40 1 20 37
M  V30 41 1 21 38
M  V30 42 1 21 39
M  V30 43 1 22 40
M  V30 END BOND
M  V30 END CTAB
M  END
>  <Dataset>  (894) 
ChEMBL_Kinases

>  <Ligand_Instance>  (894) 
nan

>  <PDB_ID>  (894) 
nan

>  <Standardized_SMILES>  (894) 
COc1nccc2[nH]nc(-c3ccnc(N4CCOCC4)c3)c12

>  <Name>  (894) 
nan

>  <Pocket>  (894) 
nan

>  <ATP_Site>  (894) 
nan

>  <Peripheral>  (894) 
nan

>  <Num_H_Atoms_ProtBoundConf>  (894) 
nan

>  <Num_Resolved_Atoms>  (894) 
nan

>  <Num_Not_Resolved_Atoms>  (894) 
nan

$$$$
CHEMBL3651764
     RDKit          3D

  0  0  0  0  0  0  0  0  0  0999 V3000
M  V30 BEGIN CTAB
M  V30 COUNTS 30 32 0 0 0
M  V30 BEGIN ATOM
M  V30 1 C -1.013941 -2.363624 3.103000 0
M  V30 2 O -0.320794 -1.760230 2.036309 0
M  V30 3 C 0.497477 -2.473467 1.182264 0
M  V30 4 N 0.626958 -3.801654 1.394956 0
M  V30 5 C 1.421972 -4.562940 0.587570 0
M  V30 6 C 2.108096 -3.981947 -0.462881 0
M  V30 7 C 2.011784 -2.628280 -0.725745 0
M  V30 8 N 2.482001 -1.708939 -1.586763 0
M  V30 9 N 1.991477 -0.511293 -1.293370 0
M  V30 10 C 1.163882 -0.591993 -0.209679 0
M  V30 11 C 0.538399 0.635336 0.257792 0
M  V30 12 C 1.371776 1.732811 0.428808 0
M  V30 13 C 0.969978 2.992804 0.851893 0
M  V30 14 N -0.342124 3.132580 1.110350 0
M  V30 15 C -1.211644 2.117665 0.968406 0
M  V30 16 C -2.670022 2.238349 1.245828 0
M  V30 17 F -2.917843 1.638753 2.480707 0
M  V30 18 F -3.353581 1.506437 0.294309 0
M  V30 19 F -3.067901 3.556511 1.285904 0
M  V30 20 C -0.786889 0.879102 0.547280 0
M  V30 21 C 1.190506 -1.927206 0.131958 0
M  V30 22 H -1.646215 -3.162379 2.669480 0
M  V30 23 H -0.328497 -2.730117 3.893593 0
M  V30 24 H -1.639787 -1.576208 3.573804 0
M  V30 25 H 1.556373 -5.634485 0.720422 0
M  V30 26 H 2.761026 -4.543073 -1.144032 0
M  V30 27 H 3.137865 -1.971927 -2.354370 0
M  V30 28 H 2.443929 1.637952 0.223069 0
M  V30 29 H 1.688756 3.793099 0.958080 0
M  V30 30 H -1.460141 0.051223 0.413961 0
M  V30 END ATOM
M  V30 BEGIN BOND
M  V30 1 1 1 2
M  V30 2 1 2 3
M  V30 3 2 3 4
M  V30 4 1 4 5
M  V30 5 2 5 6
M  V30 6 1 6 7
M  V30 7 1 7 8
M  V30 8 1 8 9
M  V30 9 2 9 10
M  V30 10 1 10 11
M  V30 11 2 11 12
M  V30 12 1 12 13
M  V30 13 2 13 14
M  V30 14 1 14 15
M  V30 15 1 15 16
M  V30 16 1 16 17
M  V30 17 1 16 18
M  V30 18 1 16 19
M  V30 19 2 15 20
M  V30 20 1 10 21
M  V30 21 1 21 3
M  V30 22 2 21 7
M  V30 23 1 20 11
M  V30 24 1 1 22
M  V30 25 1 1 23
M  V30 26 1 1 24
M  V30 27 1 5 25
M  V30 28 1 6 26
M  V30 29 1 8 27
M  V30 30 1 12 28
M  V30 31 1 13 29
M  V30 32 1 20 30
M  V30 END BOND
M  V30 END CTAB
M  END
>  <Dataset>  (895) 
ChEMBL_Kinases

>  <Ligand_Instance>  (895) 
nan

>  <PDB_ID>  (895) 
nan

>  <Standardized_SMILES>  (895) 
COc1nccc2[nH]nc(-c3ccnc(C(F)(F)F)c3)c12

>  <Name>  (895) 
nan

>  <Pocket>  (895) 
nan

>  <ATP_Site>  (895) 
nan

>  <Peripheral>  (895) 
nan

>  <Num_H_Atoms_ProtBoundConf>  (895) 
nan

>  <Num_Resolved_Atoms>  (895) 
nan

>  <Num_Not_Resolved_Atoms>  (895) 
nan

$$$$
CHEMBL3651765
     RDKit          3D

  0  0  0  0  0  0  0  0  0  0999 V3000
M  V30 BEGIN CTAB
M  V30 COUNTS 43 46 0 0 0
M  V30 BEGIN ATOM
M  V30 1 C -0.999560 -4.512277 0.843248 0
M  V30 2 O -0.509420 -3.539639 -0.036557 0
M  V30 3 C 0.086147 -3.866096 -1.222536 0
M  V30 4 N 0.187618 -5.153668 -1.508909 0
M  V30 5 C 0.757421 -5.600075 -2.638106 0
M  V30 6 C 1.258669 -4.685359 -3.537900 0
M  V30 7 C 1.137848 -3.355583 -3.211973 0
M  V30 8 N 1.527156 -2.228204 -3.826791 0
M  V30 9 N 1.216081 -1.174403 -3.128487 0
M  V30 10 C 0.579461 -1.521027 -1.967769 0
M  V30 11 C 0.157028 -0.557128 -0.988730 0
M  V30 12 C -0.739712 -0.516310 0.007439 0
M  V30 13 C -0.953390 0.469661 0.932542 0
M  V30 14 C -0.166268 1.595330 0.872300 0
M  V30 15 C -0.359833 2.667812 1.837820 0
M  V30 16 O -1.122533 3.665847 1.740617 0
M  V30 17 N 0.427775 2.530417 3.017879 0
M  V30 18 C 1.367484 1.452206 3.320705 0
M  V30 19 C 1.187162 0.880715 4.687439 0
M  V30 20 O 0.107840 1.366857 5.373125 0
M  V30 21 C -0.116795 2.710153 5.326979 0
M  V30 22 C 0.454512 3.439426 4.162296 0
M  V30 23 C 0.795521 1.689817 -0.103182 0
M  V30 24 Cl 1.764966 3.124204 -0.146212 0
M  V30 25 C 0.914808 0.634488 -0.973340 0
M  V30 26 C 0.553425 -2.889955 -2.057326 0
M  V30 27 H -1.831085 -5.114042 0.388447 0
M  V30 28 H -0.201219 -5.238451 1.151309 0
M  V30 29 H -1.392123 -4.099411 1.781858 0
M  V30 30 H 0.843696 -6.669461 -2.880764 0
M  V30 31 H 1.734574 -4.960068 -4.472599 0
M  V30 32 H 1.469440 -0.214862 -3.502335 0
M  V30 33 H -1.406969 -1.331341 0.068232 0
M  V30 34 H -1.711620 0.363610 1.679195 0
M  V30 35 H 2.381505 1.937911 3.294959 0
M  V30 36 H 1.391701 0.694326 2.521551 0
M  V30 37 H 2.139115 0.911094 5.290643 0
M  V30 38 H 0.993253 -0.225073 4.554160 0
M  V30 39 H -1.233423 2.849301 5.305139 0
M  V30 40 H 0.268855 3.168985 6.280268 0
M  V30 41 H -0.196120 4.327716 3.953094 0
M  V30 42 H 1.499100 3.768634 4.404271 0
M  V30 43 H 1.712874 0.824541 -1.703210 0
M  V30 END ATOM
M  V30 BEGIN BOND
M  V30 1 1 1 2
M  V30 2 1 2 3
M  V30 3 2 3 4
M  V30 4 1 4 5
M  V30 5 2 5 6
M  V30 6 1 6 7
M  V30 7 2 7 8
M  V30 8 1 8 9
M  V30 9 1 9 10
M  V30 10 1 10 11
M  V30 11 2 11 12
M  V30 12 1 12 13
M  V30 13 2 13 14
M  V30 14 1 14 15
M  V30 15 2 15 16
M  V30 16 1 15 17
M  V30 17 1 17 18
M  V30 18 1 18 19
M  V30 19 1 19 20
M  V30 20 1 20 21
M  V30 21 1 21 22
M  V30 22 1 14 23
M  V30 23 1 23 24
M  V30 24 2 23 25
M  V30 25 2 10 26
M  V30 26 1 26 3
M  V30 27 1 26 7
M  V30 28 1 25 11
M  V30 29 1 22 17
M  V30 30 1 1 27
M  V30 31 1 1 28
M  V30 32 1 1 29
M  V30 33 1 5 30
M  V30 34 1 6 31
M  V30 35 1 9 32
M  V30 36 1 12 33
M  V30 37 1 13 34
M  V30 38 1 18 35
M  V30 39 1 18 36
M  V30 40 1 19 37
M  V30 41 1 19 38
M  V30 42 1 21 39
M  V30 43 1 21 40
M  V30 44 1 22 41
M  V30 45 1 22 42
M  V30 46 1 25 43
M  V30 END BOND
M  V30 END CTAB
M  END
>  <Dataset>  (896) 
ChEMBL_Kinases

>  <Ligand_Instance>  (896) 
nan

>  <PDB_ID>  (896) 
nan

>  <Standardized_SMILES>  (896) 
COc1nccc2n[nH]c(-c3ccc(C(=O)N4CCOCC4)c(Cl)c3)c12

>  <Name>  (896) 
nan

>  <Pocket>  (896) 
nan

>  <ATP_Site>  (896) 
nan

>  <Peripheral>  (896) 
nan

>  <Num_H_Atoms_ProtBoundConf>  (896) 
nan

>  <Num_Resolved_Atoms>  (896) 
nan

>  <Num_Not_Resolved_Atoms>  (896) 
nan

$$$$
CHEMBL3651775
     RDKit          3D

  0  0  0  0  0  0  0  0  0  0999 V3000
M  V30 BEGIN CTAB
M  V30 COUNTS 51 55 0 0 0
M  V30 BEGIN ATOM
M  V30 1 C -0.274613 -4.022110 2.594732 0
M  V30 2 C 0.711570 -3.060123 3.249962 0
M  V30 3 C 0.038789 -1.860493 3.832355 0
M  V30 4 N 1.831275 -2.803817 2.401694 0
M  V30 5 C 2.805583 -3.753973 2.260368 0
M  V30 6 N 3.760546 -3.329818 1.443886 0
M  V30 7 C 3.447562 -2.097585 1.025533 0
M  V30 8 C 4.083956 -1.208060 0.188686 0
M  V30 9 C 3.415532 0.000224 0.017636 0
M  V30 10 C 2.195011 0.366794 0.606173 0
M  V30 11 C 1.743231 1.711667 0.283387 0
M  V30 12 N 2.638178 2.740065 0.423184 0
M  V30 13 N 2.083712 3.888413 0.086086 0
M  V30 14 C 0.818431 3.708692 -0.290929 0
M  V30 15 C -0.229120 4.473274 -0.740103 0
M  V30 16 C -1.392818 3.796411 -1.024280 0
M  V30 17 N -1.589485 2.476568 -0.902542 0
M  V30 18 C -0.553097 1.727904 -0.458684 0
M  V30 19 O -0.794064 0.354203 -0.345429 0
M  V30 20 C -2.071591 -0.151544 -0.735241 0
M  V30 21 C -2.885088 -0.701493 0.371910 0
M  V30 22 C -2.829159 -2.169224 0.600108 0
M  V30 23 O -2.078902 -2.865158 -0.318384 0
M  V30 24 C -2.489015 -2.474776 -1.599258 0
M  V30 25 C -1.911169 -1.122025 -1.844912 0
M  V30 26 C 0.631168 2.351582 -0.160075 0
M  V30 27 C 1.635535 -0.588350 1.425429 0
M  V30 28 C 2.261389 -1.796648 1.624884 0
M  V30 29 H 0.064035 -5.079071 2.733835 0
M  V30 30 H -0.292030 -3.862177 1.497994 0
M  V30 31 H -1.288855 -3.952218 3.012962 0
M  V30 32 H 1.086364 -3.645798 4.155669 0
M  V30 33 H -0.810274 -1.563111 3.183845 0
M  V30 34 H -0.473995 -2.127823 4.813440 0
M  V30 35 H 0.715622 -1.049503 4.103703 0
M  V30 36 H 2.888303 -4.741547 2.701983 0
M  V30 37 H 5.022800 -1.409366 -0.304109 0
M  V30 38 H 3.942110 0.697043 -0.654991 0
M  V30 39 H 2.557443 4.832771 0.104391 0
M  V30 40 H -0.091743 5.535839 -0.844857 0
M  V30 41 H -2.225108 4.414061 -1.382687 0
M  V30 42 H -2.640736 0.737764 -1.135382 0
M  V30 43 H -2.710031 -0.183751 1.349037 0
M  V30 44 H -3.972002 -0.448091 0.159081 0
M  V30 45 H -3.876918 -2.596340 0.647004 0
M  V30 46 H -2.428774 -2.379294 1.619979 0
M  V30 47 H -3.586296 -2.418349 -1.675425 0
M  V30 48 H -2.150205 -3.194808 -2.343572 0
M  V30 49 H -0.816788 -1.234717 -2.103166 0
M  V30 50 H -2.365262 -0.749761 -2.798168 0
M  V30 51 H 0.696696 -0.299058 1.867919 0
M  V30 END ATOM
M  V30 BEGIN BOND
M  V30 1 1 1 2
M  V30 2 1 2 3
M  V30 3 1 2 4
M  V30 4 1 4 5
M  V30 5 2 5 6
M  V30 6 1 6 7
M  V30 7 2 7 8
M  V30 8 1 8 9
M  V30 9 2 9 10
M  V30 10 1 10 11
M  V30 11 2 11 12
M  V30 12 1 12 13
M  V30 13 1 13 14
M  V30 14 2 14 15
M  V30 15 1 15 16
M  V30 16 2 16 17
M  V30 17 1 17 18
M  V30 18 1 18 19
M  V30 19 1 19 20
M  V30 20 1 20 21
M  V30 21 1 21 22
M  V30 22 1 22 23
M  V30 23 1 23 24
M  V30 24 1 24 25
M  V30 25 2 18 26
M  V30 26 1 10 27
M  V30 27 2 27 28
M  V30 28 1 28 4
M  V30 29 1 28 7
M  V30 30 1 26 11
M  V30 31 1 26 14
M  V30 32 1 25 20
M  V30 33 1 1 29
M  V30 34 1 1 30
M  V30 35 1 1 31
M  V30 36 1 2 32
M  V30 37 1 3 33
M  V30 38 1 3 34
M  V30 39 1 3 35
M  V30 40 1 5 36
M  V30 41 1 8 37
M  V30 42 1 9 38
M  V30 43 1 13 39
M  V30 44 1 15 40
M  V30 45 1 16 41
M  V30 46 1 20 42
M  V30 47 1 21 43
M  V30 48 1 21 44
M  V30 49 1 22 45
M  V30 50 1 22 46
M  V30 51 1 24 47
M  V30 52 1 24 48
M  V30 53 1 25 49
M  V30 54 1 25 50
M  V30 55 1 27 51
M  V30 END BOND
M  V30 END CTAB
M  END
>  <Dataset>  (897) 
ChEMBL_Kinases

>  <Ligand_Instance>  (897) 
nan

>  <PDB_ID>  (897) 
nan

>  <Standardized_SMILES>  (897) 
CC(C)n1cnc2ccc(-c3n[nH]c4ccnc(OC5CCOCC5)c34)cc21

>  <Name>  (897) 
nan

>  <Pocket>  (897) 
nan

>  <ATP_Site>  (897) 
nan

>  <Peripheral>  (897) 
nan

>  <Num_H_Atoms_ProtBoundConf>  (897) 
nan

>  <Num_Resolved_Atoms>  (897) 
nan

>  <Num_Not_Resolved_Atoms>  (897) 
nan

$$$$
CHEMBL3651767
     RDKit          3D

  0  0  0  0  0  0  0  0  0  0999 V3000
M  V30 BEGIN CTAB
M  V30 COUNTS 56 60 0 0 0
M  V30 BEGIN ATOM
M  V30 1 C -0.064513 -1.118228 4.894561 0
M  V30 2 C 0.237786 -2.181255 3.859790 0
M  V30 3 C 1.295281 -3.093488 4.428256 0
M  V30 4 C 1.663561 -4.090201 3.350271 0
M  V30 5 C 2.485221 -3.357064 2.331092 0
M  V30 6 N 1.781647 -2.131449 1.927774 0
M  V30 7 C 2.281968 -1.474017 0.755903 0
M  V30 8 C 1.711338 -0.333305 0.273644 0
M  V30 9 C 2.107622 0.377148 -0.836146 0
M  V30 10 C 1.521199 1.578065 -1.388102 0
M  V30 11 N 2.353685 2.614031 -1.685336 0
M  V30 12 N 1.675020 3.633347 -2.185049 0
M  V30 13 C 0.364276 3.335067 -2.248149 0
M  V30 14 C -0.820892 3.903814 -2.643430 0
M  V30 15 C -1.995572 3.199192 -2.531253 0
M  V30 16 N -2.032135 1.931686 -2.033046 0
M  V30 17 C -0.890623 1.335326 -1.632812 0
M  V30 18 O -0.964381 0.042007 -1.131706 0
M  V30 19 C -2.222589 -0.555989 -1.076849 0
M  V30 20 C -2.673065 -0.934469 0.318707 0
M  V30 21 C -4.165057 -1.239886 0.181917 0
M  V30 22 O -4.586739 -1.324733 -1.122089 0
M  V30 23 C -3.833327 -2.133830 -1.940022 0
M  V30 24 C -2.349793 -1.808686 -1.907708 0
M  V30 25 C 0.279420 2.054018 -1.750380 0
M  V30 26 C 3.212015 -0.177204 -1.490995 0
M  V30 27 C 3.796929 -1.328986 -1.013064 0
M  V30 28 N 3.342312 -1.948064 0.070809 0
M  V30 29 C 0.635408 -1.516044 2.590049 0
M  V30 30 H -0.284355 -1.535577 5.897008 0
M  V30 31 H 0.798886 -0.426243 4.958346 0
M  V30 32 H -0.957177 -0.543374 4.570558 0
M  V30 33 H -0.690295 -2.782924 3.760630 0
M  V30 34 H 2.161626 -2.476049 4.739140 0
M  V30 35 H 0.861842 -3.630431 5.280734 0
M  V30 36 H 0.741205 -4.438551 2.881448 0
M  V30 37 H 2.269394 -4.912232 3.790420 0
M  V30 38 H 3.505098 -3.131990 2.655931 0
M  V30 39 H 2.573969 -4.010217 1.429243 0
M  V30 40 H 0.872470 0.055587 0.824237 0
M  V30 41 H 2.046221 4.557680 -2.501464 0
M  V30 42 H -0.759929 4.917959 -3.037693 0
M  V30 43 H -2.907655 3.699355 -2.860181 0
M  V30 44 H -3.009228 0.153601 -1.470888 0
M  V30 45 H -2.194534 -1.920820 0.530579 0
M  V30 46 H -2.458857 -0.177880 1.075237 0
M  V30 47 H -4.460513 -2.089993 0.822196 0
M  V30 48 H -4.677376 -0.333303 0.617575 0
M  V30 49 H -4.154250 -1.882775 -2.991729 0
M  V30 50 H -4.043682 -3.207192 -1.826362 0
M  V30 51 H -1.859065 -2.642838 -1.346122 0
M  V30 52 H -1.885635 -1.732978 -2.890967 0
M  V30 53 H 3.663544 0.241750 -2.379270 0
M  V30 54 H 4.660042 -1.814684 -1.474686 0
M  V30 55 H 0.928170 -0.461909 2.793685 0
M  V30 56 H -0.262414 -1.536636 1.908603 0
M  V30 END ATOM
M  V30 BEGIN BOND
M  V30 1 1 1 2
M  V30 2 1 2 3
M  V30 3 1 3 4
M  V30 4 1 4 5
M  V30 5 1 5 6
M  V30 6 1 6 7
M  V30 7 2 7 8
M  V30 8 1 8 9
M  V30 9 1 9 10
M  V30 10 2 10 11
M  V30 11 1 11 12
M  V30 12 1 12 13
M  V30 13 2 13 14
M  V30 14 1 14 15
M  V30 15 2 15 16
M  V30 16 1 16 17
M  V30 17 1 17 18
M  V30 18 1 18 19
M  V30 19 1 19 20
M  V30 20 1 20 21
M  V30 21 1 21 22
M  V30 22 1 22 23
M  V30 23 1 23 24
M  V30 24 2 17 25
M  V30 25 2 9 26
M  V30 26 1 26 27
M  V30 27 2 27 28
M  V30 28 1 6 29
M  V30 29 1 29 2
M  V30 30 1 28 7
M  V30 31 1 25 10
M  V30 32 1 25 13
M  V30 33 1 24 19
M  V30 34 1 1 30
M  V30 35 1 1 31
M  V30 36 1 1 32
M  V30 37 1 2 33
M  V30 38 1 3 34
M  V30 39 1 3 35
M  V30 40 1 4 36
M  V30 41 1 4 37
M  V30 42 1 5 38
M  V30 43 1 5 39
M  V30 44 1 8 40
M  V30 45 1 12 41
M  V30 46 1 14 42
M  V30 47 1 15 43
M  V30 48 1 19 44
M  V30 49 1 20 45
M  V30 50 1 20 46
M  V30 51 1 21 47
M  V30 52 1 21 48
M  V30 53 1 23 49
M  V30 54 1 23 50
M  V30 55 1 24 51
M  V30 56 1 24 52
M  V30 57 1 26 53
M  V30 58 1 27 54
M  V30 59 1 29 55
M  V30 60 1 29 56
M  V30 END BOND
M  V30 END CTAB
M  END
>  <Dataset>  (898) 
ChEMBL_Kinases

>  <Ligand_Instance>  (898) 
nan

>  <PDB_ID>  (898) 
nan

>  <Standardized_SMILES>  (898) 
CC1CCCN(c2cc(-c3n[nH]c4ccnc(OC5CCOCC5)c34)ccn2)C1

>  <Name>  (898) 
nan

>  <Pocket>  (898) 
nan

>  <ATP_Site>  (898) 
nan

>  <Peripheral>  (898) 
nan

>  <Num_H_Atoms_ProtBoundConf>  (898) 
nan

>  <Num_Resolved_Atoms>  (898) 
nan

>  <Num_Not_Resolved_Atoms>  (898) 
nan

$$$$
CHEMBL3651768
     RDKit          3D

  0  0  0  0  0  0  0  0  0  0999 V3000
M  V30 BEGIN CTAB
M  V30 COUNTS 48 52 0 0 0
M  V30 BEGIN ATOM
M  V30 1 C 1.858681 -3.717630 2.647934 0
M  V30 2 C 2.164571 -3.278317 1.385213 0
M  V30 3 C 1.260333 -2.627028 0.599741 0
M  V30 4 C 1.723690 -2.253275 -0.726079 0
M  V30 5 N 2.284786 -3.206873 -1.526760 0
M  V30 6 N 2.653550 -2.679255 -2.685094 0
M  V30 7 C 2.363681 -1.365788 -2.718507 0
M  V30 8 C 2.482488 -0.275390 -3.564326 0
M  V30 9 C 2.032822 0.987108 -3.159866 0
M  V30 10 N 1.475929 1.165465 -1.939990 0
M  V30 11 C 1.346382 0.122963 -1.095491 0
M  V30 12 O 0.766154 0.408028 0.136610 0
M  V30 13 C 0.380886 1.728330 0.480459 0
M  V30 14 C 1.223604 2.229590 1.638896 0
M  V30 15 C 0.345008 2.644000 2.787468 0
M  V30 16 O -0.631965 3.533462 2.408732 0
M  V30 17 C -1.445555 3.126246 1.383147 0
M  V30 18 C -1.051816 1.727479 0.945245 0
M  V30 19 C 1.786938 -1.114104 -1.494991 0
M  V30 20 C 0.020937 -2.446703 1.171564 0
M  V30 21 C -0.342290 -2.857147 2.410729 0
M  V30 22 N -1.621758 -2.702492 2.978550 0
M  V30 23 C -2.912960 -2.219125 2.715443 0
M  V30 24 C -3.658865 -2.862386 1.557126 0
M  V30 25 O -4.353806 -1.629735 1.456769 0
M  V30 26 C -3.166182 -1.002985 1.911536 0
M  V30 27 N 0.623327 -3.486869 3.099941 0
M  V30 28 H 2.520052 -4.234216 3.317915 0
M  V30 29 H 3.170271 -3.484606 1.059392 0
M  V30 30 H 3.109428 -3.155275 -3.501197 0
M  V30 31 H 2.936687 -0.480489 -4.527854 0
M  V30 32 H 2.195428 1.730335 -3.927713 0
M  V30 33 H 0.579851 2.410521 -0.370591 0
M  V30 34 H 1.935518 1.441041 1.985889 0
M  V30 35 H 1.839666 3.092319 1.348298 0
M  V30 36 H -0.031310 1.771480 3.366860 0
M  V30 37 H 0.985748 3.198933 3.533937 0
M  V30 38 H -1.445036 3.813113 0.507139 0
M  V30 39 H -2.492085 3.051603 1.783997 0
M  V30 40 H -1.138042 1.069183 1.821605 0
M  V30 41 H -1.662846 1.406487 0.072307 0
M  V30 42 H -0.669851 -1.934897 0.520570 0
M  V30 43 H -1.666085 -3.082273 3.976047 0
M  V30 44 H -3.628744 -2.209964 3.597280 0
M  V30 45 H -3.089574 -3.057100 0.650979 0
M  V30 46 H -4.398722 -3.636178 1.845705 0
M  V30 47 H -3.376938 -0.108358 2.544560 0
M  V30 48 H -2.537959 -0.716439 1.085604 0
M  V30 END ATOM
M  V30 BEGIN BOND
M  V30 1 2 1 2
M  V30 2 1 2 3
M  V30 3 1 3 4
M  V30 4 2 4 5
M  V30 5 1 5 6
M  V30 6 1 6 7
M  V30 7 2 7 8
M  V30 8 1 8 9
M  V30 9 2 9 10
M  V30 10 1 10 11
M  V30 11 1 11 12
M  V30 12 1 12 13
M  V30 13 1 13 14
M  V30 14 1 14 15
M  V30 15 1 15 16
M  V30 16 1 16 17
M  V30 17 1 17 18
M  V30 18 2 11 19
M  V30 19 2 3 20
M  V30 20 1 20 21
M  V30 21 1 21 22
M  V30 22 1 22 23
M  V30 23 1 23 24
M  V30 24 1 24 25
M  V30 25 1 25 26
M  V30 26 2 21 27
M  V30 27 1 27 1
M  V30 28 1 19 4
M  V30 29 1 26 23
M  V30 30 1 19 7
M  V30 31 1 18 13
M  V30 32 1 1 28
M  V30 33 1 2 29
M  V30 34 1 6 30
M  V30 35 1 8 31
M  V30 36 1 9 32
M  V30 37 1 13 33
M  V30 38 1 14 34
M  V30 39 1 14 35
M  V30 40 1 15 36
M  V30 41 1 15 37
M  V30 42 1 17 38
M  V30 43 1 17 39
M  V30 44 1 18 40
M  V30 45 1 18 41
M  V30 46 1 20 42
M  V30 47 1 22 43
M  V30 48 1 23 44
M  V30 49 1 24 45
M  V30 50 1 24 46
M  V30 51 1 26 47
M  V30 52 1 26 48
M  V30 END BOND
M  V30 END CTAB
M  END
>  <Dataset>  (899) 
ChEMBL_Kinases

>  <Ligand_Instance>  (899) 
nan

>  <PDB_ID>  (899) 
nan

>  <Standardized_SMILES>  (899) 
c1cc(-c2n[nH]c3ccnc(OC4CCOCC4)c23)cc(NC2COC2)n1

>  <Name>  (899) 
nan

>  <Pocket>  (899) 
nan

>  <ATP_Site>  (899) 
nan

>  <Peripheral>  (899) 
nan

>  <Num_H_Atoms_ProtBoundConf>  (899) 
nan

>  <Num_Resolved_Atoms>  (899) 
nan

>  <Num_Not_Resolved_Atoms>  (899) 
nan

$$$$
CHEMBL3651769
     RDKit          3D

  0  0  0  0  0  0  0  0  0  0999 V3000
M  V30 BEGIN CTAB
M  V30 COUNTS 47 51 0 0 0
M  V30 BEGIN ATOM
M  V30 1 C -1.058740 -4.333593 1.190035 0
M  V30 2 C -0.034856 -3.875110 0.387103 0
M  V30 3 C 0.718390 -2.710460 0.615160 0
M  V30 4 C 1.760725 -2.437708 -0.365660 0
M  V30 5 N 2.615791 -3.446594 -0.714975 0
M  V30 6 N 3.489602 -3.026230 -1.615303 0
M  V30 7 C 3.269168 -1.753480 -1.904992 0
M  V30 8 C 3.810042 -0.783589 -2.733385 0
M  V30 9 C 3.210124 0.464335 -2.696898 0
M  V30 10 N 2.158534 0.811019 -1.934195 0
M  V30 11 C 1.629151 -0.120087 -1.130094 0
M  V30 12 O 0.548450 0.231075 -0.346740 0
M  V30 13 C 0.060422 1.566146 -0.442065 0
M  V30 14 C 0.186818 2.335981 0.820412 0
M  V30 15 C -1.048149 2.392702 1.673471 0
M  V30 16 O -2.056504 2.955867 0.857058 0
M  V30 17 C -2.408543 1.890146 -0.002648 0
M  V30 18 C -1.322444 1.630799 -1.004583 0
M  V30 19 C 2.194332 -1.376061 -1.132983 0
M  V30 20 C 0.370541 -2.018805 1.727435 0
M  V30 21 C -0.635075 -2.446099 2.538432 0
M  V30 22 N -0.947505 -1.676878 3.684836 0
M  V30 23 C -0.484040 -0.462013 4.328242 0
M  V30 24 C -1.929068 -0.240464 4.754247 0
M  V30 25 C -1.913115 -1.774507 4.765125 0
M  V30 26 N -1.328321 -3.568494 2.278084 0
M  V30 27 H -1.591820 -5.224310 0.962864 0
M  V30 28 H 0.174844 -4.504332 -0.492934 0
M  V30 29 H 4.250015 -3.585867 -2.051894 0
M  V30 30 H 4.640334 -1.030894 -3.345764 0
M  V30 31 H 3.632622 1.223476 -3.344381 0
M  V30 32 H 0.749765 2.041145 -1.202288 0
M  V30 33 H 1.009025 2.002813 1.481012 0
M  V30 34 H 0.434266 3.391614 0.573077 0
M  V30 35 H -0.830501 3.049930 2.524244 0
M  V30 36 H -1.452471 1.411973 1.971331 0
M  V30 37 H -2.724387 1.004477 0.578368 0
M  V30 38 H -3.303201 2.242951 -0.557191 0
M  V30 39 H -1.612531 0.715675 -1.558577 0
M  V30 40 H -1.394867 2.451146 -1.748990 0
M  V30 41 H 0.923936 -1.139259 1.937279 0
M  V30 42 H 0.108789 -0.640314 5.249843 0
M  V30 43 H -0.153492 0.356027 3.689449 0
M  V30 44 H -2.089846 0.203986 5.736173 0
M  V30 45 H -2.568965 0.164390 3.946230 0
M  V30 46 H -1.547874 -2.194408 5.705467 0
M  V30 47 H -2.919282 -2.112387 4.473160 0
M  V30 END ATOM
M  V30 BEGIN BOND
M  V30 1 2 1 2
M  V30 2 1 2 3
M  V30 3 1 3 4
M  V30 4 2 4 5
M  V30 5 1 5 6
M  V30 6 1 6 7
M  V30 7 2 7 8
M  V30 8 1 8 9
M  V30 9 2 9 10
M  V30 10 1 10 11
M  V30 11 1 11 12
M  V30 12 1 12 13
M  V30 13 1 13 14
M  V30 14 1 14 15
M  V30 15 1 15 16
M  V30 16 1 16 17
M  V30 17 1 17 18
M  V30 18 2 11 19
M  V30 19 2 3 20
M  V30 20 1 20 21
M  V30 21 1 21 22
M  V30 22 1 22 23
M  V30 23 1 23 24
M  V30 24 1 24 25
M  V30 25 2 21 26
M  V30 26 1 26 1
M  V30 27 1 19 4
M  V30 28 1 25 22
M  V30 29 1 19 7
M  V30 30 1 18 13
M  V30 31 1 1 27
M  V30 32 1 2 28
M  V30 33 1 6 29
M  V30 34 1 8 30
M  V30 35 1 9 31
M  V30 36 1 13 32
M  V30 37 1 14 33
M  V30 38 1 14 34
M  V30 39 1 15 35
M  V30 40 1 15 36
M  V30 41 1 17 37
M  V30 42 1 17 38
M  V30 43 1 18 39
M  V30 44 1 18 40
M  V30 45 1 20 41
M  V30 46 1 23 42
M  V30 47 1 23 43
M  V30 48 1 24 44
M  V30 49 1 24 45
M  V30 50 1 25 46
M  V30 51 1 25 47
M  V30 END BOND
M  V30 END CTAB
M  END
>  <Dataset>  (900) 
ChEMBL_Kinases

>  <Ligand_Instance>  (900) 
nan

>  <PDB_ID>  (900) 
nan

>  <Standardized_SMILES>  (900) 
c1cc(-c2n[nH]c3ccnc(OC4CCOCC4)c23)cc(N2CCC2)n1

>  <Name>  (900) 
nan

>  <Pocket>  (900) 
nan

>  <ATP_Site>  (900) 
nan

>  <Peripheral>  (900) 
nan

>  <Num_H_Atoms_ProtBoundConf>  (900) 
nan

>  <Num_Resolved_Atoms>  (900) 
nan

>  <Num_Not_Resolved_Atoms>  (900) 
nan

$$$$
CHEMBL3651770
     RDKit          3D

  0  0  0  0  0  0  0  0  0  0999 V3000
M  V30 BEGIN CTAB
M  V30 COUNTS 48 52 0 0 0
M  V30 BEGIN ATOM
M  V30 1 C -0.854004 -6.573118 2.928369 0
M  V30 2 N -0.379828 -5.342175 2.324839 0
M  V30 3 C -0.833887 -4.727349 1.219286 0
M  V30 4 C -0.107011 -3.563955 0.973277 0
M  V30 5 C -0.366684 -2.697078 -0.166390 0
M  V30 6 C 0.402800 -1.570158 -0.350959 0
M  V30 7 C 0.176723 -0.759676 -1.440054 0
M  V30 8 C 0.845155 0.464996 -1.840556 0
M  V30 9 N 1.305261 0.536797 -3.111133 0
M  V30 10 N 1.885456 1.709187 -3.340712 0
M  V30 11 C 1.835713 2.468852 -2.232456 0
M  V30 12 C 2.220977 3.709565 -1.831681 0
M  V30 13 C 1.952608 4.123201 -0.551372 0
M  V30 14 N 1.303026 3.312658 0.335890 0
M  V30 15 C 0.909987 2.067919 -0.045779 0
M  V30 16 O 0.240288 1.286753 0.921225 0
M  V30 17 C 0.017493 1.916342 2.198736 0
M  V30 18 C 0.574893 1.034960 3.274114 0
M  V30 19 C -0.158688 -0.268181 3.322078 0
M  V30 20 O -1.537122 -0.104988 3.443993 0
M  V30 21 C -2.056491 0.642317 2.387503 0
M  V30 22 C -1.472846 2.033775 2.402381 0
M  V30 23 C 1.188704 1.677903 -1.323202 0
M  V30 24 C -0.863859 -1.201791 -2.271274 0
M  V30 25 C -1.645005 -2.324897 -2.102447 0
M  V30 26 N -1.349392 -3.056058 -1.009048 0
M  V30 27 C 0.791242 -3.562654 2.017469 0
M  V30 28 N 0.618591 -4.629010 2.817459 0
M  V30 29 H -0.607413 -6.584362 4.009910 0
M  V30 30 H -0.427858 -7.449746 2.387878 0
M  V30 31 H -1.967176 -6.555068 2.869473 0
M  V30 32 H -1.657731 -5.157911 0.664594 0
M  V30 33 H 1.199275 -1.245824 0.301315 0
M  V30 34 H 2.327267 2.024323 -4.246516 0
M  V30 35 H 2.735911 4.335720 -2.555605 0
M  V30 36 H 2.279624 5.123949 -0.274490 0
M  V30 37 H 0.488458 2.930117 2.194417 0
M  V30 38 H 0.425458 1.521946 4.262495 0
M  V30 39 H 1.646201 0.816134 3.091037 0
M  V30 40 H 0.183440 -0.826760 4.214353 0
M  V30 41 H 0.109209 -0.835920 2.415720 0
M  V30 42 H -1.866756 0.222454 1.395198 0
M  V30 43 H -3.156644 0.742236 2.602018 0
M  V30 44 H -1.641226 2.444255 3.438329 0
M  V30 45 H -1.959012 2.660390 1.637597 0
M  V30 46 H -1.112858 -0.611073 -3.168116 0
M  V30 47 H -2.421511 -2.579996 -2.796795 0
M  V30 48 H 1.523268 -2.746209 2.102356 0
M  V30 END ATOM
M  V30 BEGIN BOND
M  V30 1 1 1 2
M  V30 2 1 2 3
M  V30 3 2 3 4
M  V30 4 1 4 5
M  V30 5 2 5 6
M  V30 6 1 6 7
M  V30 7 1 7 8
M  V30 8 2 8 9
M  V30 9 1 9 10
M  V30 10 1 10 11
M  V30 11 2 11 12
M  V30 12 1 12 13
M  V30 13 2 13 14
M  V30 14 1 14 15
M  V30 15 1 15 16
M  V30 16 1 16 17
M  V30 17 1 17 18
M  V30 18 1 18 19
M  V30 19 1 19 20
M  V30 20 1 20 21
M  V30 21 1 21 22
M  V30 22 2 15 23
M  V30 23 2 7 24
M  V30 24 1 24 25
M  V30 25 2 25 26
M  V30 26 1 4 27
M  V30 27 2 27 28
M  V30 28 1 28 2
M  V30 29 1 26 5
M  V30 30 1 23 8
M  V30 31 1 23 11
M  V30 32 1 22 17
M  V30 33 1 1 29
M  V30 34 1 1 30
M  V30 35 1 1 31
M  V30 36 1 3 32
M  V30 37 1 6 33
M  V30 38 1 10 34
M  V30 39 1 12 35
M  V30 40 1 13 36
M  V30 41 1 17 37
M  V30 42 1 18 38
M  V30 43 1 18 39
M  V30 44 1 19 40
M  V30 45 1 19 41
M  V30 46 1 21 42
M  V30 47 1 21 43
M  V30 48 1 22 44
M  V30 49 1 22 45
M  V30 50 1 24 46
M  V30 51 1 25 47
M  V30 52 1 27 48
M  V30 END BOND
M  V30 END CTAB
M  END
>  <Dataset>  (901) 
ChEMBL_Kinases

>  <Ligand_Instance>  (901) 
nan

>  <PDB_ID>  (901) 
nan

>  <Standardized_SMILES>  (901) 
Cn1cc(-c2cc(-c3n[nH]c4ccnc(OC5CCOCC5)c34)ccn2)cn1

>  <Name>  (901) 
nan

>  <Pocket>  (901) 
nan

>  <ATP_Site>  (901) 
nan

>  <Peripheral>  (901) 
nan

>  <Num_H_Atoms_ProtBoundConf>  (901) 
nan

>  <Num_Resolved_Atoms>  (901) 
nan

>  <Num_Not_Resolved_Atoms>  (901) 
nan

$$$$
CHEMBL3651771
     RDKit          3D

  0  0  0  0  0  0  0  0  0  0999 V3000
M  V30 BEGIN CTAB
M  V30 COUNTS 44 48 0 0 0
M  V30 BEGIN ATOM
M  V30 1 C -3.690744 -3.379039 1.170395 0
M  V30 2 O -2.553378 -2.876970 0.499109 0
M  V30 3 C -1.773494 -3.728190 -0.243601 0
M  V30 4 N -2.086732 -5.047492 -0.335914 0
M  V30 5 C -1.329293 -5.891993 -1.059361 0
M  V30 6 C -0.199189 -5.509539 -1.753228 0
M  V30 7 C 0.126011 -4.171046 -1.664846 0
M  V30 8 N 1.106656 -3.391840 -2.155610 0
M  V30 9 N 0.953023 -2.152960 -1.755603 0
M  V30 10 C -0.156827 -2.041733 -0.964808 0
M  V30 11 C -0.509729 -0.744577 -0.405392 0
M  V30 12 C -1.711213 -0.089909 -0.398219 0
M  V30 13 C -1.893099 1.128941 0.187428 0
M  V30 14 N -0.839450 1.744867 0.801784 0
M  V30 15 C 0.371513 1.164810 0.835615 0
M  V30 16 N 1.434013 1.847350 1.487027 0
M  V30 17 C 1.322741 3.144186 2.132732 0 CFG=2
M  V30 18 C 2.460251 3.864796 1.397577 0
M  V30 19 C 3.528105 2.793609 1.378407 0
M  V30 20 C 2.820126 1.469692 1.675292 0 CFG=1
M  V30 21 C 3.046832 1.240750 3.170086 0
M  V30 22 O 2.862958 2.435490 3.838781 0
M  V30 23 C 1.641727 3.044111 3.610027 0
M  V30 24 C 0.529337 -0.058116 0.241433 0
M  V30 25 C -0.665555 -3.323327 -0.917523 0
M  V30 26 H -4.628627 -2.843870 0.848346 0
M  V30 27 H -3.869608 -4.449340 0.923465 0
M  V30 28 H -3.492712 -3.266529 2.256355 0
M  V30 29 H -1.620515 -6.951654 -1.106079 0
M  V30 30 H 0.414264 -6.182424 -2.336394 0
M  V30 31 H 1.858380 -3.798852 -2.770270 0
M  V30 32 H -2.514379 -0.580783 -0.890803 0
M  V30 33 H -2.882934 1.560629 0.137592 0
M  V30 34 H 0.352768 3.621287 2.000258 0
M  V30 35 H 2.765812 4.781449 1.919618 0
M  V30 36 H 2.112642 4.016207 0.375948 0
M  V30 37 H 4.327920 3.012295 2.109878 0
M  V30 38 H 3.999940 2.699892 0.374093 0
M  V30 39 H 3.168777 0.651786 1.053553 0
M  V30 40 H 4.113091 0.962446 3.295559 0
M  V30 41 H 2.442241 0.411208 3.546462 0
M  V30 42 H 1.741461 4.102499 3.962903 0
M  V30 43 H 0.783030 2.579261 4.099536 0
M  V30 44 H 1.531743 -0.468194 0.305980 0
M  V30 END ATOM
M  V30 BEGIN BOND
M  V30 1 1 1 2
M  V30 2 1 2 3
M  V30 3 2 3 4
M  V30 4 1 4 5
M  V30 5 2 5 6
M  V30 6 1 6 7
M  V30 7 1 7 8
M  V30 8 1 8 9
M  V30 9 2 9 10
M  V30 10 1 10 11
M  V30 11 2 11 12
M  V30 12 1 12 13
M  V30 13 2 13 14
M  V30 14 1 14 15
M  V30 15 1 15 16
M  V30 16 1 16 17
M  V30 17 1 17 18
M  V30 18 1 18 19
M  V30 19 1 19 20
M  V30 20 1 20 21
M  V30 21 1 21 22
M  V30 22 1 22 23
M  V30 23 2 15 24
M  V30 24 1 10 25
M  V30 25 1 25 3
M  V30 26 2 25 7
M  V30 27 1 24 11
M  V30 28 1 20 16
M  V30 29 1 23 17
M  V30 30 1 1 26
M  V30 31 1 1 27
M  V30 32 1 1 28
M  V30 33 1 5 29
M  V30 34 1 6 30
M  V30 35 1 8 31
M  V30 36 1 12 32
M  V30 37 1 13 33
M  V30 38 1 17 34 CFG=1
M  V30 39 1 18 35
M  V30 40 1 18 36
M  V30 41 1 19 37
M  V30 42 1 19 38
M  V30 43 1 20 39 CFG=3
M  V30 44 1 21 40
M  V30 45 1 21 41
M  V30 46 1 23 42
M  V30 47 1 23 43
M  V30 48 1 24 44
M  V30 END BOND
M  V30 END CTAB
M  END
>  <Dataset>  (902) 
ChEMBL_Kinases

>  <Ligand_Instance>  (902) 
nan

>  <PDB_ID>  (902) 
nan

>  <Standardized_SMILES>  (902) 
COc1nccc2[nH]nc(-c3ccnc(N4[C@@H]5CC[C@H]4COC5)c3)c12

>  <Name>  (902) 
nan

>  <Pocket>  (902) 
nan

>  <ATP_Site>  (902) 
nan

>  <Peripheral>  (902) 
nan

>  <Num_H_Atoms_ProtBoundConf>  (902) 
nan

>  <Num_Resolved_Atoms>  (902) 
nan

>  <Num_Not_Resolved_Atoms>  (902) 
nan

$$$$
CHEMBL3651772
     RDKit          3D

  0  0  0  0  0  0  0  0  0  0999 V3000
M  V30 BEGIN CTAB
M  V30 COUNTS 41 45 0 0 0
M  V30 BEGIN ATOM
M  V30 1 C -0.587713 -1.900876 2.479687 0
M  V30 2 O -1.065068 -1.964134 1.142283 0
M  V30 3 C -2.283361 -2.506430 0.807734 0
M  V30 4 N -3.046507 -2.997548 1.809628 0
M  V30 5 C -4.266143 -3.551151 1.545631 0
M  V30 6 C -4.748343 -3.621180 0.237693 0
M  V30 7 C -3.997052 -3.130138 -0.811197 0
M  V30 8 N -4.067591 -3.003717 -2.148359 0
M  V30 9 N -2.970058 -2.420015 -2.617763 0
M  V30 10 C -2.116768 -2.132667 -1.589825 0
M  V30 11 C -0.853884 -1.492225 -1.919910 0
M  V30 12 C -0.118878 -2.057766 -2.949559 0
M  V30 13 C 1.102841 -1.576020 -3.412420 0
M  V30 14 N 1.583170 -0.481391 -2.799453 0
M  V30 15 C 0.920620 0.112156 -1.798158 0
M  V30 16 N 1.409635 1.271384 -1.134941 0
M  V30 17 C 0.848638 2.051630 -0.042579 0
M  V30 18 C 1.506002 3.388826 -0.108357 0 CFG=2
M  V30 19 C 2.034742 3.389026 -1.551585 0
M  V30 20 C 2.642864 1.984207 -1.404305 0 CFG=1
M  V30 21 C 3.343945 2.187751 -0.096008 0
M  V30 22 O 2.726159 3.261233 0.557755 0
M  V30 23 C -0.269718 -0.375592 -1.363697 0
M  V30 24 C -2.777612 -2.585439 -0.467799 0
M  V30 25 H 0.104649 -1.041044 2.620505 0
M  V30 26 H -1.444947 -1.766661 3.197088 0
M  V30 27 H -0.013228 -2.824934 2.720848 0
M  V30 28 H -4.912749 -3.957876 2.321147 0
M  V30 29 H -5.708328 -4.050613 -0.022452 0
M  V30 30 H -4.895657 -3.336564 -2.691370 0
M  V30 31 H -0.480942 -2.940547 -3.462253 0
M  V30 32 H 1.631617 -2.056575 -4.217860 0
M  V30 33 H 1.167748 1.511923 0.883484 0
M  V30 34 H -0.253040 2.065243 -0.031616 0
M  V30 35 H 0.913825 4.237407 0.145618 0
M  V30 36 H 1.202522 3.399297 -2.276093 0
M  V30 37 H 2.799066 4.152097 -1.709732 0
M  V30 38 H 3.212808 1.653292 -2.233092 0
M  V30 39 H 3.275506 1.334463 0.592690 0
M  V30 40 H 4.414914 2.512252 -0.217220 0
M  V30 41 H -0.822898 0.095802 -0.565546 0
M  V30 END ATOM
M  V30 BEGIN BOND
M  V30 1 1 1 2
M  V30 2 1 2 3
M  V30 3 1 3 4
M  V30 4 2 4 5
M  V30 5 1 5 6
M  V30 6 2 6 7
M  V30 7 1 7 8
M  V30 8 1 8 9
M  V30 9 2 9 10
M  V30 10 1 10 11
M  V30 11 2 11 12
M  V30 12 1 12 13
M  V30 13 2 13 14
M  V30 14 1 14 15
M  V30 15 1 15 16
M  V30 16 1 16 17
M  V30 17 1 17 18
M  V30 18 1 18 19
M  V30 19 1 19 20
M  V30 20 1 20 21
M  V30 21 1 21 22
M  V30 22 2 15 23
M  V30 23 1 10 24
M  V30 24 2 24 3
M  V30 25 1 24 7
M  V30 26 1 23 11
M  V30 27 1 20 16
M  V30 28 1 22 18
M  V30 29 1 1 25
M  V30 30 1 1 26
M  V30 31 1 1 27
M  V30 32 1 5 28
M  V30 33 1 6 29
M  V30 34 1 8 30
M  V30 35 1 12 31
M  V30 36 1 13 32
M  V30 37 1 17 33
M  V30 38 1 17 34
M  V30 39 1 18 35 CFG=1
M  V30 40 1 19 36
M  V30 41 1 19 37
M  V30 42 1 20 38 CFG=3
M  V30 43 1 21 39
M  V30 44 1 21 40
M  V30 45 1 23 41
M  V30 END BOND
M  V30 END CTAB
M  END
>  <Dataset>  (903) 
ChEMBL_Kinases

>  <Ligand_Instance>  (903) 
nan

>  <PDB_ID>  (903) 
nan

>  <Standardized_SMILES>  (903) 
COc1nccc2[nH]nc(-c3ccnc(N4C[C@@H]5C[C@H]4CO5)c3)c12

>  <Name>  (903) 
nan

>  <Pocket>  (903) 
nan

>  <ATP_Site>  (903) 
nan

>  <Peripheral>  (903) 
nan

>  <Num_H_Atoms_ProtBoundConf>  (903) 
nan

>  <Num_Resolved_Atoms>  (903) 
nan

>  <Num_Not_Resolved_Atoms>  (903) 
nan

$$$$
CHEMBL3651773
     RDKit          3D

  0  0  0  0  0  0  0  0  0  0999 V3000
M  V30 BEGIN CTAB
M  V30 COUNTS 39 42 0 0 0
M  V30 BEGIN ATOM
M  V30 1 C 0.444876 -3.617950 0.138069 0
M  V30 2 O 1.011609 -2.398838 0.578954 0
M  V30 3 C 2.137620 -2.480943 1.385293 0
M  V30 4 N 2.682754 -3.679355 1.741670 0
M  V30 5 C 3.775097 -3.747515 2.522098 0
M  V30 6 C 4.437572 -2.648403 3.027702 0
M  V30 7 C 3.914761 -1.417402 2.688389 0
M  V30 8 N 4.223985 -0.134450 2.939900 0
M  V30 9 N 3.359438 0.657516 2.340510 0
M  V30 10 C 2.426306 -0.068729 1.656517 0
M  V30 11 C 1.395995 0.653180 0.929268 0
M  V30 12 C 1.832166 1.693699 0.098070 0
M  V30 13 C 1.029921 2.514865 -0.669400 0
M  V30 14 N -0.292149 2.260446 -0.584355 0
M  V30 15 C -0.786820 1.279530 0.191469 0
M  V30 16 N -2.194133 1.079228 0.222842 0
M  V30 17 C -3.156448 1.866661 -0.532249 0
M  V30 18 C -3.971340 0.739636 -1.134913 0
M  V30 19 C -3.861126 -0.408150 -0.153048 0
M  V30 20 C -2.977153 0.104403 0.965617 0
M  V30 21 C 0.042112 0.477107 0.946146 0
M  V30 22 C 2.794742 -1.376911 1.887888 0
M  V30 23 H 0.990442 -4.066670 -0.722667 0
M  V30 24 H 0.493119 -4.400805 0.950508 0
M  V30 25 H -0.649134 -3.538892 -0.073591 0
M  V30 26 H 4.161705 -4.738655 2.770921 0
M  V30 27 H 5.316230 -2.702828 3.655278 0
M  V30 28 H 5.042893 0.111166 3.531258 0
M  V30 29 H 2.910391 1.903471 0.026794 0
M  V30 30 H 1.461893 3.292814 -1.280562 0
M  V30 31 H -3.823834 2.441937 0.168662 0
M  V30 32 H -2.693046 2.531426 -1.282392 0
M  V30 33 H -5.022336 1.034103 -1.319728 0
M  V30 34 H -3.446171 0.499659 -2.104496 0
M  V30 35 H -3.269358 -1.216758 -0.649397 0
M  V30 36 H -4.846259 -0.770246 0.187757 0
M  V30 37 H -2.335790 -0.664953 1.412752 0
M  V30 38 H -3.639400 0.602761 1.706433 0
M  V30 39 H -0.334163 -0.305958 1.582145 0
M  V30 END ATOM
M  V30 BEGIN BOND
M  V30 1 1 1 2
M  V30 2 1 2 3
M  V30 3 2 3 4
M  V30 4 1 4 5
M  V30 5 2 5 6
M  V30 6 1 6 7
M  V30 7 1 7 8
M  V30 8 1 8 9
M  V30 9 2 9 10
M  V30 10 1 10 11
M  V30 11 2 11 12
M  V30 12 1 12 13
M  V30 13 2 13 14
M  V30 14 1 14 15
M  V30 15 1 15 16
M  V30 16 1 16 17
M  V30 17 1 17 18
M  V30 18 1 18 19
M  V30 19 1 19 20
M  V30 20 2 15 21
M  V30 21 1 10 22
M  V30 22 1 22 3
M  V30 23 2 22 7
M  V30 24 1 21 11
M  V30 25 1 20 16
M  V30 26 1 1 23
M  V30 27 1 1 24
M  V30 28 1 1 25
M  V30 29 1 5 26
M  V30 30 1 6 27
M  V30 31 1 8 28
M  V30 32 1 12 29
M  V30 33 1 13 30
M  V30 34 1 17 31
M  V30 35 1 17 32
M  V30 36 1 18 33
M  V30 37 1 18 34
M  V30 38 1 19 35
M  V30 39 1 19 36
M  V30 40 1 20 37
M  V30 41 1 20 38
M  V30 42 1 21 39
M  V30 END BOND
M  V30 END CTAB
M  END
>  <Dataset>  (904) 
ChEMBL_Kinases

>  <Ligand_Instance>  (904) 
nan

>  <PDB_ID>  (904) 
nan

>  <Standardized_SMILES>  (904) 
COc1nccc2[nH]nc(-c3ccnc(N4CCCC4)c3)c12

>  <Name>  (904) 
nan

>  <Pocket>  (904) 
nan

>  <ATP_Site>  (904) 
nan

>  <Peripheral>  (904) 
nan

>  <Num_H_Atoms_ProtBoundConf>  (904) 
nan

>  <Num_Resolved_Atoms>  (904) 
nan

>  <Num_Not_Resolved_Atoms>  (904) 
nan

$$$$
CHEMBL3651774
     RDKit          3D

  0  0  0  0  0  0  0  0  0  0999 V3000
M  V30 BEGIN CTAB
M  V30 COUNTS 37 40 0 0 0
M  V30 BEGIN ATOM
M  V30 1 C -0.594312 -3.423736 1.670244 0
M  V30 2 O 0.267548 -2.303628 1.649493 0
M  V30 3 C 1.607327 -2.492183 1.908985 0
M  V30 4 N 2.103422 -3.734002 2.183708 0
M  V30 5 C 3.413102 -3.935976 2.441786 0
M  V30 6 C 4.342011 -2.919636 2.448842 0
M  V30 7 C 3.888000 -1.651588 2.177334 0
M  V30 8 N 4.415252 -0.420340 2.087237 0
M  V30 9 N 3.477117 0.462133 1.792586 0
M  V30 10 C 2.266173 -0.155213 1.671906 0
M  V30 11 C 1.109204 0.666964 1.354097 0
M  V30 12 C 0.933517 1.822806 2.124963 0
M  V30 13 C -0.085283 2.742755 1.980284 0
M  V30 14 N -0.973390 2.480780 1.005085 0
M  V30 15 C -0.876243 1.394202 0.221301 0
M  V30 16 C -1.866653 1.156482 -0.822827 0
M  V30 17 C -2.921493 2.018454 -1.044469 0
M  V30 18 N -3.609402 1.484454 -2.064259 0
M  V30 19 N -3.017686 0.356219 -2.454720 0
M  V30 20 C -3.494273 -0.494353 -3.545004 0
M  V30 21 C -1.908169 0.096801 -1.704779 0
M  V30 22 C 0.149687 0.488089 0.382761 0
M  V30 23 C 2.544072 -1.482174 1.917801 0
M  V30 24 H -1.624682 -3.136652 1.980976 0
M  V30 25 H -0.236736 -4.205599 2.381509 0
M  V30 26 H -0.690304 -3.922046 0.683158 0
M  V30 27 H 3.730971 -4.962119 2.652723 0
M  V30 28 H 5.376681 -3.054634 2.649161 0
M  V30 29 H 5.425377 -0.200693 2.231316 0
M  V30 30 H 1.650327 2.046335 2.921696 0
M  V30 31 H -0.143495 3.607314 2.620055 0
M  V30 32 H -3.215749 2.937127 -0.564748 0
M  V30 33 H -2.676765 -1.070322 -4.011741 0
M  V30 34 H -4.264109 -1.219129 -3.182957 0
M  V30 35 H -3.943675 0.186097 -4.289354 0
M  V30 36 H -1.228979 -0.728368 -1.777783 0
M  V30 37 H 0.269256 -0.391049 -0.233393 0
M  V30 END ATOM
M  V30 BEGIN BOND
M  V30 1 1 1 2
M  V30 2 1 2 3
M  V30 3 2 3 4
M  V30 4 1 4 5
M  V30 5 2 5 6
M  V30 6 1 6 7
M  V30 7 1 7 8
M  V30 8 1 8 9
M  V30 9 2 9 10
M  V30 10 1 10 11
M  V30 11 2 11 12
M  V30 12 1 12 13
M  V30 13 2 13 14
M  V30 14 1 14 15
M  V30 15 1 15 16
M  V30 16 1 16 17
M  V30 17 2 17 18
M  V30 18 1 18 19
M  V30 19 1 19 20
M  V30 20 1 19 21
M  V30 21 2 15 22
M  V30 22 1 10 23
M  V30 23 1 23 3
M  V30 24 2 23 7
M  V30 25 1 22 11
M  V30 26 2 21 16
M  V30 27 1 1 24
M  V30 28 1 1 25
M  V30 29 1 1 26
M  V30 30 1 5 27
M  V30 31 1 6 28
M  V30 32 1 8 29
M  V30 33 1 12 30
M  V30 34 1 13 31
M  V30 35 1 17 32
M  V30 36 1 20 33
M  V30 37 1 20 34
M  V30 38 1 20 35
M  V30 39 1 21 36
M  V30 40 1 22 37
M  V30 END BOND
M  V30 END CTAB
M  END
>  <Dataset>  (905) 
ChEMBL_Kinases

>  <Ligand_Instance>  (905) 
nan

>  <PDB_ID>  (905) 
nan

>  <Standardized_SMILES>  (905) 
COc1nccc2[nH]nc(-c3ccnc(-c4cnn(C)c4)c3)c12

>  <Name>  (905) 
nan

>  <Pocket>  (905) 
nan

>  <ATP_Site>  (905) 
nan

>  <Peripheral>  (905) 
nan

>  <Num_H_Atoms_ProtBoundConf>  (905) 
nan

>  <Num_Resolved_Atoms>  (905) 
nan

>  <Num_Not_Resolved_Atoms>  (905) 
nan

$$$$
CHEMBL3651766
     RDKit          3D

  0  0  0  0  0  0  0  0  0  0999 V3000
M  V30 BEGIN CTAB
M  V30 COUNTS 50 54 0 0 0
M  V30 BEGIN ATOM
M  V30 1 C 1.982936 -3.754041 1.999641 0
M  V30 2 C 2.370774 -3.118827 0.816734 0
M  V30 3 C 1.541013 -2.312492 0.028351 0
M  V30 4 C 2.130908 -1.757820 -1.169612 0
M  V30 5 N 2.807061 -2.590729 -1.986370 0
M  V30 6 N 3.285464 -1.906668 -3.034859 0
M  V30 7 C 2.950842 -0.618632 -2.953408 0
M  V30 8 C 3.122431 0.550039 -3.662371 0
M  V30 9 C 2.574209 1.711560 -3.169853 0
M  V30 10 N 1.865145 1.771565 -2.010242 0
M  V30 11 C 1.688117 0.641307 -1.306481 0
M  V30 12 O 0.969737 0.720592 -0.134741 0
M  V30 13 C 0.450750 1.968626 0.282165 0
M  V30 14 C 1.044612 2.350634 1.608378 0
M  V30 15 C 0.093467 1.979291 2.749471 0
M  V30 16 O -1.073173 2.734829 2.692947 0
M  V30 17 C -1.387660 3.108412 1.387740 0
M  V30 18 C -1.056610 1.969674 0.417781 0
M  V30 19 C 2.230592 -0.530377 -1.787260 0
M  V30 20 C 0.263794 -2.188905 0.526857 0
M  V30 21 C -0.138164 -2.805262 1.688961 0
M  V30 22 N -1.458841 -2.626621 2.127486 0
M  V30 23 C -2.048124 -3.189962 3.309552 0
M  V30 24 C -3.359159 -3.721676 2.768165 0
M  V30 25 C -3.804198 -2.592190 1.875375 0
M  V30 26 C -2.518547 -1.868793 1.536741 0
M  V30 27 N 0.727117 -3.562510 2.383460 0
M  V30 28 H 2.691984 -4.355488 2.539096 0
M  V30 29 H 3.403696 -3.285315 0.514737 0
M  V30 30 H 3.855168 -2.296738 -3.838874 0
M  V30 31 H 3.684813 0.492655 -4.578295 0
M  V30 32 H 2.754545 2.581734 -3.785605 0
M  V30 33 H 0.708374 2.778163 -0.440289 0
M  V30 34 H 1.266730 3.429566 1.685499 0
M  V30 35 H 1.993072 1.803611 1.793857 0
M  V30 36 H -0.067100 0.899529 2.798566 0
M  V30 37 H 0.620009 2.278542 3.684247 0
M  V30 38 H -0.691850 3.934804 1.115843 0
M  V30 39 H -2.436466 3.388566 1.287573 0
M  V30 40 H -1.473729 1.020018 0.776530 0
M  V30 41 H -1.493718 2.300307 -0.553817 0
M  V30 42 H -0.406197 -1.583381 -0.062023 0
M  V30 43 H -2.324696 -2.389197 4.033969 0
M  V30 44 H -1.425159 -3.936972 3.803211 0
M  V30 45 H -4.113968 -3.882556 3.539395 0
M  V30 46 H -3.216500 -4.623579 2.141622 0
M  V30 47 H -4.313901 -3.013964 1.000794 0
M  V30 48 H -4.502805 -1.889452 2.351352 0
M  V30 49 H -2.376831 -1.812045 0.442039 0
M  V30 50 H -2.488445 -0.841272 1.935231 0
M  V30 END ATOM
M  V30 BEGIN BOND
M  V30 1 2 1 2
M  V30 2 1 2 3
M  V30 3 1 3 4
M  V30 4 2 4 5
M  V30 5 1 5 6
M  V30 6 1 6 7
M  V30 7 2 7 8
M  V30 8 1 8 9
M  V30 9 2 9 10
M  V30 10 1 10 11
M  V30 11 1 11 12
M  V30 12 1 12 13
M  V30 13 1 13 14
M  V30 14 1 14 15
M  V30 15 1 15 16
M  V30 16 1 16 17
M  V30 17 1 17 18
M  V30 18 2 11 19
M  V30 19 2 3 20
M  V30 20 1 20 21
M  V30 21 1 21 22
M  V30 22 1 22 23
M  V30 23 1 23 24
M  V30 24 1 24 25
M  V30 25 1 25 26
M  V30 26 2 21 27
M  V30 27 1 27 1
M  V30 28 1 19 4
M  V30 29 1 26 22
M  V30 30 1 19 7
M  V30 31 1 18 13
M  V30 32 1 1 28
M  V30 33 1 2 29
M  V30 34 1 6 30
M  V30 35 1 8 31
M  V30 36 1 9 32
M  V30 37 1 13 33
M  V30 38 1 14 34
M  V30 39 1 14 35
M  V30 40 1 15 36
M  V30 41 1 15 37
M  V30 42 1 17 38
M  V30 43 1 17 39
M  V30 44 1 18 40
M  V30 45 1 18 41
M  V30 46 1 20 42
M  V30 47 1 23 43
M  V30 48 1 23 44
M  V30 49 1 24 45
M  V30 50 1 24 46
M  V30 51 1 25 47
M  V30 52 1 25 48
M  V30 53 1 26 49
M  V30 54 1 26 50
M  V30 END BOND
M  V30 END CTAB
M  END
>  <Dataset>  (906) 
ChEMBL_Kinases

>  <Ligand_Instance>  (906) 
nan

>  <PDB_ID>  (906) 
nan

>  <Standardized_SMILES>  (906) 
c1cc(-c2n[nH]c3ccnc(OC4CCOCC4)c23)cc(N2CCCC2)n1

>  <Name>  (906) 
nan

>  <Pocket>  (906) 
nan

>  <ATP_Site>  (906) 
nan

>  <Peripheral>  (906) 
nan

>  <Num_H_Atoms_ProtBoundConf>  (906) 
nan

>  <Num_Resolved_Atoms>  (906) 
nan

>  <Num_Not_Resolved_Atoms>  (906) 
nan

$$$$
CHEMBL3658699
     RDKit          3D

  0  0  0  0  0  0  0  0  0  0999 V3000
M  V30 BEGIN CTAB
M  V30 COUNTS 50 54 0 0 0
M  V30 BEGIN ATOM
M  V30 1 C 1.460428 -8.777252 -3.104612 0
M  V30 2 C 1.363450 -7.716194 -2.045614 0
M  V30 3 C 1.830708 -6.422625 -2.261280 0
M  V30 4 C 1.703623 -5.498206 -1.229034 0
M  V30 5 C 2.177059 -4.129941 -1.403577 0
M  V30 6 N 3.353137 -3.730355 -1.943776 0
M  V30 7 N 3.433337 -2.393113 -1.934056 0
M  V30 8 C 2.290342 -1.949453 -1.379484 0
M  V30 9 C 1.905100 -0.643277 -1.151461 0
M  V30 10 C 0.678491 -0.404434 -0.564751 0
M  V30 11 N 0.071738 0.840891 -0.234449 0
M  V30 12 C 0.313400 1.408990 1.068850 0
M  V30 13 O 1.040729 0.854412 1.937991 0
M  V30 14 N -0.344597 2.649048 1.278187 0
M  V30 15 C -0.282234 3.441072 2.484894 0
M  V30 16 C -1.621932 3.590320 3.119377 0
M  V30 17 C -2.361915 2.697839 3.897219 0
M  V30 18 C -3.589480 3.025475 4.394911 0
M  V30 19 C -4.097846 4.276945 4.111874 0
M  V30 20 C -3.406339 5.207059 3.342859 0
M  V30 21 C -2.158328 4.848369 2.848100 0
M  V30 22 C -1.199282 5.621152 2.008297 0
M  V30 23 C 0.100468 4.880274 2.235874 0
M  V30 24 O 0.690793 5.399983 3.386390 0
M  V30 25 N -0.111371 -1.448671 -0.229523 0
M  V30 26 C 0.255719 -2.726799 -0.447993 0
M  V30 27 C 1.473949 -3.007237 -1.032232 0
M  V30 28 C 1.115963 -5.960126 -0.069094 0
M  V30 29 C 0.658057 -7.233749 0.137721 0
M  V30 30 N 0.797277 -8.106744 -0.886525 0
M  V30 31 H 2.147265 -8.449766 -3.904617 0
M  V30 32 H 0.465062 -8.911496 -3.560801 0
M  V30 33 H 1.758924 -9.755893 -2.673087 0
M  V30 34 H 2.276965 -6.158657 -3.208318 0
M  V30 35 H 4.247573 -1.822029 -2.297593 0
M  V30 36 H 2.455597 0.259042 -1.378891 0
M  V30 37 H -0.524644 1.279004 -0.969533 0
M  V30 38 H -0.950780 3.116775 0.561211 0
M  V30 39 H 0.360013 2.925213 3.216874 0
M  V30 40 H -1.925495 1.725464 4.095497 0
M  V30 41 H -4.092582 2.277323 4.985728 0
M  V30 42 H -5.072056 4.529477 4.510137 0
M  V30 43 H -3.803384 6.186099 3.121092 0
M  V30 44 H -1.478361 5.666209 0.953084 0
M  V30 45 H -1.137790 6.649286 2.430249 0
M  V30 46 H 0.793402 4.984218 1.368951 0
M  V30 47 H 1.026581 4.643738 3.922475 0
M  V30 48 H -0.381463 -3.556588 -0.177121 0
M  V30 49 H 0.991672 -5.283876 0.766677 0
M  V30 50 H 0.204574 -7.538634 1.072168 0
M  V30 END ATOM
M  V30 BEGIN BOND
M  V30 1 1 1 2
M  V30 2 2 2 3
M  V30 3 1 3 4
M  V30 4 1 4 5
M  V30 5 2 5 6
M  V30 6 1 6 7
M  V30 7 1 7 8
M  V30 8 2 8 9
M  V30 9 1 9 10
M  V30 10 1 10 11
M  V30 11 1 11 12
M  V30 12 2 12 13
M  V30 13 1 12 14
M  V30 14 1 14 15
M  V30 15 1 15 16
M  V30 16 2 16 17
M  V30 17 1 17 18
M  V30 18 2 18 19
M  V30 19 1 19 20
M  V30 20 2 20 21
M  V30 21 1 21 22
M  V30 22 1 22 23
M  V30 23 1 23 24
M  V30 24 2 10 25
M  V30 25 1 25 26
M  V30 26 2 26 27
M  V30 27 2 4 28
M  V30 28 1 28 29
M  V30 29 2 29 30
M  V30 30 1 30 2
M  V30 31 1 27 5
M  V30 32 1 27 8
M  V30 33 1 23 15
M  V30 34 1 21 16
M  V30 35 1 1 31
M  V30 36 1 1 32
M  V30 37 1 1 33
M  V30 38 1 3 34
M  V30 39 1 7 35
M  V30 40 1 9 36
M  V30 41 1 11 37
M  V30 42 1 14 38
M  V30 43 1 15 39
M  V30 44 1 17 40
M  V30 45 1 18 41
M  V30 46 1 19 42
M  V30 47 1 20 43
M  V30 48 1 22 44
M  V30 49 1 22 45
M  V30 50 1 23 46
M  V30 51 1 24 47
M  V30 52 1 26 48
M  V30 53 1 28 49
M  V30 54 1 29 50
M  V30 END BOND
M  V30 END CTAB
M  END
>  <Dataset>  (907) 
ChEMBL_Kinases

>  <Ligand_Instance>  (907) 
nan

>  <PDB_ID>  (907) 
nan

>  <Standardized_SMILES>  (907) 
Cc1cc(-c2n[nH]c3cc(NC(=O)NC4c5ccccc5CC4O)ncc23)ccn1

>  <Name>  (907) 
nan

>  <Pocket>  (907) 
nan

>  <ATP_Site>  (907) 
nan

>  <Peripheral>  (907) 
nan

>  <Num_H_Atoms_ProtBoundConf>  (907) 
nan

>  <Num_Resolved_Atoms>  (907) 
nan

>  <Num_Not_Resolved_Atoms>  (907) 
nan

$$$$
CHEMBL3658698
     RDKit          3D

  0  0  0  0  0  0  0  0  0  0999 V3000
M  V30 BEGIN CTAB
M  V30 COUNTS 60 64 0 0 0
M  V30 BEGIN ATOM
M  V30 1 C 7.142797 -0.473977 5.145992 0
M  V30 2 C 7.241121 0.096562 3.785490 0
M  V30 3 C 6.200650 0.729038 3.150338 0
M  V30 4 C 6.214982 1.286345 1.887530 0
M  V30 5 C 5.026650 1.929388 1.334981 0
M  V30 6 N 4.948673 3.121461 0.690804 0
M  V30 7 N 3.679007 3.370757 0.332409 0
M  V30 8 C 2.924021 2.332163 0.746257 0
M  V30 9 C 1.563563 2.137265 0.606322 0
M  V30 10 C 1.026369 1.003266 1.108807 0
M  V30 11 N -0.341657 0.536420 1.120839 0
M  V30 12 C -0.788390 -0.235510 0.004892 0
M  V30 13 O -0.130378 -0.543679 -0.988990 0
M  V30 14 N -2.140688 -0.618299 0.194538 0
M  V30 15 C -2.883978 -1.406315 -0.748288 0 CFG=2
M  V30 16 C -4.045903 -0.535022 -1.176315 0
M  V30 17 N -5.080134 -0.832587 -0.210763 0
M  V30 18 C -6.413875 -0.512066 -0.666364 0
M  V30 19 C -6.683531 0.946341 -0.827459 0
M  V30 20 F -5.789738 1.451114 -1.762703 0
M  V30 21 F -6.569053 1.573394 0.380998 0
M  V30 22 F -7.994237 1.106158 -1.238300 0
M  V30 23 C -5.053285 -2.285156 -0.126252 0
M  V30 24 C -3.577053 -2.594193 -0.204895 0 CFG=1
M  V30 25 C -3.406281 -3.756575 -1.110143 0
M  V30 26 C -2.930152 -4.943612 -0.548962 0
M  V30 27 C -2.745067 -6.068594 -1.328731 0
M  V30 28 C -3.011080 -6.090881 -2.672869 0
M  V30 29 C -3.480844 -4.924718 -3.235190 0
M  V30 30 C -3.665720 -3.803534 -2.458888 0
M  V30 31 N 1.830715 0.091324 1.733885 0
M  V30 32 C 3.155358 0.270350 1.875935 0
M  V30 33 C 3.748851 1.418103 1.376426 0
M  V30 34 C 7.426503 1.172382 1.229980 0
M  V30 35 C 8.473947 0.542421 1.854599 0
M  V30 36 N 8.418976 0.005777 3.100238 0
M  V30 37 H 7.517381 -1.522526 5.173666 0
M  V30 38 H 6.084195 -0.517414 5.455864 0
M  V30 39 H 7.736764 0.098640 5.888858 0
M  V30 40 H 5.288926 0.764578 3.762465 0
M  V30 41 H 3.348676 4.233799 -0.183287 0
M  V30 42 H 0.859822 2.777437 0.142989 0
M  V30 43 H -0.822615 0.845313 1.995947 0
M  V30 44 H -2.774292 -0.402684 1.001802 0
M  V30 45 H -2.233349 -1.641326 -1.607884 0
M  V30 46 H -4.354437 -0.650342 -2.207703 0
M  V30 47 H -3.788265 0.558804 -1.065481 0
M  V30 48 H -6.719659 -1.131806 -1.535461 0
M  V30 49 H -7.088585 -0.873007 0.165023 0
M  V30 50 H -5.654159 -2.746109 -0.930034 0
M  V30 51 H -5.503751 -2.572314 0.844470 0
M  V30 52 H -3.280412 -2.888805 0.817693 0
M  V30 53 H -2.695684 -4.999746 0.519702 0
M  V30 54 H -2.372225 -6.956691 -0.834606 0
M  V30 55 H -2.848247 -6.996934 -3.242106 0
M  V30 56 H -3.709131 -4.888096 -4.295060 0
M  V30 57 H -4.032802 -2.903400 -2.909599 0
M  V30 58 H 3.780870 -0.470764 2.377883 0
M  V30 59 H 7.498366 1.591629 0.234077 0
M  V30 60 H 9.428148 0.451490 1.339504 0
M  V30 END ATOM
M  V30 BEGIN BOND
M  V30 1 1 1 2
M  V30 2 2 2 3
M  V30 3 1 3 4
M  V30 4 1 4 5
M  V30 5 2 5 6
M  V30 6 1 6 7
M  V30 7 1 7 8
M  V30 8 2 8 9
M  V30 9 1 9 10
M  V30 10 1 10 11
M  V30 11 1 11 12
M  V30 12 2 12 13
M  V30 13 1 12 14
M  V30 14 1 14 15
M  V30 15 1 15 16
M  V30 16 1 16 17
M  V30 17 1 17 18
M  V30 18 1 18 19
M  V30 19 1 19 20
M  V30 20 1 19 21
M  V30 21 1 19 22
M  V30 22 1 17 23
M  V30 23 1 23 24
M  V30 24 1 24 25
M  V30 25 2 25 26
M  V30 26 1 26 27
M  V30 27 2 27 28
M  V30 28 1 28 29
M  V30 29 2 29 30
M  V30 30 2 10 31
M  V30 31 1 31 32
M  V30 32 2 32 33
M  V30 33 2 4 34
M  V30 34 1 34 35
M  V30 35 2 35 36
M  V30 36 1 36 2
M  V30 37 1 33 5
M  V30 38 1 33 8
M  V30 39 1 24 15
M  V30 40 1 30 25
M  V30 41 1 1 37
M  V30 42 1 1 38
M  V30 43 1 1 39
M  V30 44 1 3 40
M  V30 45 1 7 41
M  V30 46 1 9 42
M  V30 47 1 11 43
M  V30 48 1 14 44
M  V30 49 1 15 45 CFG=3
M  V30 50 1 16 46
M  V30 51 1 16 47
M  V30 52 1 18 48
M  V30 53 1 18 49
M  V30 54 1 23 50
M  V30 55 1 23 51
M  V30 56 1 24 52 CFG=1
M  V30 57 1 26 53
M  V30 58 1 27 54
M  V30 59 1 28 55
M  V30 60 1 29 56
M  V30 61 1 30 57
M  V30 62 1 32 58
M  V30 63 1 34 59
M  V30 64 1 35 60
M  V30 END BOND
M  V30 END CTAB
M  END
>  <Dataset>  (908) 
ChEMBL_Kinases

>  <Ligand_Instance>  (908) 
nan

>  <PDB_ID>  (908) 
nan

>  <Standardized_SMILES>  (908) 
Cc1cc(-c2n[nH]c3cc(NC(=O)N[C@@H]4CN(CC(F)(F)F)C[C@H]4c4ccccc4)ncc23)ccn1

>  <Name>  (908) 
nan

>  <Pocket>  (908) 
nan

>  <ATP_Site>  (908) 
nan

>  <Peripheral>  (908) 
nan

>  <Num_H_Atoms_ProtBoundConf>  (908) 
nan

>  <Num_Resolved_Atoms>  (908) 
nan

>  <Num_Not_Resolved_Atoms>  (908) 
nan

$$$$
CHEMBL3658697
     RDKit          3D

  0  0  0  0  0  0  0  0  0  0999 V3000
M  V30 BEGIN CTAB
M  V30 COUNTS 48 51 0 0 0
M  V30 BEGIN ATOM
M  V30 1 C 1.038496 -7.478428 2.110283 0
M  V30 2 C 1.215847 -7.109944 0.669087 0
M  V30 3 C 1.268608 -5.813950 0.242599 0
M  V30 4 C 1.430207 -5.421213 -1.070434 0
M  V30 5 C 1.477498 -4.013707 -1.457772 0
M  V30 6 N 2.356355 -3.429391 -2.312217 0
M  V30 7 N 2.107664 -2.132259 -2.433718 0
M  V30 8 C 1.048680 -1.885348 -1.640424 0
M  V30 9 C 0.398033 -0.686278 -1.413405 0
M  V30 10 C -0.688320 -0.675181 -0.539681 0
M  V30 11 N -1.488128 0.448850 -0.173158 0
M  V30 12 C -0.970736 1.128700 0.985320 0
M  V30 13 O 0.073835 0.788622 1.625188 0
M  V30 14 N -1.598937 2.262861 1.522772 0
M  V30 15 C -1.165092 3.015345 2.675182 0
M  V30 16 C -2.173666 2.974895 3.801332 0
M  V30 17 C -0.848149 4.428607 2.384006 0
M  V30 18 C -0.085762 4.678422 1.248306 0
M  V30 19 C 0.308498 5.914585 0.814563 0
M  V30 20 C -0.091758 6.999166 1.579431 0
M  V30 21 F 0.233385 8.264436 1.256264 0
M  V30 22 C -0.851173 6.811264 2.719133 0
M  V30 23 F -1.299769 7.793435 3.543876 0
M  V30 24 C -1.219577 5.540929 3.108449 0
M  V30 25 N -1.104034 -1.819943 0.080123 0
M  V30 26 C -0.463055 -2.981095 -0.148491 0
M  V30 27 C 0.616196 -3.033731 -1.006121 0
M  V30 28 C 1.540556 -6.475687 -1.969436 0
M  V30 29 C 1.488159 -7.790432 -1.546097 0
M  V30 30 N 1.327761 -8.103348 -0.242748 0
M  V30 31 H 0.018910 -7.905217 2.207127 0
M  V30 32 H 1.024391 -6.525807 2.697093 0
M  V30 33 H 1.820757 -8.178488 2.447559 0
M  V30 34 H 1.171829 -5.086919 1.034102 0
M  V30 35 H 2.623501 -1.442237 -3.021459 0
M  V30 36 H 0.635696 0.272960 -1.843536 0
M  V30 37 H -2.375091 0.860433 -0.594655 0
M  V30 38 H -2.467063 2.660180 1.104775 0
M  V30 39 H -0.224537 2.560303 3.101573 0
M  V30 40 H -3.091606 3.551565 3.604874 0
M  V30 41 H -1.683494 3.408088 4.698660 0
M  V30 42 H -2.388754 1.908277 4.096155 0
M  V30 43 H 0.249744 3.846029 0.617847 0
M  V30 44 H 0.899349 6.050482 -0.073574 0
M  V30 45 H -1.817347 5.329503 3.996662 0
M  V30 46 H -0.785318 -3.890133 0.337066 0
M  V30 47 H 1.669384 -6.230073 -3.016305 0
M  V30 48 H 1.582055 -8.556343 -2.311448 0
M  V30 END ATOM
M  V30 BEGIN BOND
M  V30 1 1 1 2
M  V30 2 2 2 3
M  V30 3 1 3 4
M  V30 4 1 4 5
M  V30 5 2 5 6
M  V30 6 1 6 7
M  V30 7 1 7 8
M  V30 8 2 8 9
M  V30 9 1 9 10
M  V30 10 1 10 11
M  V30 11 1 11 12
M  V30 12 2 12 13
M  V30 13 1 12 14
M  V30 14 1 14 15
M  V30 15 1 15 16
M  V30 16 1 15 17
M  V30 17 2 17 18
M  V30 18 1 18 19
M  V30 19 2 19 20
M  V30 20 1 20 21
M  V30 21 1 20 22
M  V30 22 1 22 23
M  V30 23 2 22 24
M  V30 24 2 10 25
M  V30 25 1 25 26
M  V30 26 2 26 27
M  V30 27 2 4 28
M  V30 28 1 28 29
M  V30 29 2 29 30
M  V30 30 1 30 2
M  V30 31 1 27 5
M  V30 32 1 27 8
M  V30 33 1 24 17
M  V30 34 1 1 31
M  V30 35 1 1 32
M  V30 36 1 1 33
M  V30 37 1 3 34
M  V30 38 1 7 35
M  V30 39 1 9 36
M  V30 40 1 11 37
M  V30 41 1 14 38
M  V30 42 1 15 39
M  V30 43 1 16 40
M  V30 44 1 16 41
M  V30 45 1 16 42
M  V30 46 1 18 43
M  V30 47 1 19 44
M  V30 48 1 24 45
M  V30 49 1 26 46
M  V30 50 1 28 47
M  V30 51 1 29 48
M  V30 END BOND
M  V30 END CTAB
M  END
>  <Dataset>  (909) 
ChEMBL_Kinases

>  <Ligand_Instance>  (909) 
nan

>  <PDB_ID>  (909) 
nan

>  <Standardized_SMILES>  (909) 
Cc1cc(-c2n[nH]c3cc(NC(=O)NC(C)c4ccc(F)c(F)c4)ncc23)ccn1

>  <Name>  (909) 
nan

>  <Pocket>  (909) 
nan

>  <ATP_Site>  (909) 
nan

>  <Peripheral>  (909) 
nan

>  <Num_H_Atoms_ProtBoundConf>  (909) 
nan

>  <Num_Resolved_Atoms>  (909) 
nan

>  <Num_Not_Resolved_Atoms>  (909) 
nan

$$$$
CHEMBL3658696
     RDKit          3D

  0  0  0  0  0  0  0  0  0  0999 V3000
M  V30 BEGIN CTAB
M  V30 COUNTS 47 50 0 0 0
M  V30 BEGIN ATOM
M  V30 1 C -3.187482 -6.781340 -0.858507 0
M  V30 2 C -3.918383 -5.561420 -1.287837 0
M  V30 3 C -3.152298 -4.405299 -1.283601 0
M  V30 4 C -3.762639 -3.227791 -1.671197 0
M  V30 5 C -3.149661 -1.905242 -1.740533 0
M  V30 6 N -3.278844 -1.024335 -2.750370 0
M  V30 7 N -2.589018 0.076096 -2.485585 0
M  V30 8 C -2.005583 -0.099191 -1.284589 0
M  V30 9 C -1.182722 0.731417 -0.542870 0
M  V30 10 C -0.714048 0.297146 0.681165 0
M  V30 11 N 0.137890 1.050390 1.543416 0
M  V30 12 C 1.537799 0.891664 1.368279 0
M  V30 13 O 2.088953 0.144306 0.518534 0
M  V30 14 N 2.381705 1.630029 2.213587 0
M  V30 15 C 3.827506 1.715128 2.316683 0 CFG=1
M  V30 16 C 4.288253 3.135153 2.347650 0
M  V30 17 N 4.405048 3.529825 3.730807 0
M  V30 18 C 5.774477 3.877093 4.020725 0
M  V30 19 C 3.889598 2.452047 4.541256 0
M  V30 20 C 4.155986 1.230291 3.727054 0 CFG=2
M  V30 21 F 5.476433 0.891985 3.878372 0
M  V30 22 N -1.049610 -0.919541 1.154298 0
M  V30 23 C -1.849882 -1.772566 0.472886 0
M  V30 24 C -2.326412 -1.346468 -0.758009 0
M  V30 25 C -5.096693 -3.239577 -2.045012 0
M  V30 26 C -5.830386 -4.404849 -2.038441 0
M  V30 27 N -5.217496 -5.539646 -1.657947 0
M  V30 28 H -2.626150 -7.261695 -1.690704 0
M  V30 29 H -3.923457 -7.518037 -0.501578 0
M  V30 30 H -2.511446 -6.562239 0.012478 0
M  V30 31 H -2.115557 -4.320394 -1.006963 0
M  V30 32 H -2.477029 0.957944 -3.063801 0
M  V30 33 H -0.882374 1.716555 -0.874576 0
M  V30 34 H -0.332439 1.666802 2.244203 0
M  V30 35 H 1.978004 2.273653 2.945647 0
M  V30 36 H 4.353392 1.071229 1.584764 0
M  V30 37 H 5.221180 3.233600 1.768836 0
M  V30 38 H 3.522074 3.757278 1.812918 0
M  V30 39 H 5.881309 4.948188 4.307641 0
M  V30 40 H 6.412876 3.668890 3.139827 0
M  V30 41 H 6.189562 3.291695 4.886866 0
M  V30 42 H 4.499188 2.415403 5.483290 0
M  V30 43 H 2.833095 2.583783 4.812670 0
M  V30 44 H 3.545659 0.351164 3.974036 0
M  V30 45 H -2.128839 -2.756204 0.841622 0
M  V30 46 H -5.646050 -2.366384 -2.359703 0
M  V30 47 H -6.855401 -4.520809 -2.306088 0
M  V30 END ATOM
M  V30 BEGIN BOND
M  V30 1 1 1 2
M  V30 2 2 2 3
M  V30 3 1 3 4
M  V30 4 1 4 5
M  V30 5 2 5 6
M  V30 6 1 6 7
M  V30 7 1 7 8
M  V30 8 2 8 9
M  V30 9 1 9 10
M  V30 10 1 10 11
M  V30 11 1 11 12
M  V30 12 2 12 13
M  V30 13 1 12 14
M  V30 14 1 14 15
M  V30 15 1 15 16
M  V30 16 1 16 17
M  V30 17 1 17 18
M  V30 18 1 17 19
M  V30 19 1 19 20
M  V30 20 1 20 21
M  V30 21 2 10 22
M  V30 22 1 22 23
M  V30 23 2 23 24
M  V30 24 2 4 25
M  V30 25 1 25 26
M  V30 26 2 26 27
M  V30 27 1 27 2
M  V30 28 1 24 5
M  V30 29 1 24 8
M  V30 30 1 20 15
M  V30 31 1 1 28
M  V30 32 1 1 29
M  V30 33 1 1 30
M  V30 34 1 3 31
M  V30 35 1 7 32
M  V30 36 1 9 33
M  V30 37 1 11 34
M  V30 38 1 14 35
M  V30 39 1 15 36 CFG=3
M  V30 40 1 16 37
M  V30 41 1 16 38
M  V30 42 1 18 39
M  V30 43 1 18 40
M  V30 44 1 18 41
M  V30 45 1 19 42
M  V30 46 1 19 43
M  V30 47 1 20 44 CFG=1
M  V30 48 1 23 45
M  V30 49 1 25 46
M  V30 50 1 26 47
M  V30 END BOND
M  V30 END CTAB
M  END
>  <Dataset>  (910) 
ChEMBL_Kinases

>  <Ligand_Instance>  (910) 
nan

>  <PDB_ID>  (910) 
nan

>  <Standardized_SMILES>  (910) 
Cc1cc(-c2n[nH]c3cc(NC(=O)N[C@H]4CN(C)C[C@@H]4F)ncc23)ccn1

>  <Name>  (910) 
nan

>  <Pocket>  (910) 
nan

>  <ATP_Site>  (910) 
nan

>  <Peripheral>  (910) 
nan

>  <Num_H_Atoms_ProtBoundConf>  (910) 
nan

>  <Num_Resolved_Atoms>  (910) 
nan

>  <Num_Not_Resolved_Atoms>  (910) 
nan

$$$$
CHEMBL3658695
     RDKit          3D

  0  0  0  0  0  0  0  0  0  0999 V3000
M  V30 BEGIN CTAB
M  V30 COUNTS 50 53 0 0 0
M  V30 BEGIN ATOM
M  V30 1 C -1.173527 -6.325306 -4.729735 0
M  V30 2 C -0.388357 -6.413999 -3.466756 0
M  V30 3 C 0.324007 -5.327503 -2.976249 0
M  V30 4 C 1.036804 -5.435069 -1.814468 0
M  V30 5 C 1.803863 -4.327004 -1.251520 0
M  V30 6 N 3.070753 -4.413868 -0.756264 0
M  V30 7 N 3.466656 -3.223603 -0.325500 0
M  V30 8 C 2.472821 -2.336157 -0.528279 0
M  V30 9 C 2.307404 -0.977596 -0.287486 0
M  V30 10 C 1.128972 -0.338282 -0.621491 0
M  V30 11 N 1.052498 1.060007 -0.335537 0
M  V30 12 C 0.541400 1.415166 0.965678 0
M  V30 13 O 0.191387 0.523147 1.779753 0
M  V30 14 N 0.459929 2.790543 1.262506 0
M  V30 15 C -0.065514 3.117643 2.597427 0 CFG=1
M  V30 16 C 0.889930 3.937497 3.390255 0
M  V30 17 C 0.012950 4.876685 4.167448 0
M  V30 18 N -1.358991 4.562243 3.806429 0
M  V30 19 C -1.855659 3.654950 4.790446 0
M  V30 20 C -3.270617 3.207302 4.613403 0
M  V30 21 F -4.150092 4.268548 4.634093 0
M  V30 22 F -3.579168 2.468834 5.770410 0
M  V30 23 F -3.478271 2.354863 3.557602 0
M  V30 24 C -1.267726 4.019548 2.466991 0
M  V30 25 N 0.095171 -1.019768 -1.196193 0
M  V30 26 C 0.212672 -2.356493 -1.451525 0
M  V30 27 C 1.398604 -3.001616 -1.115774 0
M  V30 28 C 1.032752 -6.643326 -1.142156 0
M  V30 29 C 0.311935 -7.682298 -1.672425 0
M  V30 30 N -0.380876 -7.578535 -2.801193 0
M  V30 31 H -0.847716 -7.098046 -5.446064 0
M  V30 32 H -1.087082 -5.293153 -5.113931 0
M  V30 33 H -2.250224 -6.513713 -4.541675 0
M  V30 34 H 0.303174 -4.412156 -3.522457 0
M  V30 35 H 4.356676 -2.895231 0.110731 0
M  V30 36 H 3.116922 -0.421510 0.167615 0
M  V30 37 H 1.340172 1.810373 -1.003432 0
M  V30 38 H 0.727031 3.591606 0.649481 0
M  V30 39 H -0.311225 2.186538 3.146510 0
M  V30 40 H 1.556843 4.512731 2.710483 0
M  V30 41 H 1.500910 3.297240 4.090475 0
M  V30 42 H 0.166378 4.704462 5.272634 0
M  V30 43 H 0.237621 5.949307 3.987735 0
M  V30 44 H -1.176474 2.782490 4.889553 0
M  V30 45 H -1.787891 4.186007 5.774052 0
M  V30 46 H -0.948743 4.856697 1.809632 0
M  V30 47 H -2.147740 3.492895 2.112476 0
M  V30 48 H -0.613047 -2.889309 -1.908026 0
M  V30 49 H 1.607990 -6.722698 -0.208716 0
M  V30 50 H 0.316238 -8.622520 -1.137700 0
M  V30 END ATOM
M  V30 BEGIN BOND
M  V30 1 1 1 2
M  V30 2 2 2 3
M  V30 3 1 3 4
M  V30 4 1 4 5
M  V30 5 2 5 6
M  V30 6 1 6 7
M  V30 7 1 7 8
M  V30 8 2 8 9
M  V30 9 1 9 10
M  V30 10 1 10 11
M  V30 11 1 11 12
M  V30 12 2 12 13
M  V30 13 1 12 14
M  V30 14 1 14 15
M  V30 15 1 15 16
M  V30 16 1 16 17
M  V30 17 1 17 18
M  V30 18 1 18 19
M  V30 19 1 19 20
M  V30 20 1 20 21
M  V30 21 1 20 22
M  V30 22 1 20 23
M  V30 23 1 18 24
M  V30 24 2 10 25
M  V30 25 1 25 26
M  V30 26 2 26 27
M  V30 27 2 4 28
M  V30 28 1 28 29
M  V30 29 2 29 30
M  V30 30 1 30 2
M  V30 31 1 27 5
M  V30 32 1 27 8
M  V30 33 1 24 15
M  V30 34 1 1 31
M  V30 35 1 1 32
M  V30 36 1 1 33
M  V30 37 1 3 34
M  V30 38 1 7 35
M  V30 39 1 9 36
M  V30 40 1 11 37
M  V30 41 1 14 38
M  V30 42 1 15 39 CFG=1
M  V30 43 1 16 40
M  V30 44 1 16 41
M  V30 45 1 17 42
M  V30 46 1 17 43
M  V30 47 1 19 44
M  V30 48 1 19 45
M  V30 49 1 24 46
M  V30 50 1 24 47
M  V30 51 1 26 48
M  V30 52 1 28 49
M  V30 53 1 29 50
M  V30 END BOND
M  V30 END CTAB
M  END
>  <Dataset>  (911) 
ChEMBL_Kinases

>  <Ligand_Instance>  (911) 
nan

>  <PDB_ID>  (911) 
nan

>  <Standardized_SMILES>  (911) 
Cc1cc(-c2n[nH]c3cc(NC(=O)N[C@H]4CCN(CC(F)(F)F)C4)ncc23)ccn1

>  <Name>  (911) 
nan

>  <Pocket>  (911) 
nan

>  <ATP_Site>  (911) 
nan

>  <Peripheral>  (911) 
nan

>  <Num_H_Atoms_ProtBoundConf>  (911) 
nan

>  <Num_Resolved_Atoms>  (911) 
nan

>  <Num_Not_Resolved_Atoms>  (911) 
nan

$$$$
CHEMBL3658694
     RDKit          3D

  0  0  0  0  0  0  0  0  0  0999 V3000
M  V30 BEGIN CTAB
M  V30 COUNTS 50 53 0 0 0
M  V30 BEGIN ATOM
M  V30 1 C 3.699568 -7.315944 1.575892 0
M  V30 2 C 3.363911 -7.040635 0.154495 0
M  V30 3 C 3.057044 -5.749066 -0.226179 0
M  V30 4 C 2.734565 -5.409912 -1.525319 0
M  V30 5 C 2.407401 -4.049658 -1.945151 0
M  V30 6 N 2.847218 -3.384379 -3.034952 0
M  V30 7 N 2.331190 -2.159274 -3.086255 0
M  V30 8 C 1.534678 -2.017720 -2.005440 0
M  V30 9 C 0.787886 -0.914409 -1.635623 0
M  V30 10 C 0.052051 -1.031312 -0.472922 0
M  V30 11 N -0.793432 -0.042519 0.118741 0
M  V30 12 C -0.398212 0.935616 1.069010 0
M  V30 13 O 0.808580 0.925578 1.417889 0
M  V30 14 N -1.377099 1.838696 1.548348 0
M  V30 15 C -1.017295 2.854332 2.520676 0 CFG=2
M  V30 16 C -1.869075 2.736854 3.777564 0
M  V30 17 C -3.181153 3.334908 3.318284 0
M  V30 18 N -2.901444 4.147763 2.166715 0
M  V30 19 C -3.507421 5.442294 2.415546 0
M  V30 20 C -3.251670 6.332046 1.246265 0
M  V30 21 F -1.907481 6.507607 1.044239 0
M  V30 22 F -3.901436 7.554374 1.394280 0
M  V30 23 F -3.804228 5.751184 0.124030 0
M  V30 24 C -1.465436 4.204384 2.020384 0
M  V30 25 N 0.076888 -2.172664 0.247131 0
M  V30 26 C 0.803618 -3.249872 -0.110359 0
M  V30 27 C 1.564000 -3.188113 -1.272581 0
M  V30 28 C 2.722094 -6.423561 -2.482322 0
M  V30 29 C 3.039281 -7.708797 -2.044964 0
M  V30 30 N 3.353776 -8.023626 -0.763881 0
M  V30 31 H 3.369363 -8.345259 1.798232 0
M  V30 32 H 3.271379 -6.560250 2.258464 0
M  V30 33 H 4.820110 -7.338558 1.661217 0
M  V30 34 H 3.072636 -4.977233 0.532180 0
M  V30 35 H 2.519620 -1.441102 -3.840607 0
M  V30 36 H 0.706938 0.019020 -2.134791 0
M  V30 37 H -1.751249 -0.157553 -0.263030 0
M  V30 38 H -2.365843 1.797230 1.219601 0
M  V30 39 H 0.045650 2.800342 2.789516 0
M  V30 40 H -2.026874 1.707964 4.088583 0
M  V30 41 H -1.424195 3.336355 4.572923 0
M  V30 42 H -3.849921 2.499817 2.976899 0
M  V30 43 H -3.725902 3.863874 4.110965 0
M  V30 44 H -4.598668 5.302946 2.563149 0
M  V30 45 H -3.071346 5.829866 3.362125 0
M  V30 46 H -1.095127 4.974634 2.715102 0
M  V30 47 H -1.165238 4.360102 0.962560 0
M  V30 48 H 0.818068 -4.159994 0.471759 0
M  V30 49 H 2.482940 -6.264587 -3.527227 0
M  V30 50 H 3.060813 -8.573227 -2.701896 0
M  V30 END ATOM
M  V30 BEGIN BOND
M  V30 1 1 1 2
M  V30 2 2 2 3
M  V30 3 1 3 4
M  V30 4 1 4 5
M  V30 5 2 5 6
M  V30 6 1 6 7
M  V30 7 1 7 8
M  V30 8 2 8 9
M  V30 9 1 9 10
M  V30 10 1 10 11
M  V30 11 1 11 12
M  V30 12 2 12 13
M  V30 13 1 12 14
M  V30 14 1 14 15
M  V30 15 1 15 16
M  V30 16 1 16 17
M  V30 17 1 17 18
M  V30 18 1 18 19
M  V30 19 1 19 20
M  V30 20 1 20 21
M  V30 21 1 20 22
M  V30 22 1 20 23
M  V30 23 1 18 24
M  V30 24 2 10 25
M  V30 25 1 25 26
M  V30 26 2 26 27
M  V30 27 2 4 28
M  V30 28 1 28 29
M  V30 29 2 29 30
M  V30 30 1 30 2
M  V30 31 1 27 5
M  V30 32 1 27 8
M  V30 33 1 24 15
M  V30 34 1 1 31
M  V30 35 1 1 32
M  V30 36 1 1 33
M  V30 37 1 3 34
M  V30 38 1 7 35
M  V30 39 1 9 36
M  V30 40 1 11 37
M  V30 41 1 14 38
M  V30 42 1 15 39 CFG=1
M  V30 43 1 16 40
M  V30 44 1 16 41
M  V30 45 1 17 42
M  V30 46 1 17 43
M  V30 47 1 19 44
M  V30 48 1 19 45
M  V30 49 1 24 46
M  V30 50 1 24 47
M  V30 51 1 26 48
M  V30 52 1 28 49
M  V30 53 1 29 50
M  V30 END BOND
M  V30 END CTAB
M  END
>  <Dataset>  (912) 
ChEMBL_Kinases

>  <Ligand_Instance>  (912) 
nan

>  <PDB_ID>  (912) 
nan

>  <Standardized_SMILES>  (912) 
Cc1cc(-c2n[nH]c3cc(NC(=O)N[C@@H]4CCN(CC(F)(F)F)C4)ncc23)ccn1

>  <Name>  (912) 
nan

>  <Pocket>  (912) 
nan

>  <ATP_Site>  (912) 
nan

>  <Peripheral>  (912) 
nan

>  <Num_H_Atoms_ProtBoundConf>  (912) 
nan

>  <Num_Resolved_Atoms>  (912) 
nan

>  <Num_Not_Resolved_Atoms>  (912) 
nan

$$$$
CHEMBL3658693
     RDKit          3D

  0  0  0  0  0  0  0  0  0  0999 V3000
M  V30 BEGIN CTAB
M  V30 COUNTS 44 47 0 0 0
M  V30 BEGIN ATOM
M  V30 1 C 0.075785 -6.477662 3.312612 0
M  V30 2 C -0.053677 -6.326607 1.839622 0
M  V30 3 C 0.512432 -5.227161 1.257367 0
M  V30 4 C 0.399102 -5.075590 -0.109311 0
M  V30 5 C 0.928725 -3.980418 -0.919596 0
M  V30 6 N 1.576502 -4.158202 -2.083984 0
M  V30 7 N 1.933545 -2.965766 -2.578404 0
M  V30 8 C 1.544332 -1.976440 -1.778012 0
M  V30 9 C 1.617021 -0.605334 -1.749826 0
M  V30 10 C 1.092963 0.138718 -0.739300 0
M  V30 11 N 1.140119 1.570139 -0.659114 0
M  V30 12 C 0.562894 2.262130 0.439484 0
M  V30 13 O 0.006846 1.569377 1.342532 0
M  V30 14 N 0.612289 3.664981 0.512445 0
M  V30 15 C 0.013486 4.301980 1.642914 0 CFG=2
M  V30 16 C -1.080612 5.288145 1.224181 0
M  V30 17 N -1.264721 6.144947 2.395302 0
M  V30 18 C -0.119300 5.960912 3.242262 0
M  V30 19 C 0.934516 5.285521 2.352694 0 CFG=1
M  V30 20 F 1.914767 4.671655 3.080894 0
M  V30 21 N 0.477391 -0.539737 0.270419 0
M  V30 22 C 0.375807 -1.878588 0.296956 0
M  V30 23 C 0.906865 -2.629565 -0.726723 0
M  V30 24 C -0.290850 -6.058644 -0.824010 0
M  V30 25 C -0.849319 -7.155577 -0.200425 0
M  V30 26 N -0.717816 -7.271226 1.145053 0
M  V30 27 H -0.313792 -7.472999 3.649565 0
M  V30 28 H 1.105491 -6.352749 3.655927 0
M  V30 29 H -0.538163 -5.677320 3.785448 0
M  V30 30 H 1.051168 -4.447252 1.766287 0
M  V30 31 H 2.450673 -2.798505 -3.472612 0
M  V30 32 H 2.110903 -0.091714 -2.563440 0
M  V30 33 H 1.607473 2.101062 -1.423979 0
M  V30 34 H 1.060336 4.267090 -0.210199 0
M  V30 35 H -0.438090 3.619921 2.362857 0
M  V30 36 H -0.689865 5.961730 0.423008 0
M  V30 37 H -2.015778 4.791147 0.929410 0
M  V30 38 H -1.480654 7.128568 2.156593 0
M  V30 39 H 0.271051 6.880824 3.706984 0
M  V30 40 H -0.390713 5.172041 3.993180 0
M  V30 41 H 1.305373 6.029880 1.624350 0
M  V30 42 H -0.125375 -2.352880 1.127970 0
M  V30 43 H -0.433009 -6.029542 -1.895706 0
M  V30 44 H -1.388236 -7.932108 -0.724086 0
M  V30 END ATOM
M  V30 BEGIN BOND
M  V30 1 1 1 2
M  V30 2 2 2 3
M  V30 3 1 3 4
M  V30 4 1 4 5
M  V30 5 2 5 6
M  V30 6 1 6 7
M  V30 7 1 7 8
M  V30 8 2 8 9
M  V30 9 1 9 10
M  V30 10 1 10 11
M  V30 11 1 11 12
M  V30 12 2 12 13
M  V30 13 1 12 14
M  V30 14 1 14 15
M  V30 15 1 15 16
M  V30 16 1 16 17
M  V30 17 1 17 18
M  V30 18 1 18 19
M  V30 19 1 19 20
M  V30 20 2 10 21
M  V30 21 1 21 22
M  V30 22 2 22 23
M  V30 23 2 4 24
M  V30 24 1 24 25
M  V30 25 2 25 26
M  V30 26 1 26 2
M  V30 27 1 23 5
M  V30 28 1 23 8
M  V30 29 1 19 15
M  V30 30 1 1 27
M  V30 31 1 1 28
M  V30 32 1 1 29
M  V30 33 1 3 30
M  V30 34 1 7 31
M  V30 35 1 9 32
M  V30 36 1 11 33
M  V30 37 1 14 34
M  V30 38 1 15 35 CFG=1
M  V30 39 1 16 36
M  V30 40 1 16 37
M  V30 41 1 17 38
M  V30 42 1 18 39
M  V30 43 1 18 40
M  V30 44 1 19 41 CFG=3
M  V30 45 1 22 42
M  V30 46 1 24 43
M  V30 47 1 25 44
M  V30 END BOND
M  V30 END CTAB
M  END
>  <Dataset>  (913) 
ChEMBL_Kinases

>  <Ligand_Instance>  (913) 
nan

>  <PDB_ID>  (913) 
nan

>  <Standardized_SMILES>  (913) 
Cc1cc(-c2n[nH]c3cc(NC(=O)N[C@@H]4CNC[C@H]4F)ncc23)ccn1

>  <Name>  (913) 
nan

>  <Pocket>  (913) 
nan

>  <ATP_Site>  (913) 
nan

>  <Peripheral>  (913) 
nan

>  <Num_H_Atoms_ProtBoundConf>  (913) 
nan

>  <Num_Resolved_Atoms>  (913) 
nan

>  <Num_Not_Resolved_Atoms>  (913) 
nan

$$$$
CHEMBL3658692
     RDKit          3D

  0  0  0  0  0  0  0  0  0  0999 V3000
M  V30 BEGIN CTAB
M  V30 COUNTS 52 55 0 0 0
M  V30 BEGIN ATOM
M  V30 1 C -2.188869 -6.547067 0.384349 0
M  V30 2 O -2.097937 -5.553942 -0.513562 0
M  V30 3 C -0.915667 -5.138465 -1.017193 0
M  V30 4 C 0.091465 -4.595951 -0.025938 0 CFG=1
M  V30 5 N -0.498707 -3.507092 0.733488 0
M  V30 6 C 0.006279 -2.183288 0.601294 0
M  V30 7 O 0.954361 -1.804139 -0.130175 0
M  V30 8 N -0.633185 -1.192011 1.380791 0
M  V30 9 C -0.296757 0.194752 1.408689 0
M  V30 10 C 0.605323 0.833065 2.238943 0
M  V30 11 C 0.772314 2.197638 2.086779 0
M  V30 12 N 1.589223 3.014579 2.779972 0
M  V30 13 N 1.398488 4.227394 2.273655 0
M  V30 14 C 0.479248 4.187852 1.277723 0
M  V30 15 C 0.018182 5.329862 0.492924 0
M  V30 16 C -0.315565 6.546721 1.079292 0
M  V30 17 C -0.750813 7.619959 0.324690 0
M  V30 18 N -0.867880 7.520275 -1.026828 0
M  V30 19 C -0.552003 6.348385 -1.641477 0
M  V30 20 C -0.675099 6.219389 -3.133843 0
M  V30 21 C -0.119820 5.287689 -0.877473 0
M  V30 22 C 0.051767 2.884322 1.129986 0
M  V30 23 C -0.843458 2.229701 0.311242 0
M  V30 24 N -0.981103 0.904923 0.485743 0
M  V30 25 C 0.712130 -5.652099 0.733057 0
M  V30 26 C 0.909021 -7.005318 0.598761 0
M  V30 27 C 1.547933 -7.804751 1.518720 0
M  V30 28 C 2.045798 -7.251830 2.678311 0
M  V30 29 F 2.648585 -8.130436 3.499516 0
M  V30 30 C 1.890818 -5.897252 2.892113 0
M  V30 31 C 1.232966 -5.124278 1.926509 0
M  V30 32 H -1.831301 -7.546447 0.095581 0
M  V30 33 H -3.292400 -6.694428 0.613045 0
M  V30 34 H -1.728082 -6.169495 1.345529 0
M  V30 35 H -1.027103 -4.352800 -1.817975 0
M  V30 36 H -0.478450 -6.003978 -1.578279 0
M  V30 37 H 0.932828 -4.127102 -0.645248 0
M  V30 38 H -1.293558 -3.722475 1.370318 0
M  V30 39 H -1.441075 -1.304134 2.052495 0
M  V30 40 H 1.101593 0.180715 2.941963 0
M  V30 41 H 2.241859 2.758798 3.556727 0
M  V30 42 H -0.213612 6.602490 2.164482 0
M  V30 43 H -1.005528 8.560055 0.805870 0
M  V30 44 H 0.284923 6.466347 -3.620002 0
M  V30 45 H -1.528317 6.795576 -3.518775 0
M  V30 46 H -0.875735 5.127078 -3.315983 0
M  V30 47 H 0.115262 4.387339 -1.418290 0
M  V30 48 H -1.389001 2.800899 -0.425763 0
M  V30 49 H 0.481019 -7.329829 -0.364729 0
M  V30 50 H 1.581502 -8.851561 1.188746 0
M  V30 51 H 2.302080 -5.553439 3.807057 0
M  V30 52 H 1.210395 -4.078739 2.276862 0
M  V30 END ATOM
M  V30 BEGIN BOND
M  V30 1 1 1 2
M  V30 2 1 2 3
M  V30 3 1 3 4
M  V30 4 1 4 5
M  V30 5 1 5 6
M  V30 6 2 6 7
M  V30 7 1 6 8
M  V30 8 1 8 9
M  V30 9 2 9 10
M  V30 10 1 10 11
M  V30 11 1 11 12
M  V30 12 1 12 13
M  V30 13 2 13 14
M  V30 14 1 14 15
M  V30 15 2 15 16
M  V30 16 1 16 17
M  V30 17 2 17 18
M  V30 18 1 18 19
M  V30 19 1 19 20
M  V30 20 2 19 21
M  V30 21 1 14 22
M  V30 22 1 22 23
M  V30 23 2 23 24
M  V30 24 1 4 25
M  V30 25 2 25 26
M  V30 26 1 26 27
M  V30 27 2 27 28
M  V30 28 1 28 29
M  V30 29 1 28 30
M  V30 30 2 30 31
M  V30 31 1 24 9
M  V30 32 1 31 25
M  V30 33 2 22 11
M  V30 34 1 21 15
M  V30 35 1 1 32
M  V30 36 1 1 33
M  V30 37 1 1 34
M  V30 38 1 3 35
M  V30 39 1 3 36
M  V30 40 1 4 37 CFG=3
M  V30 41 1 5 38
M  V30 42 1 8 39
M  V30 43 1 10 40
M  V30 44 1 12 41
M  V30 45 1 16 42
M  V30 46 1 17 43
M  V30 47 1 20 44
M  V30 48 1 20 45
M  V30 49 1 20 46
M  V30 50 1 21 47
M  V30 51 1 23 48
M  V30 52 1 26 49
M  V30 53 1 27 50
M  V30 54 1 30 51
M  V30 55 1 31 52
M  V30 END BOND
M  V30 END CTAB
M  END
>  <Dataset>  (914) 
ChEMBL_Kinases

>  <Ligand_Instance>  (914) 
nan

>  <PDB_ID>  (914) 
nan

>  <Standardized_SMILES>  (914) 
COC[C@@H](NC(=O)Nc1cc2[nH]nc(-c3ccnc(C)c3)c2cn1)c1ccc(F)cc1

>  <Name>  (914) 
nan

>  <Pocket>  (914) 
nan

>  <ATP_Site>  (914) 
nan

>  <Peripheral>  (914) 
nan

>  <Num_H_Atoms_ProtBoundConf>  (914) 
nan

>  <Num_Resolved_Atoms>  (914) 
nan

>  <Num_Not_Resolved_Atoms>  (914) 
nan

$$$$
CHEMBL3658691
     RDKit          3D

  0  0  0  0  0  0  0  0  0  0999 V3000
M  V30 BEGIN CTAB
M  V30 COUNTS 52 55 0 0 0
M  V30 BEGIN ATOM
M  V30 1 C 2.026543 -7.261471 2.897910 0
M  V30 2 O 1.022058 -6.423221 2.451201 0
M  V30 3 C 1.389367 -5.113794 2.841466 0
M  V30 4 C 0.364484 -4.128306 2.397551 0 CFG=2
M  V30 5 N 0.636524 -2.754495 2.755458 0
M  V30 6 C 0.551461 -1.643830 1.858047 0
M  V30 7 O 0.213868 -1.790625 0.643608 0
M  V30 8 N 0.834873 -0.312525 2.258701 0
M  V30 9 C 0.720347 0.772937 1.312371 0
M  V30 10 C 1.021969 2.059680 1.726170 0
M  V30 11 C 0.907064 3.145104 0.845833 0
M  V30 12 N 1.127263 4.488480 0.982835 0
M  V30 13 N 0.852552 5.080384 -0.183944 0
M  V30 14 C 0.458355 4.153606 -1.077528 0
M  V30 15 C 0.056788 4.387120 -2.464926 0
M  V30 16 C -0.815903 5.457841 -2.581225 0
M  V30 17 C -1.335155 5.860150 -3.816743 0
M  V30 18 N -0.933129 5.142879 -4.878477 0
M  V30 19 C -0.087317 4.103375 -4.774847 0
M  V30 20 C 0.313240 3.348893 -5.994735 0
M  V30 21 C 0.448186 3.672240 -3.578785 0
M  V30 22 C 0.483738 2.912554 -0.453299 0
M  V30 23 C 0.190830 1.607817 -0.829021 0
M  V30 24 N 0.311684 0.563712 0.048361 0
M  V30 25 C -0.964378 -4.580470 2.962599 0
M  V30 26 C -1.832992 -5.314454 2.140185 0
M  V30 27 C -3.036415 -5.712153 2.672266 0
M  V30 28 C -3.359733 -5.388164 3.976100 0
M  V30 29 F -4.570593 -5.831941 4.388214 0
M  V30 30 C -2.509217 -4.669882 4.780900 0
M  V30 31 C -1.270695 -4.241495 4.285632 0
M  V30 32 H 1.842421 -8.331561 2.649797 0
M  V30 33 H 2.992622 -6.902947 2.517164 0
M  V30 34 H 2.065665 -7.113792 4.012609 0
M  V30 35 H 2.392531 -4.936319 2.395509 0
M  V30 36 H 1.471537 -5.147926 3.961448 0
M  V30 37 H 0.256615 -4.149843 1.292867 0
M  V30 38 H 0.920892 -2.546896 3.754043 0
M  V30 39 H 1.119927 -0.103437 3.229804 0
M  V30 40 H 1.354470 2.300739 2.720836 0
M  V30 41 H 1.461433 4.930466 1.890747 0
M  V30 42 H -1.169908 6.069217 -1.749305 0
M  V30 43 H -2.015686 6.690805 -3.931792 0
M  V30 44 H 1.071010 3.845616 -6.611330 0
M  V30 45 H -0.639501 3.201884 -6.585209 0
M  V30 46 H 0.634237 2.297880 -5.764759 0
M  V30 47 H 1.130612 2.854243 -3.400301 0
M  V30 48 H -0.134760 1.479444 -1.848321 0
M  V30 49 H -1.460314 -5.508689 1.117660 0
M  V30 50 H -3.698356 -6.277201 2.024033 0
M  V30 51 H -2.840820 -4.455504 5.805295 0
M  V30 52 H -0.605952 -3.682666 4.911016 0
M  V30 END ATOM
M  V30 BEGIN BOND
M  V30 1 1 1 2
M  V30 2 1 2 3
M  V30 3 1 3 4
M  V30 4 1 4 5
M  V30 5 1 5 6
M  V30 6 2 6 7
M  V30 7 1 6 8
M  V30 8 1 8 9
M  V30 9 2 9 10
M  V30 10 1 10 11
M  V30 11 1 11 12
M  V30 12 1 12 13
M  V30 13 2 13 14
M  V30 14 1 14 15
M  V30 15 2 15 16
M  V30 16 1 16 17
M  V30 17 2 17 18
M  V30 18 1 18 19
M  V30 19 1 19 20
M  V30 20 2 19 21
M  V30 21 1 14 22
M  V30 22 1 22 23
M  V30 23 2 23 24
M  V30 24 1 4 25
M  V30 25 2 25 26
M  V30 26 1 26 27
M  V30 27 2 27 28
M  V30 28 1 28 29
M  V30 29 1 28 30
M  V30 30 2 30 31
M  V30 31 1 24 9
M  V30 32 1 31 25
M  V30 33 2 22 11
M  V30 34 1 21 15
M  V30 35 1 1 32
M  V30 36 1 1 33
M  V30 37 1 1 34
M  V30 38 1 3 35
M  V30 39 1 3 36
M  V30 40 1 4 37 CFG=3
M  V30 41 1 5 38
M  V30 42 1 8 39
M  V30 43 1 10 40
M  V30 44 1 12 41
M  V30 45 1 16 42
M  V30 46 1 17 43
M  V30 47 1 20 44
M  V30 48 1 20 45
M  V30 49 1 20 46
M  V30 50 1 21 47
M  V30 51 1 23 48
M  V30 52 1 26 49
M  V30 53 1 27 50
M  V30 54 1 30 51
M  V30 55 1 31 52
M  V30 END BOND
M  V30 END CTAB
M  END
>  <Dataset>  (915) 
ChEMBL_Kinases

>  <Ligand_Instance>  (915) 
nan

>  <PDB_ID>  (915) 
nan

>  <Standardized_SMILES>  (915) 
COC[C@H](NC(=O)Nc1cc2[nH]nc(-c3ccnc(C)c3)c2cn1)c1ccc(F)cc1

>  <Name>  (915) 
nan

>  <Pocket>  (915) 
nan

>  <ATP_Site>  (915) 
nan

>  <Peripheral>  (915) 
nan

>  <Num_H_Atoms_ProtBoundConf>  (915) 
nan

>  <Num_Resolved_Atoms>  (915) 
nan

>  <Num_Not_Resolved_Atoms>  (915) 
nan

$$$$
CHEMBL3658690
     RDKit          3D

  0  0  0  0  0  0  0  0  0  0999 V3000
M  V30 BEGIN CTAB
M  V30 COUNTS 48 51 0 0 0
M  V30 BEGIN ATOM
M  V30 1 C 1.648208 -5.339856 4.128060 0
M  V30 2 N 2.625979 -5.420959 3.061013 0
M  V30 3 C 2.024521 -5.650920 1.776217 0
M  V30 4 C 2.184476 -4.400518 0.946791 0
M  V30 5 C 2.802224 -3.377609 1.875440 0 CFG=2
M  V30 6 C 3.900924 -2.591069 1.176723 0
M  V30 7 N 3.375265 -1.884922 0.022692 0
M  V30 8 C 2.343813 -0.914697 0.149604 0
M  V30 9 O 1.856344 -0.643576 1.288420 0
M  V30 10 N 1.885899 -0.268070 -1.036843 0
M  V30 11 C 0.846890 0.696557 -0.835932 0
M  V30 12 C 1.036023 2.051943 -0.581625 0
M  V30 13 C -0.066823 2.869988 -0.407447 0
M  V30 14 N -0.152859 4.192152 -0.154782 0
M  V30 15 N -1.440808 4.489915 -0.076318 0
M  V30 16 C -2.210949 3.396804 -0.270911 0
M  V30 17 C -3.660856 3.339937 -0.257087 0
M  V30 18 C -4.376524 2.367634 0.391842 0
M  V30 19 C -5.748453 2.290812 0.420527 0
M  V30 20 C -6.494647 3.245415 -0.241472 0
M  V30 21 F -7.839905 3.170882 -0.213887 0
M  V30 22 C -5.811393 4.247753 -0.911381 0
M  V30 23 C -4.422067 4.289748 -0.916081 0
M  V30 24 C -1.345340 2.335783 -0.487211 0
M  V30 25 C -1.511848 0.988040 -0.740452 0
M  V30 26 N -0.410602 0.217006 -0.905670 0
M  V30 27 C 3.426938 -4.224408 2.954979 0
M  V30 28 H 1.844973 -6.108179 4.915043 0
M  V30 29 H 1.684209 -4.340088 4.613573 0
M  V30 30 H 0.619102 -5.542996 3.743951 0
M  V30 31 H 2.507983 -6.509368 1.242145 0
M  V30 32 H 0.947671 -5.922627 1.872882 0
M  V30 33 H 2.864712 -4.555161 0.102395 0
M  V30 34 H 1.207994 -4.025699 0.552524 0
M  V30 35 H 2.024262 -2.743607 2.302112 0
M  V30 36 H 4.701965 -3.259696 0.879926 0
M  V30 37 H 4.210089 -1.799395 1.903836 0
M  V30 38 H 3.767612 -2.096647 -0.931362 0
M  V30 39 H 2.315849 -0.519077 -1.972945 0
M  V30 40 H 2.053537 2.381597 -0.536286 0
M  V30 41 H 0.652832 4.856238 -0.042306 0
M  V30 42 H -3.861573 1.587529 0.931215 0
M  V30 43 H -6.280524 1.496759 0.951396 0
M  V30 44 H -6.427198 4.975068 -1.416575 0
M  V30 45 H -3.954619 5.117745 -1.471140 0
M  V30 46 H -2.513872 0.581414 -0.800685 0
M  V30 47 H 3.481902 -3.673790 3.915639 0
M  V30 48 H 4.432689 -4.541001 2.584180 0
M  V30 END ATOM
M  V30 BEGIN BOND
M  V30 1 1 1 2
M  V30 2 1 2 3
M  V30 3 1 3 4
M  V30 4 1 4 5
M  V30 5 1 5 6
M  V30 6 1 6 7
M  V30 7 1 7 8
M  V30 8 2 8 9
M  V30 9 1 8 10
M  V30 10 1 10 11
M  V30 11 2 11 12
M  V30 12 1 12 13
M  V30 13 1 13 14
M  V30 14 1 14 15
M  V30 15 2 15 16
M  V30 16 1 16 17
M  V30 17 2 17 18
M  V30 18 1 18 19
M  V30 19 2 19 20
M  V30 20 1 20 21
M  V30 21 1 20 22
M  V30 22 2 22 23
M  V30 23 1 16 24
M  V30 24 1 24 25
M  V30 25 2 25 26
M  V30 26 1 5 27
M  V30 27 1 27 2
M  V30 28 1 26 11
M  V30 29 2 24 13
M  V30 30 1 23 17
M  V30 31 1 1 28
M  V30 32 1 1 29
M  V30 33 1 1 30
M  V30 34 1 3 31
M  V30 35 1 3 32
M  V30 36 1 4 33
M  V30 37 1 4 34
M  V30 38 1 5 35 CFG=1
M  V30 39 1 6 36
M  V30 40 1 6 37
M  V30 41 1 7 38
M  V30 42 1 10 39
M  V30 43 1 12 40
M  V30 44 1 14 41
M  V30 45 1 18 42
M  V30 46 1 19 43
M  V30 47 1 22 44
M  V30 48 1 23 45
M  V30 49 1 25 46
M  V30 50 1 27 47
M  V30 51 1 27 48
M  V30 END BOND
M  V30 END CTAB
M  END
>  <Dataset>  (916) 
ChEMBL_Kinases

>  <Ligand_Instance>  (916) 
nan

>  <PDB_ID>  (916) 
nan

>  <Standardized_SMILES>  (916) 
CN1CC[C@H](CNC(=O)Nc2cc3[nH]nc(-c4ccc(F)cc4)c3cn2)C1

>  <Name>  (916) 
nan

>  <Pocket>  (916) 
nan

>  <ATP_Site>  (916) 
nan

>  <Peripheral>  (916) 
nan

>  <Num_H_Atoms_ProtBoundConf>  (916) 
nan

>  <Num_Resolved_Atoms>  (916) 
nan

>  <Num_Not_Resolved_Atoms>  (916) 
nan

$$$$
CHEMBL3658689
     RDKit          3D

  0  0  0  0  0  0  0  0  0  0999 V3000
M  V30 BEGIN CTAB
M  V30 COUNTS 48 51 0 0 0
M  V30 BEGIN ATOM
M  V30 1 C 3.452124 -5.290757 4.817645 0
M  V30 2 N 2.166678 -4.824086 4.333894 0
M  V30 3 C 1.818584 -3.522024 4.827022 0
M  V30 4 C 2.449343 -2.595343 3.810536 0
M  V30 5 C 2.145289 -3.300037 2.535189 0 CFG=1
M  V30 6 C 3.159733 -3.064548 1.450999 0
M  V30 7 N 3.293737 -1.686633 1.089639 0
M  V30 8 C 2.092011 -1.057694 0.592915 0
M  V30 9 O 0.982471 -1.605312 0.458980 0
M  V30 10 N 2.141026 0.331692 0.206000 0
M  V30 11 C 0.957938 0.993257 -0.295147 0
M  V30 12 C 0.995555 2.336770 -0.671900 0
M  V30 13 C -0.168758 2.907304 -1.141925 0
M  V30 14 N -0.500620 4.133112 -1.581853 0
M  V30 15 N -1.786156 4.158810 -1.926926 0
M  V30 16 C -2.342441 2.945117 -1.723779 0
M  V30 17 C -3.737728 2.669818 -2.011053 0
M  V30 18 C -4.476810 1.959049 -1.071481 0
M  V30 19 C -5.812039 1.661751 -1.280983 0
M  V30 20 C -6.457357 2.058655 -2.426912 0
M  V30 21 F -7.771439 1.786864 -2.673256 0
M  V30 22 C -5.725501 2.763019 -3.358350 0
M  V30 23 C -4.388070 3.067103 -3.160667 0
M  V30 24 C -1.328409 2.159328 -1.231287 0
M  V30 25 C -1.352995 0.834715 -0.856552 0
M  V30 26 N -0.189493 0.299670 -0.396952 0
M  V30 27 C 2.205880 -4.784946 2.904151 0
M  V30 28 H 4.069289 -5.669180 3.984567 0
M  V30 29 H 3.318806 -6.051607 5.619746 0
M  V30 30 H 4.026223 -4.446750 5.286886 0
M  V30 31 H 0.713762 -3.390102 4.706912 0
M  V30 32 H 2.148519 -3.363279 5.853909 0
M  V30 33 H 1.898281 -1.637814 3.862411 0
M  V30 34 H 3.526885 -2.415287 3.983691 0
M  V30 35 H 1.113537 -3.099426 2.252053 0
M  V30 36 H 4.147162 -3.390690 1.843387 0
M  V30 37 H 2.951676 -3.738729 0.595920 0
M  V30 38 H 4.162289 -1.093395 1.147101 0
M  V30 39 H 3.010351 0.887930 0.274338 0
M  V30 40 H 1.908302 2.900426 -0.594355 0
M  V30 41 H 0.197425 4.927522 -1.627102 0
M  V30 42 H -4.099279 1.593567 -0.143509 0
M  V30 43 H -6.415075 1.111876 -0.572448 0
M  V30 44 H -6.202760 3.096388 -4.282826 0
M  V30 45 H -3.816576 3.622786 -3.898924 0
M  V30 46 H -2.262315 0.247071 -0.926293 0
M  V30 47 H 3.149840 -5.253752 2.498165 0
M  V30 48 H 1.375128 -5.339423 2.413153 0
M  V30 END ATOM
M  V30 BEGIN BOND
M  V30 1 1 1 2
M  V30 2 1 2 3
M  V30 3 1 3 4
M  V30 4 1 4 5
M  V30 5 1 5 6
M  V30 6 1 6 7
M  V30 7 1 7 8
M  V30 8 2 8 9
M  V30 9 1 8 10
M  V30 10 1 10 11
M  V30 11 2 11 12
M  V30 12 1 12 13
M  V30 13 1 13 14
M  V30 14 1 14 15
M  V30 15 2 15 16
M  V30 16 1 16 17
M  V30 17 2 17 18
M  V30 18 1 18 19
M  V30 19 2 19 20
M  V30 20 1 20 21
M  V30 21 1 20 22
M  V30 22 2 22 23
M  V30 23 1 16 24
M  V30 24 1 24 25
M  V30 25 2 25 26
M  V30 26 1 5 27
M  V30 27 1 27 2
M  V30 28 1 26 11
M  V30 29 2 24 13
M  V30 30 1 23 17
M  V30 31 1 1 28
M  V30 32 1 1 29
M  V30 33 1 1 30
M  V30 34 1 3 31
M  V30 35 1 3 32
M  V30 36 1 4 33
M  V30 37 1 4 34
M  V30 38 1 5 35 CFG=3
M  V30 39 1 6 36
M  V30 40 1 6 37
M  V30 41 1 7 38
M  V30 42 1 10 39
M  V30 43 1 12 40
M  V30 44 1 14 41
M  V30 45 1 18 42
M  V30 46 1 19 43
M  V30 47 1 22 44
M  V30 48 1 23 45
M  V30 49 1 25 46
M  V30 50 1 27 47
M  V30 51 1 27 48
M  V30 END BOND
M  V30 END CTAB
M  END
>  <Dataset>  (917) 
ChEMBL_Kinases

>  <Ligand_Instance>  (917) 
nan

>  <PDB_ID>  (917) 
nan

>  <Standardized_SMILES>  (917) 
CN1CC[C@@H](CNC(=O)Nc2cc3[nH]nc(-c4ccc(F)cc4)c3cn2)C1

>  <Name>  (917) 
nan

>  <Pocket>  (917) 
nan

>  <ATP_Site>  (917) 
nan

>  <Peripheral>  (917) 
nan

>  <Num_H_Atoms_ProtBoundConf>  (917) 
nan

>  <Num_Resolved_Atoms>  (917) 
nan

>  <Num_Not_Resolved_Atoms>  (917) 
nan

$$$$
CHEMBL3658688
     RDKit          3D

  0  0  0  0  0  0  0  0  0  0999 V3000
M  V30 BEGIN CTAB
M  V30 COUNTS 52 55 0 0 0
M  V30 BEGIN ATOM
M  V30 1 C 3.223046 3.112417 -3.614625 0
M  V30 2 C 2.518950 1.878336 -3.095472 0
M  V30 3 O 3.216011 1.152533 -2.181173 0
M  V30 4 C 3.593656 1.719340 -1.020770 0 CFG=2
M  V30 5 C 5.104080 1.689746 -0.845310 0
M  V30 6 N 5.376134 1.532517 0.552566 0
M  V30 7 C 6.080649 0.301666 0.848780 0
M  V30 8 C 4.107576 1.615851 1.251867 0
M  V30 9 C 3.149093 1.024908 0.235189 0 CFG=1
M  V30 10 N 1.766949 1.318981 0.555982 0
M  V30 11 C 0.776910 0.344921 0.821931 0
M  V30 12 O 1.067691 -0.879141 0.789935 0
M  V30 13 N -0.544192 0.762356 1.124365 0
M  V30 14 C -1.593461 -0.168344 1.403079 0
M  V30 15 C -2.867551 0.301478 1.692670 0
M  V30 16 C -3.814816 -0.673060 1.948367 0
M  V30 17 N -5.135104 -0.587694 2.260700 0
M  V30 18 N -5.656971 -1.796515 2.422063 0
M  V30 19 C -4.695104 -2.738184 2.221351 0
M  V30 20 C -4.879669 -4.184685 2.309506 0
M  V30 21 C -4.042466 -5.074354 2.945062 0
M  V30 22 C -4.360983 -6.417220 2.936889 0
M  V30 23 C -5.497038 -6.897548 2.308956 0
M  V30 24 F -5.819447 -8.196825 2.292354 0
M  V30 25 C -6.327117 -5.987110 1.674869 0
M  V30 26 C -6.026943 -4.647861 1.672330 0
M  V30 27 C -3.548566 -2.029440 1.926237 0
M  V30 28 C -2.264738 -2.426922 1.632117 0
M  V30 29 N -1.305937 -1.490996 1.374849 0
M  V30 30 H 2.462218 3.883553 -3.920733 0
M  V30 31 H 3.931897 3.508570 -2.863239 0
M  V30 32 H 3.780111 2.896387 -4.559682 0
M  V30 33 H 2.372002 1.228393 -3.988184 0
M  V30 34 H 1.504070 2.181627 -2.791697 0
M  V30 35 H 3.281642 2.776411 -0.922787 0
M  V30 36 H 5.535783 2.632480 -1.192340 0
M  V30 37 H 5.522387 0.828347 -1.441441 0
M  V30 38 H 5.862165 -0.079264 1.866281 0
M  V30 39 H 5.812337 -0.526215 0.152466 0
M  V30 40 H 7.188139 0.415823 0.790810 0
M  V30 41 H 3.864963 2.674752 1.427988 0
M  V30 42 H 4.099189 1.002923 2.176641 0
M  V30 43 H 3.359160 -0.065610 0.218511 0
M  V30 44 H 1.547331 2.340696 0.577189 0
M  V30 45 H -0.740331 1.787642 1.139856 0
M  V30 46 H -3.117819 1.336751 1.720783 0
M  V30 47 H -5.666552 0.306900 2.360177 0
M  V30 48 H -3.166211 -4.647212 3.421523 0
M  V30 49 H -3.699178 -7.108711 3.437652 0
M  V30 50 H -7.229485 -6.351914 1.173775 0
M  V30 51 H -6.728819 -3.987278 1.151358 0
M  V30 52 H -2.011298 -3.490745 1.604119 0
M  V30 END ATOM
M  V30 BEGIN BOND
M  V30 1 1 1 2
M  V30 2 1 2 3
M  V30 3 1 3 4
M  V30 4 1 4 5
M  V30 5 1 5 6
M  V30 6 1 6 7
M  V30 7 1 6 8
M  V30 8 1 8 9
M  V30 9 1 9 10
M  V30 10 1 10 11
M  V30 11 2 11 12
M  V30 12 1 11 13
M  V30 13 1 13 14
M  V30 14 2 14 15
M  V30 15 1 15 16
M  V30 16 1 16 17
M  V30 17 1 17 18
M  V30 18 2 18 19
M  V30 19 1 19 20
M  V30 20 2 20 21
M  V30 21 1 21 22
M  V30 22 2 22 23
M  V30 23 1 23 24
M  V30 24 1 23 25
M  V30 25 2 25 26
M  V30 26 1 19 27
M  V30 27 1 27 28
M  V30 28 2 28 29
M  V30 29 1 9 4
M  V30 30 1 29 14
M  V30 31 2 27 16
M  V30 32 1 26 20
M  V30 33 1 1 30
M  V30 34 1 1 31
M  V30 35 1 1 32
M  V30 36 1 2 33
M  V30 37 1 2 34
M  V30 38 1 4 35 CFG=1
M  V30 39 1 5 36
M  V30 40 1 5 37
M  V30 41 1 7 38
M  V30 42 1 7 39
M  V30 43 1 7 40
M  V30 44 1 8 41
M  V30 45 1 8 42
M  V30 46 1 9 43 CFG=3
M  V30 47 1 10 44
M  V30 48 1 13 45
M  V30 49 1 15 46
M  V30 50 1 17 47
M  V30 51 1 21 48
M  V30 52 1 22 49
M  V30 53 1 25 50
M  V30 54 1 26 51
M  V30 55 1 28 52
M  V30 END BOND
M  V30 END CTAB
M  END
>  <Dataset>  (918) 
ChEMBL_Kinases

>  <Ligand_Instance>  (918) 
nan

>  <PDB_ID>  (918) 
nan

>  <Standardized_SMILES>  (918) 
CCO[C@@H]1CN(C)C[C@H]1NC(=O)Nc1cc2[nH]nc(-c3ccc(F)cc3)c2cn1

>  <Name>  (918) 
nan

>  <Pocket>  (918) 
nan

>  <ATP_Site>  (918) 
nan

>  <Peripheral>  (918) 
nan

>  <Num_H_Atoms_ProtBoundConf>  (918) 
nan

>  <Num_Resolved_Atoms>  (918) 
nan

>  <Num_Not_Resolved_Atoms>  (918) 
nan

$$$$
CHEMBL3658687
     RDKit          3D

  0  0  0  0  0  0  0  0  0  0999 V3000
M  V30 BEGIN CTAB
M  V30 COUNTS 52 55 0 0 0
M  V30 BEGIN ATOM
M  V30 1 C 5.615765 -1.745795 1.705732 0
M  V30 2 C 4.614585 -2.031515 0.606552 0
M  V30 3 O 4.670061 -0.968010 -0.282832 0
M  V30 4 C 4.362693 0.242188 0.276155 0 CFG=1
M  V30 5 C 5.515250 1.200464 0.240979 0
M  V30 6 N 5.070915 2.350999 -0.526712 0
M  V30 7 C 5.634482 2.285880 -1.846633 0
M  V30 8 C 3.640045 2.348468 -0.485074 0
M  V30 9 C 3.172117 0.924221 -0.279539 0 CFG=2
M  V30 10 N 2.045363 0.953907 0.656633 0
M  V30 11 C 0.766027 0.479939 0.365274 0
M  V30 12 O 0.485243 -0.018462 -0.749747 0
M  V30 13 N -0.192397 0.597767 1.407372 0
M  V30 14 C -1.532245 0.145887 1.224898 0
M  V30 15 C -2.600158 0.875725 0.742918 0
M  V30 16 C -3.826599 0.249456 0.642167 0
M  V30 17 N -5.018021 0.737246 0.205218 0
M  V30 18 N -5.893414 -0.275515 0.308086 0
M  V30 19 C -5.291426 -1.377411 0.793395 0
M  V30 20 C -5.965902 -2.650908 1.025203 0
M  V30 21 C -5.796416 -3.382929 2.164725 0
M  V30 22 C -6.421886 -4.593565 2.411772 0
M  V30 23 C -7.277489 -5.088315 1.428068 0
M  V30 24 F -7.851912 -6.279317 1.744221 0
M  V30 25 C -7.458942 -4.358303 0.269284 0
M  V30 26 C -6.821375 -3.164255 0.062986 0
M  V30 27 C -3.964833 -1.071626 1.017488 0
M  V30 28 C -2.900971 -1.774325 1.490054 0
M  V30 29 N -1.710780 -1.152175 1.583334 0
M  V30 30 H 5.176551 -1.223530 2.580302 0
M  V30 31 H 6.411603 -1.102002 1.298935 0
M  V30 32 H 6.138291 -2.688976 2.014943 0
M  V30 33 H 4.865985 -2.990796 0.160351 0
M  V30 34 H 3.602588 -2.033400 1.100819 0
M  V30 35 H 4.135742 0.035733 1.363785 0
M  V30 36 H 5.833120 1.514213 1.254303 0
M  V30 37 H 6.412893 0.733504 -0.251216 0
M  V30 38 H 6.727259 2.120600 -1.740211 0
M  V30 39 H 5.259464 1.414298 -2.434071 0
M  V30 40 H 5.395892 3.186987 -2.427736 0
M  V30 41 H 3.178818 2.728197 -1.420215 0
M  V30 42 H 3.289332 2.975988 0.375389 0
M  V30 43 H 2.764329 0.469640 -1.199925 0
M  V30 44 H 2.305847 1.378819 1.592403 0
M  V30 45 H -0.074917 0.988944 2.360163 0
M  V30 46 H -2.388442 1.884606 0.481975 0
M  V30 47 H -5.188178 1.708243 -0.135821 0
M  V30 48 H -5.124006 -2.996835 2.941273 0
M  V30 49 H -6.216442 -5.098703 3.358616 0
M  V30 50 H -8.153578 -4.871131 -0.402160 0
M  V30 51 H -7.026858 -2.667299 -0.873599 0
M  V30 52 H -3.028735 -2.823363 1.783406 0
M  V30 END ATOM
M  V30 BEGIN BOND
M  V30 1 1 1 2
M  V30 2 1 2 3
M  V30 3 1 3 4
M  V30 4 1 4 5
M  V30 5 1 5 6
M  V30 6 1 6 7
M  V30 7 1 6 8
M  V30 8 1 8 9
M  V30 9 1 9 10
M  V30 10 1 10 11
M  V30 11 2 11 12
M  V30 12 1 11 13
M  V30 13 1 13 14
M  V30 14 2 14 15
M  V30 15 1 15 16
M  V30 16 1 16 17
M  V30 17 1 17 18
M  V30 18 2 18 19
M  V30 19 1 19 20
M  V30 20 2 20 21
M  V30 21 1 21 22
M  V30 22 2 22 23
M  V30 23 1 23 24
M  V30 24 1 23 25
M  V30 25 2 25 26
M  V30 26 1 19 27
M  V30 27 1 27 28
M  V30 28 2 28 29
M  V30 29 1 9 4
M  V30 30 1 29 14
M  V30 31 2 27 16
M  V30 32 1 26 20
M  V30 33 1 1 30
M  V30 34 1 1 31
M  V30 35 1 1 32
M  V30 36 1 2 33
M  V30 37 1 2 34
M  V30 38 1 4 35 CFG=1
M  V30 39 1 5 36
M  V30 40 1 5 37
M  V30 41 1 7 38
M  V30 42 1 7 39
M  V30 43 1 7 40
M  V30 44 1 8 41
M  V30 45 1 8 42
M  V30 46 1 9 43 CFG=3
M  V30 47 1 10 44
M  V30 48 1 13 45
M  V30 49 1 15 46
M  V30 50 1 17 47
M  V30 51 1 21 48
M  V30 52 1 22 49
M  V30 53 1 25 50
M  V30 54 1 26 51
M  V30 55 1 28 52
M  V30 END BOND
M  V30 END CTAB
M  END
>  <Dataset>  (919) 
ChEMBL_Kinases

>  <Ligand_Instance>  (919) 
nan

>  <PDB_ID>  (919) 
nan

>  <Standardized_SMILES>  (919) 
CCO[C@H]1CN(C)C[C@@H]1NC(=O)Nc1cc2[nH]nc(-c3ccc(F)cc3)c2cn1

>  <Name>  (919) 
nan

>  <Pocket>  (919) 
nan

>  <ATP_Site>  (919) 
nan

>  <Peripheral>  (919) 
nan

>  <Num_H_Atoms_ProtBoundConf>  (919) 
nan

>  <Num_Resolved_Atoms>  (919) 
nan

>  <Num_Not_Resolved_Atoms>  (919) 
nan

$$$$
CHEMBL3658686
     RDKit          3D

  0  0  0  0  0  0  0  0  0  0999 V3000
M  V30 BEGIN CTAB
M  V30 COUNTS 49 52 0 0 0
M  V30 BEGIN ATOM
M  V30 1 C 2.463532 -2.556567 6.001643 0
M  V30 2 O 3.348102 -1.683759 5.354992 0
M  V30 3 C 3.275172 -1.839791 3.987911 0 CFG=2
M  V30 4 C 4.618024 -2.250041 3.423519 0
M  V30 5 N 5.362281 -1.032706 3.359163 0
M  V30 6 C 6.336997 -0.965418 2.311374 0
M  V30 7 C 4.427992 0.059745 3.300676 0
M  V30 8 C 3.041549 -0.535771 3.254736 0 CFG=1
M  V30 9 N 2.624018 -0.848021 1.885226 0
M  V30 10 C 1.399278 -0.334119 1.427097 0
M  V30 11 O 0.598181 0.374733 2.055117 0
M  V30 12 N 1.034316 -0.667461 0.079738 0
M  V30 13 C -0.159565 -0.257105 -0.591863 0
M  V30 14 C -0.330111 0.888745 -1.343980 0
M  V30 15 C -1.570383 1.108878 -1.917228 0
M  V30 16 N -1.967252 2.139306 -2.679834 0
M  V30 17 N -3.230080 1.880502 -2.971895 0
M  V30 18 C -3.648906 0.726256 -2.424113 0
M  V30 19 C -4.975353 0.136415 -2.538862 0
M  V30 20 C -6.004324 1.037965 -2.357992 0
M  V30 21 C -7.324480 0.583885 -2.445860 0
M  V30 22 C -7.550963 -0.753136 -2.711033 0
M  V30 23 F -8.805138 -1.293335 -2.816038 0
M  V30 24 C -6.526644 -1.684755 -2.897863 0
M  V30 25 C -5.240549 -1.177034 -2.799264 0
M  V30 26 C -2.581879 0.190586 -1.722164 0
M  V30 27 C -2.398315 -0.947284 -0.970242 0
M  V30 28 N -1.171126 -1.137642 -0.419592 0
M  V30 29 H 2.583980 -2.367980 7.089221 0
M  V30 30 H 2.697348 -3.604683 5.775005 0
M  V30 31 H 1.405889 -2.313851 5.767778 0
M  V30 32 H 2.532125 -2.619328 3.740829 0
M  V30 33 H 5.103494 -3.038624 4.032673 0
M  V30 34 H 4.465891 -2.663495 2.395505 0
M  V30 35 H 7.353942 -1.099998 2.740955 0
M  V30 36 H 6.193522 -1.827173 1.624366 0
M  V30 37 H 6.354066 -0.011396 1.772738 0
M  V30 38 H 4.488181 0.594746 4.278783 0
M  V30 39 H 4.619395 0.749829 2.456902 0
M  V30 40 H 2.291335 0.099960 3.762984 0
M  V30 41 H 3.256670 -1.440959 1.305894 0
M  V30 42 H 1.607087 -1.259744 -0.582100 0
M  V30 43 H 0.536724 1.529250 -1.422737 0
M  V30 44 H -1.399703 2.964825 -2.976544 0
M  V30 45 H -5.977398 2.102880 -2.146537 0
M  V30 46 H -8.233478 1.153271 -2.330998 0
M  V30 47 H -6.718534 -2.727062 -3.104525 0
M  V30 48 H -4.400605 -1.841807 -2.932542 0
M  V30 49 H -3.211406 -1.649184 -0.835418 0
M  V30 END ATOM
M  V30 BEGIN BOND
M  V30 1 1 1 2
M  V30 2 1 2 3
M  V30 3 1 3 4
M  V30 4 1 4 5
M  V30 5 1 5 6
M  V30 6 1 5 7
M  V30 7 1 7 8
M  V30 8 1 8 9
M  V30 9 1 9 10
M  V30 10 2 10 11
M  V30 11 1 10 12
M  V30 12 1 12 13
M  V30 13 2 13 14
M  V30 14 1 14 15
M  V30 15 1 15 16
M  V30 16 1 16 17
M  V30 17 2 17 18
M  V30 18 1 18 19
M  V30 19 2 19 20
M  V30 20 1 20 21
M  V30 21 2 21 22
M  V30 22 1 22 23
M  V30 23 1 22 24
M  V30 24 2 24 25
M  V30 25 1 18 26
M  V30 26 1 26 27
M  V30 27 2 27 28
M  V30 28 1 8 3
M  V30 29 1 28 13
M  V30 30 2 26 15
M  V30 31 1 25 19
M  V30 32 1 1 29
M  V30 33 1 1 30
M  V30 34 1 1 31
M  V30 35 1 3 32 CFG=1
M  V30 36 1 4 33
M  V30 37 1 4 34
M  V30 38 1 6 35
M  V30 39 1 6 36
M  V30 40 1 6 37
M  V30 41 1 7 38
M  V30 42 1 7 39
M  V30 43 1 8 40 CFG=1
M  V30 44 1 9 41
M  V30 45 1 12 42
M  V30 46 1 14 43
M  V30 47 1 16 44
M  V30 48 1 20 45
M  V30 49 1 21 46
M  V30 50 1 24 47
M  V30 51 1 25 48
M  V30 52 1 27 49
M  V30 END BOND
M  V30 END CTAB
M  END
>  <Dataset>  (920) 
ChEMBL_Kinases

>  <Ligand_Instance>  (920) 
nan

>  <PDB_ID>  (920) 
nan

>  <Standardized_SMILES>  (920) 
CO[C@@H]1CN(C)C[C@H]1NC(=O)Nc1cc2[nH]nc(-c3ccc(F)cc3)c2cn1

>  <Name>  (920) 
nan

>  <Pocket>  (920) 
nan

>  <ATP_Site>  (920) 
nan

>  <Peripheral>  (920) 
nan

>  <Num_H_Atoms_ProtBoundConf>  (920) 
nan

>  <Num_Resolved_Atoms>  (920) 
nan

>  <Num_Not_Resolved_Atoms>  (920) 
nan

$$$$
CHEMBL3658685
     RDKit          3D

  0  0  0  0  0  0  0  0  0  0999 V3000
M  V30 BEGIN CTAB
M  V30 COUNTS 49 52 0 0 0
M  V30 BEGIN ATOM
M  V30 1 C 3.797557 2.916433 0.863475 0
M  V30 2 O 3.338266 2.269551 1.982279 0
M  V30 3 C 4.107688 1.193688 2.381747 0 CFG=1
M  V30 4 C 4.561670 1.318420 3.833526 0
M  V30 5 N 4.673055 -0.030206 4.339667 0
M  V30 6 C 6.044530 -0.290308 4.703211 0
M  V30 7 C 4.158551 -0.931306 3.329102 0
M  V30 8 C 3.277353 -0.065260 2.507763 0 CFG=2
M  V30 9 N 2.874778 -0.592780 1.234444 0
M  V30 10 C 1.503233 -0.705178 0.852751 0
M  V30 11 O 0.687658 -0.300286 1.733480 0
M  V30 12 N 1.164705 -1.235939 -0.422614 0
M  V30 13 C -0.244206 -1.289711 -0.669927 0
M  V30 14 C -0.822115 -0.178905 -1.261763 0
M  V30 15 C -2.182076 -0.228730 -1.501387 0
M  V30 16 N -3.027222 0.687671 -2.060408 0
M  V30 17 N -4.257832 0.197286 -2.084492 0
M  V30 18 C -4.292836 -1.039823 -1.555689 0
M  V30 19 C -5.432173 -1.936581 -1.386338 0
M  V30 20 C -6.313435 -2.086556 -2.445323 0
M  V30 21 C -7.414835 -2.939528 -2.312138 0
M  V30 22 C -7.651982 -3.647482 -1.135895 0
M  V30 23 F -8.728494 -4.475207 -1.018795 0
M  V30 24 C -6.758760 -3.478667 -0.099319 0
M  V30 25 C -5.671768 -2.638854 -0.226385 0
M  V30 26 C -2.990700 -1.314779 -1.186565 0
M  V30 27 C -2.339657 -2.383995 -0.598686 0
M  V30 28 N -1.014925 -2.359331 -0.354936 0
M  V30 29 H 3.115909 3.779076 0.604802 0
M  V30 30 H 3.747527 2.230964 -0.016262 0
M  V30 31 H 4.841076 3.290028 0.926416 0
M  V30 32 H 4.987141 1.011664 1.735301 0
M  V30 33 H 5.480242 1.892460 3.942543 0
M  V30 34 H 3.671992 1.769456 4.359161 0
M  V30 35 H 6.151098 -0.798003 5.687499 0
M  V30 36 H 6.614127 0.679326 4.739329 0
M  V30 37 H 6.570141 -0.948193 3.956244 0
M  V30 38 H 3.517702 -1.670158 3.870448 0
M  V30 39 H 4.942946 -1.425970 2.741965 0
M  V30 40 H 2.368374 0.218523 3.096749 0
M  V30 41 H 3.638332 -0.905464 0.565726 0
M  V30 42 H 1.956253 -1.528977 -1.042749 0
M  V30 43 H -0.226994 0.686794 -1.522208 0
M  V30 44 H -2.688553 1.615376 -2.396939 0
M  V30 45 H -6.145720 -1.546770 -3.362795 0
M  V30 46 H -8.097264 -3.045575 -3.154278 0
M  V30 47 H -6.977756 -4.045510 0.796638 0
M  V30 48 H -5.004267 -2.539575 0.607048 0
M  V30 49 H -2.915436 -3.260560 -0.329821 0
M  V30 END ATOM
M  V30 BEGIN BOND
M  V30 1 1 1 2
M  V30 2 1 2 3
M  V30 3 1 3 4
M  V30 4 1 4 5
M  V30 5 1 5 6
M  V30 6 1 5 7
M  V30 7 1 7 8
M  V30 8 1 8 9
M  V30 9 1 9 10
M  V30 10 2 10 11
M  V30 11 1 10 12
M  V30 12 1 12 13
M  V30 13 2 13 14
M  V30 14 1 14 15
M  V30 15 1 15 16
M  V30 16 1 16 17
M  V30 17 2 17 18
M  V30 18 1 18 19
M  V30 19 2 19 20
M  V30 20 1 20 21
M  V30 21 2 21 22
M  V30 22 1 22 23
M  V30 23 1 22 24
M  V30 24 2 24 25
M  V30 25 1 18 26
M  V30 26 1 26 27
M  V30 27 2 27 28
M  V30 28 1 8 3
M  V30 29 1 28 13
M  V30 30 2 26 15
M  V30 31 1 25 19
M  V30 32 1 1 29
M  V30 33 1 1 30
M  V30 34 1 1 31
M  V30 35 1 3 32 CFG=3
M  V30 36 1 4 33
M  V30 37 1 4 34
M  V30 38 1 6 35
M  V30 39 1 6 36
M  V30 40 1 6 37
M  V30 41 1 7 38
M  V30 42 1 7 39
M  V30 43 1 8 40 CFG=1
M  V30 44 1 9 41
M  V30 45 1 12 42
M  V30 46 1 14 43
M  V30 47 1 16 44
M  V30 48 1 20 45
M  V30 49 1 21 46
M  V30 50 1 24 47
M  V30 51 1 25 48
M  V30 52 1 27 49
M  V30 END BOND
M  V30 END CTAB
M  END
>  <Dataset>  (921) 
ChEMBL_Kinases

>  <Ligand_Instance>  (921) 
nan

>  <PDB_ID>  (921) 
nan

>  <Standardized_SMILES>  (921) 
CO[C@H]1CN(C)C[C@@H]1NC(=O)Nc1cc2[nH]nc(-c3ccc(F)cc3)c2cn1

>  <Name>  (921) 
nan

>  <Pocket>  (921) 
nan

>  <ATP_Site>  (921) 
nan

>  <Peripheral>  (921) 
nan

>  <Num_H_Atoms_ProtBoundConf>  (921) 
nan

>  <Num_Resolved_Atoms>  (921) 
nan

>  <Num_Not_Resolved_Atoms>  (921) 
nan

$$$$
CHEMBL3654696
     RDKit          3D

  0  0  0  0  0  0  0  0  0  0999 V3000
M  V30 BEGIN CTAB
M  V30 COUNTS 51 55 0 0 0
M  V30 BEGIN ATOM
M  V30 1 C 1.464895 -5.459346 6.791839 0
M  V30 2 C 1.740893 -5.304751 5.337044 0
M  V30 3 C 2.320484 -4.180816 4.790016 0
M  V30 4 C 2.562114 -4.072113 3.435004 0
M  V30 5 C 3.177903 -2.878819 2.853952 0
M  V30 6 N 4.268326 -2.218965 3.345026 0
M  V30 7 N 4.547780 -1.182532 2.565133 0
M  V30 8 C 3.628541 -1.194236 1.582534 0
M  V30 9 C 3.522054 -0.299326 0.533802 0
M  V30 10 C 2.491021 -0.510167 -0.361167 0
M  V30 11 N 2.152757 0.255616 -1.524029 0
M  V30 12 C 1.228201 1.349849 -1.356385 0
M  V30 13 O 0.773003 1.571753 -0.209437 0
M  V30 14 N 0.859189 2.134062 -2.456867 0
M  V30 15 C -0.057678 3.257016 -2.420507 0
M  V30 16 C -1.473609 2.872390 -2.330187 0
M  V30 17 C -2.217134 2.664639 -3.487517 0
M  V30 18 C -3.557116 2.300970 -3.481012 0
M  V30 19 C -4.199049 2.132878 -2.273169 0
M  V30 20 C -5.526275 1.772798 -2.166082 0
M  V30 21 C -6.141825 1.611603 -0.938275 0
M  V30 22 C -5.442891 1.807343 0.237319 0
M  V30 23 C -4.111685 2.168680 0.149549 0
M  V30 24 C -3.512226 2.325319 -1.103166 0
M  V30 25 C -2.184105 2.685596 -1.162660 0
M  V30 26 N 1.627822 -1.542539 -0.217427 0
M  V30 27 C 1.712124 -2.426401 0.795980 0
M  V30 28 C 2.735610 -2.241020 1.709321 0
M  V30 29 C 2.182146 -5.164637 2.680146 0
M  V30 30 C 1.603533 -6.286166 3.227340 0
M  V30 31 N 1.380938 -6.362331 4.550748 0
M  V30 32 H 0.648640 -6.169493 6.980708 0
M  V30 33 H 1.105380 -4.460103 7.161922 0
M  V30 34 H 2.394406 -5.674827 7.321735 0
M  V30 35 H 2.583536 -3.374119 5.468137 0
M  V30 36 H 5.330054 -0.501067 2.699914 0
M  V30 37 H 4.135945 0.559487 0.301591 0
M  V30 38 H 2.548852 0.049529 -2.476724 0
M  V30 39 H 1.288041 1.883131 -3.396185 0
M  V30 40 H 0.048369 3.902598 -3.315490 0
M  V30 41 H 0.202507 3.900379 -1.549471 0
M  V30 42 H -1.790507 2.775567 -4.478943 0
M  V30 43 H -4.110944 2.145859 -4.399054 0
M  V30 44 H -6.099496 1.612390 -3.069039 0
M  V30 45 H -7.191712 1.326536 -0.836849 0
M  V30 46 H -5.873604 1.695085 1.228411 0
M  V30 47 H -3.556130 2.324225 1.064085 0
M  V30 48 H -1.665557 2.832388 -0.230522 0
M  V30 49 H 1.039198 -3.257544 0.936035 0
M  V30 50 H 2.337913 -5.158051 1.608901 0
M  V30 51 H 1.317068 -7.125026 2.608630 0
M  V30 END ATOM
M  V30 BEGIN BOND
M  V30 1 1 1 2
M  V30 2 2 2 3
M  V30 3 1 3 4
M  V30 4 1 4 5
M  V30 5 2 5 6
M  V30 6 1 6 7
M  V30 7 1 7 8
M  V30 8 2 8 9
M  V30 9 1 9 10
M  V30 10 1 10 11
M  V30 11 1 11 12
M  V30 12 2 12 13
M  V30 13 1 12 14
M  V30 14 1 14 15
M  V30 15 1 15 16
M  V30 16 2 16 17
M  V30 17 1 17 18
M  V30 18 2 18 19
M  V30 19 1 19 20
M  V30 20 2 20 21
M  V30 21 1 21 22
M  V30 22 2 22 23
M  V30 23 1 23 24
M  V30 24 2 24 25
M  V30 25 2 10 26
M  V30 26 1 26 27
M  V30 27 2 27 28
M  V30 28 2 4 29
M  V30 29 1 29 30
M  V30 30 2 30 31
M  V30 31 1 31 2
M  V30 32 1 28 5
M  V30 33 1 28 8
M  V30 34 1 25 16
M  V30 35 1 24 19
M  V30 36 1 1 32
M  V30 37 1 1 33
M  V30 38 1 1 34
M  V30 39 1 3 35
M  V30 40 1 7 36
M  V30 41 1 9 37
M  V30 42 1 11 38
M  V30 43 1 14 39
M  V30 44 1 15 40
M  V30 45 1 15 41
M  V30 46 1 17 42
M  V30 47 1 18 43
M  V30 48 1 20 44
M  V30 49 1 21 45
M  V30 50 1 22 46
M  V30 51 1 23 47
M  V30 52 1 25 48
M  V30 53 1 27 49
M  V30 54 1 29 50
M  V30 55 1 30 51
M  V30 END BOND
M  V30 END CTAB
M  END
>  <Dataset>  (922) 
ChEMBL_Kinases

>  <Ligand_Instance>  (922) 
nan

>  <PDB_ID>  (922) 
nan

>  <Standardized_SMILES>  (922) 
Cc1cc(-c2n[nH]c3cc(NC(=O)NCc4ccc5ccccc5c4)ncc23)ccn1

>  <Name>  (922) 
nan

>  <Pocket>  (922) 
nan

>  <ATP_Site>  (922) 
nan

>  <Peripheral>  (922) 
nan

>  <Num_H_Atoms_ProtBoundConf>  (922) 
nan

>  <Num_Resolved_Atoms>  (922) 
nan

>  <Num_Not_Resolved_Atoms>  (922) 
nan

$$$$
CHEMBL3658683
     RDKit          3D

  0  0  0  0  0  0  0  0  0  0999 V3000
M  V30 BEGIN CTAB
M  V30 COUNTS 47 50 0 0 0
M  V30 BEGIN ATOM
M  V30 1 C -2.805668 -6.631444 2.945669 0
M  V30 2 C -2.011687 -6.096625 1.810148 0
M  V30 3 C -0.953261 -5.216754 1.903183 0
M  V30 4 C -0.282024 -4.781631 0.779393 0
M  V30 5 C 0.801939 -3.857930 1.092299 0
M  V30 6 N 1.717721 -3.992761 2.067142 0
M  V30 7 N 2.548164 -2.967681 2.060456 0
M  V30 8 C 2.153092 -2.163783 1.060993 0
M  V30 9 C 2.718712 -0.980138 0.679582 0
M  V30 10 C 2.153549 -0.303587 -0.382639 0
M  V30 11 N 2.527777 0.931853 -0.986124 0
M  V30 12 C 1.917726 2.077421 -0.432162 0
M  V30 13 O 1.112260 2.033132 0.511037 0
M  V30 14 N 2.237091 3.350230 -0.976903 0
M  V30 15 C 1.688651 4.616391 -0.511042 0
M  V30 16 C 0.737208 4.396298 0.625848 0
M  V30 17 C 1.086802 4.379068 1.969588 0
M  V30 18 C 0.080796 4.161932 2.891821 0
M  V30 19 C -1.223354 3.970095 2.477665 0
M  V30 20 C -1.532967 3.993973 1.132884 0
M  V30 21 C -2.923660 3.792513 0.635473 0
M  V30 22 N -0.551730 4.205631 0.235718 0
M  V30 23 N 1.066432 -0.823992 -1.011624 0
M  V30 24 C 0.507591 -1.994708 -0.633808 0
M  V30 25 C 1.057353 -2.681360 0.421621 0
M  V30 26 C -0.653441 -5.217065 -0.472571 0
M  V30 27 C -1.715037 -6.096893 -0.540084 0
M  V30 28 N -2.357892 -6.510408 0.567056 0
M  V30 29 H -2.353003 -7.594653 3.278681 0
M  V30 30 H -2.715945 -5.910333 3.782150 0
M  V30 31 H -3.838725 -6.777916 2.621285 0
M  V30 32 H -0.732669 -4.927560 2.941089 0
M  V30 33 H 3.356561 -2.837321 2.727395 0
M  V30 34 H 3.573742 -0.458208 1.086854 0
M  V30 35 H 3.188864 1.038565 -1.769827 0
M  V30 36 H 2.899721 3.488029 -1.766624 0
M  V30 37 H 2.565109 5.176698 -0.111459 0
M  V30 38 H 1.241886 5.227223 -1.301173 0
M  V30 39 H 2.134444 4.543303 2.120358 0
M  V30 40 H 0.403741 4.158333 3.911921 0
M  V30 41 H -1.993050 3.802000 3.218558 0
M  V30 42 H -3.667057 3.837017 1.430469 0
M  V30 43 H -2.961105 2.809912 0.082792 0
M  V30 44 H -3.208414 4.549686 -0.131448 0
M  V30 45 H -0.354832 -2.422079 -1.121507 0
M  V30 46 H -0.065194 -4.815293 -1.260564 0
M  V30 47 H -1.986131 -6.423450 -1.537974 0
M  V30 END ATOM
M  V30 BEGIN BOND
M  V30 1 1 1 2
M  V30 2 2 2 3
M  V30 3 1 3 4
M  V30 4 1 4 5
M  V30 5 2 5 6
M  V30 6 1 6 7
M  V30 7 1 7 8
M  V30 8 2 8 9
M  V30 9 1 9 10
M  V30 10 1 10 11
M  V30 11 1 11 12
M  V30 12 2 12 13
M  V30 13 1 12 14
M  V30 14 1 14 15
M  V30 15 1 15 16
M  V30 16 2 16 17
M  V30 17 1 17 18
M  V30 18 2 18 19
M  V30 19 1 19 20
M  V30 20 1 20 21
M  V30 21 2 20 22
M  V30 22 2 10 23
M  V30 23 1 23 24
M  V30 24 2 24 25
M  V30 25 2 4 26
M  V30 26 1 26 27
M  V30 27 2 27 28
M  V30 28 1 28 2
M  V30 29 1 25 5
M  V30 30 1 25 8
M  V30 31 1 22 16
M  V30 32 1 1 29
M  V30 33 1 1 30
M  V30 34 1 1 31
M  V30 35 1 3 32
M  V30 36 1 7 33
M  V30 37 1 9 34
M  V30 38 1 11 35
M  V30 39 1 14 36
M  V30 40 1 15 37
M  V30 41 1 15 38
M  V30 42 1 17 39
M  V30 43 1 18 40
M  V30 44 1 19 41
M  V30 45 1 21 42
M  V30 46 1 21 43
M  V30 47 1 21 44
M  V30 48 1 24 45
M  V30 49 1 26 46
M  V30 50 1 27 47
M  V30 END BOND
M  V30 END CTAB
M  END
>  <Dataset>  (923) 
ChEMBL_Kinases

>  <Ligand_Instance>  (923) 
nan

>  <PDB_ID>  (923) 
nan

>  <Standardized_SMILES>  (923) 
Cc1cc(-c2n[nH]c3cc(NC(=O)NCc4cccc(C)n4)ncc23)ccn1

>  <Name>  (923) 
nan

>  <Pocket>  (923) 
nan

>  <ATP_Site>  (923) 
nan

>  <Peripheral>  (923) 
nan

>  <Num_H_Atoms_ProtBoundConf>  (923) 
nan

>  <Num_Resolved_Atoms>  (923) 
nan

>  <Num_Not_Resolved_Atoms>  (923) 
nan

$$$$
CHEMBL3658682
     RDKit          3D

  0  0  0  0  0  0  0  0  0  0999 V3000
M  V30 BEGIN CTAB
M  V30 COUNTS 52 55 0 0 0
M  V30 BEGIN ATOM
M  V30 1 C 0.984882 -4.889762 2.770536 0
M  V30 2 O 2.188306 -4.917694 2.130164 0
M  V30 3 C 2.225694 -5.460201 0.874560 0
M  V30 4 C 1.326233 -4.694159 -0.057013 0 CFG=1
M  V30 5 N 1.813842 -3.327050 -0.068041 0
M  V30 6 C 1.151791 -2.125930 0.308746 0
M  V30 7 O -0.028800 -2.020160 0.739676 0
M  V30 8 N 1.930862 -0.945113 0.172393 0
M  V30 9 C 1.342759 0.302717 0.528613 0
M  V30 10 C 2.039360 1.490562 0.422274 0
M  V30 11 C 1.444412 2.707731 0.777365 0
M  V30 12 N 1.828427 3.998335 0.794045 0
M  V30 13 N 0.836392 4.759579 1.235958 0
M  V30 14 C -0.253689 4.023148 1.535266 0
M  V30 15 C -1.537843 4.503582 2.047521 0
M  V30 16 C -1.590463 5.429010 3.070472 0
M  V30 17 N -2.780108 5.871998 3.542707 0
M  V30 18 C -3.944418 5.411622 3.015991 0
M  V30 19 O -5.159108 5.878256 3.514011 0
M  V30 20 C -6.350857 5.386891 2.952605 0
M  V30 21 N -3.895045 4.509498 2.018770 0
M  V30 22 C -2.723833 4.037816 1.514516 0
M  V30 23 C 0.142884 2.732633 1.241811 0
M  V30 24 C -0.529112 1.530584 1.337744 0
M  V30 25 N 0.077138 0.376721 0.986142 0
M  V30 26 C 1.369458 -5.264506 -1.439515 0
M  V30 27 C 2.440035 -5.125336 -2.291988 0
M  V30 28 C 2.413529 -5.680811 -3.562909 0
M  V30 29 C 1.318695 -6.372846 -3.977716 0
M  V30 30 C 0.212878 -6.554616 -3.186165 0
M  V30 31 C 0.292646 -5.979607 -1.928145 0
M  V30 32 H 0.224770 -4.307900 2.244204 0
M  V30 33 H 0.636479 -5.924071 3.013888 0
M  V30 34 H 1.154961 -4.396290 3.760808 0
M  V30 35 H 1.936601 -6.551871 0.873857 0
M  V30 36 H 3.287503 -5.357020 0.510740 0
M  V30 37 H 0.301080 -4.740787 0.300916 0
M  V30 38 H 2.780886 -3.347846 -0.413225 0
M  V30 39 H 2.912252 -0.941766 -0.175041 0
M  V30 40 H 3.059670 1.512508 0.063087 0
M  V30 41 H 2.780364 4.321703 0.494799 0
M  V30 42 H -0.662275 5.796871 3.491310 0
M  V30 43 H -6.799606 4.576249 3.552802 0
M  V30 44 H -7.035688 6.242779 2.827191 0
M  V30 45 H -6.159855 4.958850 1.926948 0
M  V30 46 H -2.756577 3.315900 0.715411 0
M  V30 47 H -1.549519 1.487112 1.694422 0
M  V30 48 H 3.306156 -4.574558 -1.956045 0
M  V30 49 H 3.276165 -5.556262 -4.220760 0
M  V30 50 H 1.299004 -6.812009 -4.983910 0
M  V30 51 H -0.663002 -7.099758 -3.498137 0
M  V30 52 H -0.551973 -6.091271 -1.259970 0
M  V30 END ATOM
M  V30 BEGIN BOND
M  V30 1 1 1 2
M  V30 2 1 2 3
M  V30 3 1 3 4
M  V30 4 1 4 5
M  V30 5 1 5 6
M  V30 6 2 6 7
M  V30 7 1 6 8
M  V30 8 1 8 9
M  V30 9 2 9 10
M  V30 10 1 10 11
M  V30 11 1 11 12
M  V30 12 1 12 13
M  V30 13 2 13 14
M  V30 14 1 14 15
M  V30 15 2 15 16
M  V30 16 1 16 17
M  V30 17 2 17 18
M  V30 18 1 18 19
M  V30 19 1 19 20
M  V30 20 1 18 21
M  V30 21 2 21 22
M  V30 22 1 14 23
M  V30 23 1 23 24
M  V30 24 2 24 25
M  V30 25 1 4 26
M  V30 26 2 26 27
M  V30 27 1 27 28
M  V30 28 2 28 29
M  V30 29 1 29 30
M  V30 30 2 30 31
M  V30 31 1 25 9
M  V30 32 1 31 26
M  V30 33 2 23 11
M  V30 34 1 22 15
M  V30 35 1 1 32
M  V30 36 1 1 33
M  V30 37 1 1 34
M  V30 38 1 3 35
M  V30 39 1 3 36
M  V30 40 1 4 37 CFG=1
M  V30 41 1 5 38
M  V30 42 1 8 39
M  V30 43 1 10 40
M  V30 44 1 12 41
M  V30 45 1 16 42
M  V30 46 1 20 43
M  V30 47 1 20 44
M  V30 48 1 20 45
M  V30 49 1 22 46
M  V30 50 1 24 47
M  V30 51 1 27 48
M  V30 52 1 28 49
M  V30 53 1 29 50
M  V30 54 1 30 51
M  V30 55 1 31 52
M  V30 END BOND
M  V30 END CTAB
M  END
>  <Dataset>  (924) 
ChEMBL_Kinases

>  <Ligand_Instance>  (924) 
nan

>  <PDB_ID>  (924) 
nan

>  <Standardized_SMILES>  (924) 
COC[C@@H](NC(=O)Nc1cc2[nH]nc(-c3cnc(OC)nc3)c2cn1)c1ccccc1

>  <Name>  (924) 
nan

>  <Pocket>  (924) 
nan

>  <ATP_Site>  (924) 
nan

>  <Peripheral>  (924) 
nan

>  <Num_H_Atoms_ProtBoundConf>  (924) 
nan

>  <Num_Resolved_Atoms>  (924) 
nan

>  <Num_Not_Resolved_Atoms>  (924) 
nan

$$$$
CHEMBL3658681
     RDKit          3D

  0  0  0  0  0  0  0  0  0  0999 V3000
M  V30 BEGIN CTAB
M  V30 COUNTS 48 51 0 0 0
M  V30 BEGIN ATOM
M  V30 1 C -1.641627 -8.149844 -3.727340 0
M  V30 2 O -1.681032 -6.997551 -4.539255 0
M  V30 3 C -0.997560 -5.820274 -4.181956 0
M  V30 4 N -0.282672 -5.762074 -3.047389 0
M  V30 5 C 0.357465 -4.618626 -2.739262 0
M  V30 6 C 0.314937 -3.488225 -3.541987 0
M  V30 7 C 1.023918 -2.266007 -3.168904 0
M  V30 8 N 1.786768 -1.488169 -3.957876 0
M  V30 9 N 2.285166 -0.451251 -3.305565 0
M  V30 10 C 1.818079 -0.577458 -2.049354 0
M  V30 11 C 2.045785 0.252364 -0.966258 0
M  V30 12 C 1.465047 -0.061315 0.247480 0
M  V30 13 N 1.554264 0.634457 1.488573 0
M  V30 14 C 0.625078 1.649653 1.837970 0
M  V30 15 O -0.309942 1.973544 1.067832 0
M  V30 16 N 0.761270 2.306146 3.081718 0
M  V30 17 C -0.146839 3.353076 3.511861 0 CFG=2
M  V30 18 C 0.675853 4.569254 3.857703 0
M  V30 19 C -0.795575 2.902001 4.794985 0
M  V30 20 C -2.157307 3.044872 4.989538 0
M  V30 21 C -2.720157 2.618045 6.185614 0
M  V30 22 C -1.940192 2.053843 7.181793 0
M  V30 23 C -0.585479 1.920668 6.967643 0
M  V30 24 C -0.004961 2.342669 5.775847 0
M  V30 25 N 0.680520 -1.170469 0.375469 0
M  V30 26 C 0.455282 -1.989064 -0.690774 0
M  V30 27 C 1.022701 -1.698245 -1.911159 0
M  V30 28 C -0.439592 -3.593233 -4.711310 0
M  V30 29 N -1.080940 -4.762667 -5.004682 0
M  V30 30 H -1.201295 -7.946374 -2.728560 0
M  V30 31 H -2.685857 -8.522504 -3.622492 0
M  V30 32 H -1.046197 -8.978455 -4.155262 0
M  V30 33 H 0.917145 -4.633642 -1.813427 0
M  V30 34 H 2.905986 0.304519 -3.676369 0
M  V30 35 H 2.643011 1.153771 -0.937667 0
M  V30 36 H 2.327178 0.366178 2.124186 0
M  V30 37 H 1.538522 2.037290 3.721434 0
M  V30 38 H -0.925865 3.547844 2.738855 0
M  V30 39 H 0.829114 4.673419 4.967538 0
M  V30 40 H 1.697702 4.540332 3.439972 0
M  V30 41 H 0.206593 5.517240 3.523112 0
M  V30 42 H -2.712814 3.494854 4.169628 0
M  V30 43 H -3.791065 2.742350 6.311187 0
M  V30 44 H -2.434437 1.740539 8.090723 0
M  V30 45 H -0.019599 1.468644 7.787991 0
M  V30 46 H 1.063187 2.199608 5.695133 0
M  V30 47 H -0.164046 -2.870303 -0.604914 0
M  V30 48 H -0.491496 -2.728643 -5.357295 0
M  V30 END ATOM
M  V30 BEGIN BOND
M  V30 1 1 1 2
M  V30 2 1 2 3
M  V30 3 2 3 4
M  V30 4 1 4 5
M  V30 5 2 5 6
M  V30 6 1 6 7
M  V30 7 2 7 8
M  V30 8 1 8 9
M  V30 9 1 9 10
M  V30 10 2 10 11
M  V30 11 1 11 12
M  V30 12 1 12 13
M  V30 13 1 13 14
M  V30 14 2 14 15
M  V30 15 1 14 16
M  V30 16 1 16 17
M  V30 17 1 17 18
M  V30 18 1 17 19
M  V30 19 2 19 20
M  V30 20 1 20 21
M  V30 21 2 21 22
M  V30 22 1 22 23
M  V30 23 2 23 24
M  V30 24 2 12 25
M  V30 25 1 25 26
M  V30 26 2 26 27
M  V30 27 1 6 28
M  V30 28 2 28 29
M  V30 29 1 29 3
M  V30 30 1 27 7
M  V30 31 1 27 10
M  V30 32 1 24 19
M  V30 33 1 1 30
M  V30 34 1 1 31
M  V30 35 1 1 32
M  V30 36 1 5 33
M  V30 37 1 9 34
M  V30 38 1 11 35
M  V30 39 1 13 36
M  V30 40 1 16 37
M  V30 41 1 17 38 CFG=3
M  V30 42 1 18 39
M  V30 43 1 18 40
M  V30 44 1 18 41
M  V30 45 1 20 42
M  V30 46 1 21 43
M  V30 47 1 22 44
M  V30 48 1 23 45
M  V30 49 1 24 46
M  V30 50 1 26 47
M  V30 51 1 28 48
M  V30 END BOND
M  V30 END CTAB
M  END
>  <Dataset>  (925) 
ChEMBL_Kinases

>  <Ligand_Instance>  (925) 
nan

>  <PDB_ID>  (925) 
nan

>  <Standardized_SMILES>  (925) 
COc1ncc(-c2n[nH]c3cc(NC(=O)N[C@H](C)c4ccccc4)ncc23)cn1

>  <Name>  (925) 
nan

>  <Pocket>  (925) 
nan

>  <ATP_Site>  (925) 
nan

>  <Peripheral>  (925) 
nan

>  <Num_H_Atoms_ProtBoundConf>  (925) 
nan

>  <Num_Resolved_Atoms>  (925) 
nan

>  <Num_Not_Resolved_Atoms>  (925) 
nan

$$$$
CHEMBL3658680
     RDKit          3D

  0  0  0  0  0  0  0  0  0  0999 V3000
M  V30 BEGIN CTAB
M  V30 COUNTS 53 57 0 0 0
M  V30 BEGIN ATOM
M  V30 1 C 7.994678 -5.480139 1.423669 0
M  V30 2 O 8.315203 -4.209577 0.865408 0
M  V30 3 C 7.410321 -3.136694 0.954933 0
M  V30 4 N 6.195218 -3.244239 1.569052 0
M  V30 5 C 5.387580 -2.158280 1.608007 0
M  V30 6 C 5.780749 -0.963220 1.039164 0
M  V30 7 C 4.846051 0.156489 1.127936 0
M  V30 8 N 5.200443 1.427028 1.472016 0
M  V30 9 N 4.148543 2.227048 1.469365 0
M  V30 10 C 3.043669 1.534361 1.124970 0
M  V30 11 C 1.683076 1.810531 0.952483 0
M  V30 12 C 0.815637 0.797442 0.577520 0
M  V30 13 N -0.572038 1.062197 0.397862 0
M  V30 14 C -1.509067 0.087803 0.019480 0
M  V30 15 O -1.141222 -1.094724 -0.180901 0
M  V30 16 N -2.899795 0.424979 -0.144519 0
M  V30 17 C -3.886624 -0.565361 -0.535068 0 CFG=2
M  V30 18 C -4.529990 -0.220746 -1.853380 0
M  V30 19 C -5.448228 0.948794 -1.640194 0
M  V30 20 C -6.867272 0.401216 -1.652089 0
M  V30 21 O -7.098806 -0.421659 -0.516835 0
M  V30 22 C -6.303733 -0.666211 0.596983 0
M  V30 23 C -6.948722 -0.861025 1.797540 0
M  V30 24 C -6.221924 -1.109304 2.948022 0
M  V30 25 C -4.838294 -1.162759 2.895011 0
M  V30 26 C -4.201471 -0.963611 1.673255 0
M  V30 27 C -4.929256 -0.712019 0.505289 0
M  V30 28 N 1.293186 -0.446288 0.382506 0
M  V30 29 C 2.603891 -0.744901 0.541412 0
M  V30 30 C 3.485190 0.243988 0.913366 0
M  V30 31 C 7.020444 -0.869476 0.417715 0
M  V30 32 N 7.816389 -1.979451 0.392002 0
M  V30 33 H 7.337091 -6.083376 0.754754 0
M  V30 34 H 7.427966 -5.380696 2.375848 0
M  V30 35 H 8.934229 -6.057694 1.543951 0
M  V30 36 H 4.454914 -2.356986 2.116470 0
M  V30 37 H 4.114212 3.249832 1.691374 0
M  V30 38 H 1.351974 2.824237 1.121424 0
M  V30 39 H -0.938559 2.026700 0.549854 0
M  V30 40 H -3.257560 1.401222 0.011627 0
M  V30 41 H -3.378617 -1.564793 -0.670787 0
M  V30 42 H -3.779100 -0.052510 -2.640596 0
M  V30 43 H -5.078225 -1.147433 -2.175963 0
M  V30 44 H -5.394998 1.705235 -2.425593 0
M  V30 45 H -5.264094 1.448447 -0.679690 0
M  V30 46 H -7.622975 1.215538 -1.688200 0
M  V30 47 H -6.962181 -0.225418 -2.555611 0
M  V30 48 H -8.030829 -0.808649 1.782436 0
M  V30 49 H -6.765397 -1.257520 3.874333 0
M  V30 50 H -4.331393 -1.358567 3.818639 0
M  V30 51 H -3.107275 -1.031770 1.769867 0
M  V30 52 H 2.922887 -1.746321 0.373110 0
M  V30 53 H 7.310168 0.074348 -0.021624 0
M  V30 END ATOM
M  V30 BEGIN BOND
M  V30 1 1 1 2
M  V30 2 1 2 3
M  V30 3 2 3 4
M  V30 4 1 4 5
M  V30 5 2 5 6
M  V30 6 1 6 7
M  V30 7 2 7 8
M  V30 8 1 8 9
M  V30 9 1 9 10
M  V30 10 2 10 11
M  V30 11 1 11 12
M  V30 12 1 12 13
M  V30 13 1 13 14
M  V30 14 2 14 15
M  V30 15 1 14 16
M  V30 16 1 16 17
M  V30 17 1 17 18
M  V30 18 1 18 19
M  V30 19 1 19 20
M  V30 20 1 20 21
M  V30 21 1 21 22
M  V30 22 2 22 23
M  V30 23 1 23 24
M  V30 24 2 24 25
M  V30 25 1 25 26
M  V30 26 2 26 27
M  V30 27 2 12 28
M  V30 28 1 28 29
M  V30 29 2 29 30
M  V30 30 1 6 31
M  V30 31 2 31 32
M  V30 32 1 32 3
M  V30 33 1 30 7
M  V30 34 1 30 10
M  V30 35 1 27 17
M  V30 36 1 27 22
M  V30 37 1 1 33
M  V30 38 1 1 34
M  V30 39 1 1 35
M  V30 40 1 5 36
M  V30 41 1 9 37
M  V30 42 1 11 38
M  V30 43 1 13 39
M  V30 44 1 16 40
M  V30 45 1 17 41 CFG=3
M  V30 46 1 18 42
M  V30 47 1 18 43
M  V30 48 1 19 44
M  V30 49 1 19 45
M  V30 50 1 20 46
M  V30 51 1 20 47
M  V30 52 1 23 48
M  V30 53 1 24 49
M  V30 54 1 25 50
M  V30 55 1 26 51
M  V30 56 1 29 52
M  V30 57 1 31 53
M  V30 END BOND
M  V30 END CTAB
M  END
>  <Dataset>  (926) 
ChEMBL_Kinases

>  <Ligand_Instance>  (926) 
nan

>  <PDB_ID>  (926) 
nan

>  <Standardized_SMILES>  (926) 
COc1ncc(-c2n[nH]c3cc(NC(=O)N[C@@H]4CCCOc5ccccc54)ncc23)cn1

>  <Name>  (926) 
nan

>  <Pocket>  (926) 
nan

>  <ATP_Site>  (926) 
nan

>  <Peripheral>  (926) 
nan

>  <Num_H_Atoms_ProtBoundConf>  (926) 
nan

>  <Num_Resolved_Atoms>  (926) 
nan

>  <Num_Not_Resolved_Atoms>  (926) 
nan

$$$$
CHEMBL3658679
     RDKit          3D

  0  0  0  0  0  0  0  0  0  0999 V3000
M  V30 BEGIN CTAB
M  V30 COUNTS 54 57 0 0 0
M  V30 BEGIN ATOM
M  V30 1 C 8.088823 -3.739808 -1.146656 0
M  V30 2 C 7.616746 -3.772997 -2.563903 0
M  V30 3 S 7.178817 -2.132333 -3.148506 0
M  V30 4 O 6.688963 -2.300070 -4.574670 0
M  V30 5 O 8.342916 -1.219947 -3.156464 0
M  V30 6 C 5.894248 -1.463186 -2.162007 0
M  V30 7 C 6.104044 -0.273302 -1.458973 0
M  V30 8 C 5.036534 0.187877 -0.701264 0
M  V30 9 C 3.816189 -0.455529 -0.613829 0
M  V30 10 C 2.752669 0.108957 0.211913 0
M  V30 11 N 3.031487 0.564499 1.450903 0
M  V30 12 N 1.931183 1.037877 2.037956 0
M  V30 13 C 0.909402 0.887162 1.159555 0
M  V30 14 C -0.443874 1.168073 1.155265 0
M  V30 15 C -1.198994 0.862262 0.037621 0
M  V30 16 N -2.582896 1.195927 0.145565 0
M  V30 17 C -3.373841 0.117472 0.688198 0
M  V30 18 O -2.887954 -1.003504 1.031103 0
M  V30 19 N -4.769075 0.207840 0.889778 0
M  V30 20 C -5.538529 -0.886642 1.434856 0 CFG=2
M  V30 21 C -6.528724 -1.363270 0.395916 0
M  V30 22 C -6.238065 -0.486330 2.698211 0
M  V30 23 C -6.226897 -1.323388 3.798439 0
M  V30 24 C -6.837666 -1.053304 5.008660 0
M  V30 25 C -7.507883 0.166494 5.091171 0
M  V30 26 F -8.107728 0.433464 6.277460 0
M  V30 27 C -7.528880 1.020778 3.992940 0
M  V30 28 C -6.906351 0.714203 2.801639 0
M  V30 29 N -0.645267 0.291884 -1.058746 0
M  V30 30 C 0.664625 -0.009085 -1.124709 0
M  V30 31 C 1.403874 0.302133 -0.002016 0
M  V30 32 C 3.667053 -1.643852 -1.341517 0
M  V30 33 N 4.706705 -2.100681 -2.084613 0
M  V30 34 H 7.206356 -3.782519 -0.481031 0
M  V30 35 H 8.568924 -2.760694 -0.941916 0
M  V30 36 H 8.773408 -4.590312 -0.953719 0
M  V30 37 H 8.317246 -4.264694 -3.235517 0
M  V30 38 H 6.658267 -4.349270 -2.590830 0
M  V30 39 H 7.048262 0.258535 -1.504006 0
M  V30 40 H 5.189543 1.117182 -0.147658 0
M  V30 41 H 1.789808 1.458911 2.982376 0
M  V30 42 H -0.861883 1.629072 2.056269 0
M  V30 43 H -3.160706 2.052633 -0.081542 0
M  V30 44 H -5.271575 1.088616 0.641176 0
M  V30 45 H -4.869023 -1.756405 1.659317 0
M  V30 46 H -6.592892 -2.465772 0.405940 0
M  V30 47 H -7.525067 -0.914351 0.640771 0
M  V30 48 H -6.236746 -0.961848 -0.575104 0
M  V30 49 H -5.702614 -2.288877 3.748801 0
M  V30 50 H -6.788297 -1.756350 5.829313 0
M  V30 51 H -8.061744 1.959868 4.099180 0
M  V30 52 H -6.934876 1.391015 1.962442 0
M  V30 53 H 1.115055 -0.460093 -1.985472 0
M  V30 54 H 2.717858 -2.167776 -1.289369 0
M  V30 END ATOM
M  V30 BEGIN BOND
M  V30 1 1 1 2
M  V30 2 1 2 3
M  V30 3 2 3 4
M  V30 4 2 3 5
M  V30 5 1 3 6
M  V30 6 2 6 7
M  V30 7 1 7 8
M  V30 8 2 8 9
M  V30 9 1 9 10
M  V30 10 2 10 11
M  V30 11 1 11 12
M  V30 12 1 12 13
M  V30 13 2 13 14
M  V30 14 1 14 15
M  V30 15 1 15 16
M  V30 16 1 16 17
M  V30 17 2 17 18
M  V30 18 1 17 19
M  V30 19 1 19 20
M  V30 20 1 20 21
M  V30 21 1 20 22
M  V30 22 2 22 23
M  V30 23 1 23 24
M  V30 24 2 24 25
M  V30 25 1 25 26
M  V30 26 1 25 27
M  V30 27 2 27 28
M  V30 28 2 15 29
M  V30 29 1 29 30
M  V30 30 2 30 31
M  V30 31 1 9 32
M  V30 32 2 32 33
M  V30 33 1 33 6
M  V30 34 1 31 10
M  V30 35 1 31 13
M  V30 36 1 28 22
M  V30 37 1 1 34
M  V30 38 1 1 35
M  V30 39 1 1 36
M  V30 40 1 2 37
M  V30 41 1 2 38
M  V30 42 1 7 39
M  V30 43 1 8 40
M  V30 44 1 12 41
M  V30 45 1 14 42
M  V30 46 1 16 43
M  V30 47 1 19 44
M  V30 48 1 20 45 CFG=1
M  V30 49 1 21 46
M  V30 50 1 21 47
M  V30 51 1 21 48
M  V30 52 1 23 49
M  V30 53 1 24 50
M  V30 54 1 27 51
M  V30 55 1 28 52
M  V30 56 1 30 53
M  V30 57 1 32 54
M  V30 END BOND
M  V30 END CTAB
M  END
>  <Dataset>  (927) 
ChEMBL_Kinases

>  <Ligand_Instance>  (927) 
nan

>  <PDB_ID>  (927) 
nan

>  <Standardized_SMILES>  (927) 
CCS(=O)(=O)c1ccc(-c2n[nH]c3cc(NC(=O)N[C@H](C)c4ccc(F)cc4)ncc23)cn1

>  <Name>  (927) 
nan

>  <Pocket>  (927) 
nan

>  <ATP_Site>  (927) 
nan

>  <Peripheral>  (927) 
nan

>  <Num_H_Atoms_ProtBoundConf>  (927) 
nan

>  <Num_Resolved_Atoms>  (927) 
nan

>  <Num_Not_Resolved_Atoms>  (927) 
nan

$$$$
CHEMBL3658678
     RDKit          3D

  0  0  0  0  0  0  0  0  0  0999 V3000
M  V30 BEGIN CTAB
M  V30 COUNTS 49 52 0 0 0
M  V30 BEGIN ATOM
M  V30 1 C -3.309694 -4.492628 -6.410225 0
M  V30 2 O -2.902285 -3.896071 -5.195766 0
M  V30 3 C -2.125472 -4.608324 -4.276472 0
M  V30 4 C -1.729470 -4.023756 -3.092548 0
M  V30 5 C -0.964108 -4.721268 -2.183316 0
M  V30 6 C -0.488313 -4.208354 -0.903031 0
M  V30 7 N -0.520624 -4.867122 0.270193 0
M  V30 8 N -0.007019 -4.111454 1.243764 0
M  V30 9 C 0.382421 -2.923498 0.740027 0
M  V30 10 C 0.965855 -1.758496 1.230197 0
M  V30 11 C 1.231918 -0.687501 0.365963 0
M  V30 12 N 1.825867 0.390059 1.079694 0
M  V30 13 C 0.909927 1.348898 1.647708 0
M  V30 14 O -0.338075 1.248128 1.524106 0
M  V30 15 N 1.494103 2.427390 2.363815 0
M  V30 16 C 0.604506 3.418028 2.957628 0 CFG=2
M  V30 17 C 0.904334 4.745429 2.334389 0
M  V30 18 C 0.777659 3.463565 4.437729 0
M  V30 19 C -0.327813 3.498983 5.290177 0
M  V30 20 C -0.163119 3.540239 6.657906 0
M  V30 21 C 1.087898 3.548455 7.244548 0
M  V30 22 F 1.187153 3.589090 8.599105 0
M  V30 23 C 2.192484 3.513955 6.419145 0
M  V30 24 C 1.993018 3.472926 5.049821 0
M  V30 25 N 0.916864 -0.800236 -0.939727 0
M  V30 26 C 0.351962 -1.911728 -1.447515 0
M  V30 27 C 0.079218 -2.983522 -0.613948 0
M  V30 28 C -0.615555 -6.003707 -2.497536 0
M  V30 29 C -0.996272 -6.615034 -3.673158 0
M  V30 30 N -1.739262 -5.890258 -4.519665 0
M  V30 31 H -2.645872 -5.337239 -6.711258 0
M  V30 32 H -3.379486 -3.786744 -7.256929 0
M  V30 33 H -4.317504 -4.927485 -6.290179 0
M  V30 34 H -1.999911 -2.999766 -2.826763 0
M  V30 35 H 0.100337 -4.358064 2.263560 0
M  V30 36 H 1.166333 -1.800595 2.290471 0
M  V30 37 H 2.876804 0.496018 1.196727 0
M  V30 38 H 2.517234 2.599965 2.520427 0
M  V30 39 H -0.470939 3.163218 2.741562 0
M  V30 40 H 0.231750 4.862623 1.441309 0
M  V30 41 H 0.708777 5.596793 3.025347 0
M  V30 42 H 1.934896 4.811173 1.932312 0
M  V30 43 H -1.305689 3.492302 4.820111 0
M  V30 44 H -1.024393 3.567948 7.322580 0
M  V30 45 H 3.195092 3.519187 6.847291 0
M  V30 46 H 2.897918 3.446586 4.432641 0
M  V30 47 H 0.135015 -1.909781 -2.507105 0
M  V30 48 H -0.007006 -6.608356 -1.813747 0
M  V30 49 H -0.698561 -7.637420 -3.885764 0
M  V30 END ATOM
M  V30 BEGIN BOND
M  V30 1 1 1 2
M  V30 2 1 2 3
M  V30 3 2 3 4
M  V30 4 1 4 5
M  V30 5 1 5 6
M  V30 6 2 6 7
M  V30 7 1 7 8
M  V30 8 1 8 9
M  V30 9 2 9 10
M  V30 10 1 10 11
M  V30 11 1 11 12
M  V30 12 1 12 13
M  V30 13 2 13 14
M  V30 14 1 13 15
M  V30 15 1 15 16
M  V30 16 1 16 17
M  V30 17 1 16 18
M  V30 18 2 18 19
M  V30 19 1 19 20
M  V30 20 2 20 21
M  V30 21 1 21 22
M  V30 22 1 21 23
M  V30 23 2 23 24
M  V30 24 2 11 25
M  V30 25 1 25 26
M  V30 26 2 26 27
M  V30 27 2 5 28
M  V30 28 1 28 29
M  V30 29 2 29 30
M  V30 30 1 30 3
M  V30 31 1 27 6
M  V30 32 1 27 9
M  V30 33 1 24 18
M  V30 34 1 1 31
M  V30 35 1 1 32
M  V30 36 1 1 33
M  V30 37 1 4 34
M  V30 38 1 8 35
M  V30 39 1 10 36
M  V30 40 1 12 37
M  V30 41 1 15 38
M  V30 42 1 16 39 CFG=1
M  V30 43 1 17 40
M  V30 44 1 17 41
M  V30 45 1 17 42
M  V30 46 1 19 43
M  V30 47 1 20 44
M  V30 48 1 23 45
M  V30 49 1 24 46
M  V30 50 1 26 47
M  V30 51 1 28 48
M  V30 52 1 29 49
M  V30 END BOND
M  V30 END CTAB
M  END
>  <Dataset>  (928) 
ChEMBL_Kinases

>  <Ligand_Instance>  (928) 
nan

>  <PDB_ID>  (928) 
nan

>  <Standardized_SMILES>  (928) 
COc1cc(-c2n[nH]c3cc(NC(=O)N[C@H](C)c4ccc(F)cc4)ncc23)ccn1

>  <Name>  (928) 
nan

>  <Pocket>  (928) 
nan

>  <ATP_Site>  (928) 
nan

>  <Peripheral>  (928) 
nan

>  <Num_H_Atoms_ProtBoundConf>  (928) 
nan

>  <Num_Resolved_Atoms>  (928) 
nan

>  <Num_Not_Resolved_Atoms>  (928) 
nan

$$$$
CHEMBL3658677
     RDKit          3D

  0  0  0  0  0  0  0  0  0  0999 V3000
M  V30 BEGIN CTAB
M  V30 COUNTS 61 64 0 0 0
M  V30 BEGIN ATOM
M  V30 1 C 7.153062 -0.891777 4.360822 0
M  V30 2 C 6.737414 0.427046 3.680905 0
M  V30 3 C 7.067654 1.475181 4.762630 0
M  V30 4 C 5.276537 0.312396 3.439062 0
M  V30 5 N 4.626370 1.416207 2.793220 0
M  V30 6 C 4.506779 2.727037 3.446274 0
M  V30 7 C 3.966884 1.560024 1.511226 0
M  V30 8 N 4.344862 1.877486 0.297300 0
M  V30 9 C 3.471494 1.955371 -0.710727 0
M  V30 10 C 2.121678 1.699557 -0.495808 0
M  V30 11 C 0.972196 1.778067 -1.387378 0
M  V30 12 N 0.766460 2.853821 -2.171832 0
M  V30 13 N -0.353114 2.734415 -2.871028 0
M  V30 14 C -0.861043 1.542316 -2.506665 0
M  V30 15 C -2.020148 0.926530 -2.918020 0
M  V30 16 C -2.319129 -0.300692 -2.378257 0
M  V30 17 N -3.477761 -1.095515 -2.566714 0
M  V30 18 C -3.865753 -2.441999 -2.342928 0
M  V30 19 O -2.835015 -3.052515 -1.974455 0
M  V30 20 N -5.191050 -2.822888 -2.548176 0
M  V30 21 C -5.490610 -4.224879 -2.350232 0 CFG=2
M  V30 22 C -6.738197 -4.691798 -3.009345 0
M  V30 23 C -5.658776 -4.377344 -0.836921 0
M  V30 24 C -5.123509 -5.469025 -0.182312 0
M  V30 25 C -5.282855 -5.580182 1.198789 0
M  V30 26 C -5.966197 -4.604810 1.878939 0
M  V30 27 F -6.097216 -4.754768 3.220160 0
M  V30 28 C -6.480661 -3.534938 1.183009 0
M  V30 29 C -6.362741 -3.357833 -0.180441 0
M  V30 30 N -1.507622 -0.894188 -1.473001 0
M  V30 31 C -0.361819 -0.350073 -1.024563 0
M  V30 32 C -0.054043 0.883290 -1.556629 0
M  V30 33 C 1.715140 1.359800 0.791369 0
M  V30 34 N 2.658272 1.296080 1.789467 0
M  V30 35 H 7.236466 -1.720575 3.641052 0
M  V30 36 H 6.283762 -1.152870 5.031045 0
M  V30 37 H 8.016837 -0.756837 5.026285 0
M  V30 38 H 7.362262 0.533183 2.799974 0
M  V30 39 H 7.043480 2.507300 4.379740 0
M  V30 40 H 6.473469 1.259613 5.647761 0
M  V30 41 H 8.142912 1.283405 5.090033 0
M  V30 42 H 4.772581 -0.006776 4.378750 0
M  V30 43 H 5.143968 -0.564389 2.739439 0
M  V30 44 H 3.498539 3.170471 3.346029 0
M  V30 45 H 4.680800 2.664102 4.542091 0
M  V30 46 H 5.212463 3.444035 2.958487 0
M  V30 47 H 3.694558 2.209005 -1.714513 0
M  V30 48 H -0.820790 3.369440 -3.569657 0
M  V30 49 H -2.734337 1.297520 -3.625888 0
M  V30 50 H -4.236224 -0.443804 -2.906810 0
M  V30 51 H -5.922690 -2.154364 -2.832487 0
M  V30 52 H -4.629596 -4.880636 -2.635874 0
M  V30 53 H -7.161028 -5.610478 -2.514960 0
M  V30 54 H -6.629505 -4.941746 -4.083372 0
M  V30 55 H -7.556904 -3.913629 -2.980082 0
M  V30 56 H -4.591179 -6.213335 -0.753215 0
M  V30 57 H -4.864845 -6.444088 1.712308 0
M  V30 58 H -6.993356 -2.828801 1.792155 0
M  V30 59 H -6.781290 -2.509133 -0.665852 0
M  V30 60 H 0.330217 -0.771749 -0.311597 0
M  V30 61 H 0.664071 1.135119 1.076846 0
M  V30 END ATOM
M  V30 BEGIN BOND
M  V30 1 1 1 2
M  V30 2 1 2 3
M  V30 3 1 2 4
M  V30 4 1 4 5
M  V30 5 1 5 6
M  V30 6 1 5 7
M  V30 7 2 7 8
M  V30 8 1 8 9
M  V30 9 2 9 10
M  V30 10 1 10 11
M  V30 11 2 11 12
M  V30 12 1 12 13
M  V30 13 1 13 14
M  V30 14 2 14 15
M  V30 15 1 15 16
M  V30 16 1 16 17
M  V30 17 1 17 18
M  V30 18 2 18 19
M  V30 19 1 18 20
M  V30 20 1 20 21
M  V30 21 1 21 22
M  V30 22 1 21 23
M  V30 23 2 23 24
M  V30 24 1 24 25
M  V30 25 2 25 26
M  V30 26 1 26 27
M  V30 27 1 26 28
M  V30 28 2 28 29
M  V30 29 2 16 30
M  V30 30 1 30 31
M  V30 31 2 31 32
M  V30 32 1 10 33
M  V30 33 2 33 34
M  V30 34 1 34 7
M  V30 35 1 32 11
M  V30 36 1 32 14
M  V30 37 1 29 23
M  V30 38 1 1 35
M  V30 39 1 1 36
M  V30 40 1 1 37
M  V30 41 1 2 38
M  V30 42 1 3 39
M  V30 43 1 3 40
M  V30 44 1 3 41
M  V30 45 1 4 42
M  V30 46 1 4 43
M  V30 47 1 6 44
M  V30 48 1 6 45
M  V30 49 1 6 46
M  V30 50 1 9 47
M  V30 51 1 13 48
M  V30 52 1 15 49
M  V30 53 1 17 50
M  V30 54 1 20 51
M  V30 55 1 21 52 CFG=3
M  V30 56 1 22 53
M  V30 57 1 22 54
M  V30 58 1 22 55
M  V30 59 1 24 56
M  V30 60 1 25 57
M  V30 61 1 28 58
M  V30 62 1 29 59
M  V30 63 1 31 60
M  V30 64 1 33 61
M  V30 END BOND
M  V30 END CTAB
M  END
>  <Dataset>  (929) 
ChEMBL_Kinases

>  <Ligand_Instance>  (929) 
nan

>  <PDB_ID>  (929) 
nan

>  <Standardized_SMILES>  (929) 
CC(C)CN(C)c1ncc(-c2n[nH]c3cc(NC(=O)N[C@H](C)c4ccc(F)cc4)ncc23)cn1

>  <Name>  (929) 
nan

>  <Pocket>  (929) 
nan

>  <ATP_Site>  (929) 
nan

>  <Peripheral>  (929) 
nan

>  <Num_H_Atoms_ProtBoundConf>  (929) 
nan

>  <Num_Resolved_Atoms>  (929) 
nan

>  <Num_Not_Resolved_Atoms>  (929) 
nan

$$$$
CHEMBL3658676
     RDKit          3D

  0  0  0  0  0  0  0  0  0  0999 V3000
M  V30 BEGIN CTAB
M  V30 COUNTS 48 51 0 0 0
M  V30 BEGIN ATOM
M  V30 1 C -2.399963 -4.013444 -5.889208 0
M  V30 2 C -1.497402 -4.432627 -4.811380 0
M  V30 3 C -1.257710 -5.785485 -4.477250 0
M  V30 4 N -0.445532 -6.192083 -3.500741 0
M  V30 5 C 0.217597 -5.343332 -2.743212 0
M  V30 6 C 0.015713 -4.017286 -3.030004 0
M  V30 7 C 0.772976 -3.076762 -2.174438 0
M  V30 8 N 2.100771 -3.158824 -1.845553 0
M  V30 9 N 2.432692 -2.143338 -1.043782 0
M  V30 10 C 1.311754 -1.395031 -0.848195 0
M  V30 11 C 1.108902 -0.259042 -0.105585 0
M  V30 12 C -0.150204 0.349405 -0.034972 0
M  V30 13 N -0.148292 1.504584 0.774319 0
M  V30 14 C -0.392256 1.873052 2.166600 0
M  V30 15 O -0.700833 0.699354 2.571479 0
M  V30 16 N -0.308630 3.104638 2.764118 0
M  V30 17 C -0.747399 2.899034 4.134935 0 CFG=2
M  V30 18 C -1.063856 4.157719 4.847005 0
M  V30 19 C 0.303299 2.166901 4.954452 0
M  V30 20 C -0.039775 1.002458 5.691073 0
M  V30 21 C 0.894596 0.331403 6.469412 0
M  V30 22 C 2.175324 0.842275 6.502800 0
M  V30 23 F 3.122148 0.208991 7.270099 0
M  V30 24 C 2.554473 1.990747 5.786338 0
M  V30 25 C 1.591225 2.662916 4.995179 0
M  V30 26 N -1.167415 -0.246716 -0.743746 0
M  V30 27 C -0.959089 -1.350544 -1.459903 0
M  V30 28 C 0.246197 -1.970278 -1.555500 0
M  V30 29 C -0.803815 -3.526370 -4.022181 0
M  V30 30 H -2.858227 -3.025185 -5.599403 0
M  V30 31 H -1.866096 -3.937138 -6.843286 0
M  V30 32 H -3.274539 -4.675258 -6.010661 0
M  V30 33 H -1.771560 -6.575763 -5.045363 0
M  V30 34 H 0.892194 -5.648210 -1.927349 0
M  V30 35 H 3.384137 -1.998195 -0.677420 0
M  V30 36 H 1.986321 0.145744 0.428041 0
M  V30 37 H 0.129736 2.363918 0.212336 0
M  V30 38 H 0.025307 3.851808 2.145254 0
M  V30 39 H -1.605322 2.200044 4.162684 0
M  V30 40 H -0.194141 4.890320 4.826745 0
M  V30 41 H -1.187385 3.917649 5.940770 0
M  V30 42 H -2.015418 4.667534 4.543855 0
M  V30 43 H -1.068935 0.671361 5.612104 0
M  V30 44 H 0.552571 -0.546426 6.995450 0
M  V30 45 H 3.613511 2.366908 5.847317 0
M  V30 46 H 1.963950 3.544504 4.480461 0
M  V30 47 H -1.783210 -1.790326 -1.999876 0
M  V30 48 H -0.944362 -2.472814 -4.239089 0
M  V30 END ATOM
M  V30 BEGIN BOND
M  V30 1 1 1 2
M  V30 2 2 2 3
M  V30 3 1 3 4
M  V30 4 2 4 5
M  V30 5 1 5 6
M  V30 6 1 6 7
M  V30 7 2 7 8
M  V30 8 1 8 9
M  V30 9 1 9 10
M  V30 10 2 10 11
M  V30 11 1 11 12
M  V30 12 1 12 13
M  V30 13 1 13 14
M  V30 14 2 14 15
M  V30 15 1 14 16
M  V30 16 1 16 17
M  V30 17 1 17 18
M  V30 18 1 17 19
M  V30 19 2 19 20
M  V30 20 1 20 21
M  V30 21 2 21 22
M  V30 22 1 22 23
M  V30 23 1 22 24
M  V30 24 2 24 25
M  V30 25 2 12 26
M  V30 26 1 26 27
M  V30 27 2 27 28
M  V30 28 2 6 29
M  V30 29 1 29 2
M  V30 30 1 28 7
M  V30 31 1 28 10
M  V30 32 1 25 19
M  V30 33 1 1 30
M  V30 34 1 1 31
M  V30 35 1 1 32
M  V30 36 1 3 33
M  V30 37 1 5 34
M  V30 38 1 9 35
M  V30 39 1 11 36
M  V30 40 1 13 37
M  V30 41 1 16 38
M  V30 42 1 17 39 CFG=3
M  V30 43 1 18 40
M  V30 44 1 18 41
M  V30 45 1 18 42
M  V30 46 1 20 43
M  V30 47 1 21 44
M  V30 48 1 24 45
M  V30 49 1 25 46
M  V30 50 1 27 47
M  V30 51 1 29 48
M  V30 END BOND
M  V30 END CTAB
M  END
>  <Dataset>  (930) 
ChEMBL_Kinases

>  <Ligand_Instance>  (930) 
nan

>  <PDB_ID>  (930) 
nan

>  <Standardized_SMILES>  (930) 
Cc1cncc(-c2n[nH]c3cc(NC(=O)N[C@H](C)c4ccc(F)cc4)ncc23)c1

>  <Name>  (930) 
nan

>  <Pocket>  (930) 
nan

>  <ATP_Site>  (930) 
nan

>  <Peripheral>  (930) 
nan

>  <Num_H_Atoms_ProtBoundConf>  (930) 
nan

>  <Num_Resolved_Atoms>  (930) 
nan

>  <Num_Not_Resolved_Atoms>  (930) 
nan

$$$$
CHEMBL3658675
     RDKit          3D

  0  0  0  0  0  0  0  0  0  0999 V3000
M  V30 BEGIN CTAB
M  V30 COUNTS 56 60 0 0 0
M  V30 BEGIN ATOM
M  V30 1 C 5.808734 1.515271 5.248750 0
M  V30 2 O 5.900835 1.404028 3.912180 0
M  V30 3 C 5.294278 0.424284 3.225807 0
M  V30 4 C 3.806484 0.401348 3.324162 0 CFG=1
M  V30 5 N 3.318129 -0.726486 2.446754 0
M  V30 6 C 2.453815 -0.404158 1.390036 0
M  V30 7 O 2.021976 0.756133 1.077585 0
M  V30 8 N 1.991004 -1.462799 0.558484 0
M  V30 9 C 1.112451 -1.331957 -0.555182 0
M  V30 10 C 1.447267 -1.106231 -1.875045 0
M  V30 11 C 0.432417 -1.012550 -2.805043 0
M  V30 12 N 0.508006 -0.799160 -4.126374 0
M  V30 13 N -0.721267 -0.785826 -4.615211 0
M  V30 14 C -1.634406 -0.989693 -3.630112 0
M  V30 15 C -3.093670 -1.049652 -3.723169 0
M  V30 16 C -3.857800 -0.128383 -4.449043 0
M  V30 17 C -5.225433 -0.272533 -4.476225 0
M  V30 18 C -5.896522 -1.294385 -3.814808 0
M  V30 19 N -7.319579 -1.437607 -3.847855 0
M  V30 20 C -8.298178 -1.501187 -4.767871 0
M  V30 21 C -9.500573 -1.651020 -4.072648 0
M  V30 22 N -9.196311 -1.672266 -2.742323 0
M  V30 23 N -7.884725 -1.542595 -2.640312 0
M  V30 24 C -5.107186 -2.199720 -3.097904 0
M  V30 25 C -3.725740 -2.057648 -3.068002 0
M  V30 26 C -0.899427 -1.134713 -2.472335 0
M  V30 27 C -1.177654 -1.357953 -1.149003 0
M  V30 28 N -0.186411 -1.450070 -0.236664 0
M  V30 29 C 3.267453 0.069504 4.675549 0
M  V30 30 C 3.734365 -1.195941 5.047308 0
M  V30 31 C 3.358265 -1.781185 6.258071 0
M  V30 32 C 2.512795 -1.113733 7.113365 0
M  V30 33 F 2.044383 -1.512832 8.310413 0
M  V30 34 C 2.055163 0.129067 6.746578 0
M  V30 35 C 2.407143 0.729815 5.563525 0
M  V30 36 H 6.141578 0.621949 5.824231 0
M  V30 37 H 6.583353 2.297535 5.599307 0
M  V30 38 H 4.879319 1.905144 5.652595 0
M  V30 39 H 5.534518 0.510096 2.120773 0
M  V30 40 H 5.742331 -0.554840 3.596951 0
M  V30 41 H 3.354750 1.300766 2.921409 0
M  V30 42 H 3.606004 -1.718741 2.609188 0
M  V30 43 H 2.251200 -2.457661 0.682356 0
M  V30 44 H 2.507786 -1.021111 -2.064334 0
M  V30 45 H 1.364410 -0.662678 -4.705093 0
M  V30 46 H -3.333881 0.660613 -4.959122 0
M  V30 47 H -5.820347 0.452031 -5.046386 0
M  V30 48 H -7.973494 -1.427277 -5.805441 0
M  V30 49 H -10.401520 -1.718938 -4.684792 0
M  V30 50 H -5.678762 -2.991256 -2.590585 0
M  V30 51 H -3.287588 -2.832070 -2.478717 0
M  V30 52 H -2.209464 -1.459798 -0.841122 0
M  V30 53 H 4.401177 -1.860348 4.502282 0
M  V30 54 H 3.679941 -2.749995 6.605857 0
M  V30 55 H 1.385086 0.761647 7.326731 0
M  V30 56 H 2.147027 1.681902 5.123315 0
M  V30 END ATOM
M  V30 BEGIN BOND
M  V30 1 1 1 2
M  V30 2 1 2 3
M  V30 3 1 3 4
M  V30 4 1 4 5
M  V30 5 1 5 6
M  V30 6 2 6 7
M  V30 7 1 6 8
M  V30 8 1 8 9
M  V30 9 2 9 10
M  V30 10 1 10 11
M  V30 11 1 11 12
M  V30 12 1 12 13
M  V30 13 2 13 14
M  V30 14 1 14 15
M  V30 15 2 15 16
M  V30 16 1 16 17
M  V30 17 2 17 18
M  V30 18 1 18 19
M  V30 19 1 19 20
M  V30 20 2 20 21
M  V30 21 1 21 22
M  V30 22 2 22 23
M  V30 23 1 18 24
M  V30 24 2 24 25
M  V30 25 1 14 26
M  V30 26 1 26 27
M  V30 27 2 27 28
M  V30 28 1 4 29
M  V30 29 2 29 30
M  V30 30 1 30 31
M  V30 31 2 31 32
M  V30 32 1 32 33
M  V30 33 1 32 34
M  V30 34 2 34 35
M  V30 35 1 28 9
M  V30 36 1 35 29
M  V30 37 2 26 11
M  V30 38 1 25 15
M  V30 39 1 23 19
M  V30 40 1 1 36
M  V30 41 1 1 37
M  V30 42 1 1 38
M  V30 43 1 3 39
M  V30 44 1 3 40
M  V30 45 1 4 41 CFG=3
M  V30 46 1 5 42
M  V30 47 1 8 43
M  V30 48 1 10 44
M  V30 49 1 12 45
M  V30 50 1 16 46
M  V30 51 1 17 47
M  V30 52 1 20 48
M  V30 53 1 21 49
M  V30 54 1 24 50
M  V30 55 1 25 51
M  V30 56 1 27 52
M  V30 57 1 30 53
M  V30 58 1 31 54
M  V30 59 1 34 55
M  V30 60 1 35 56
M  V30 END BOND
M  V30 END CTAB
M  END
>  <Dataset>  (931) 
ChEMBL_Kinases

>  <Ligand_Instance>  (931) 
nan

>  <PDB_ID>  (931) 
nan

>  <Standardized_SMILES>  (931) 
COC[C@@H](NC(=O)Nc1cc2[nH]nc(-c3ccc(-n4ccnn4)cc3)c2cn1)c1ccc(F)cc1

>  <Name>  (931) 
nan

>  <Pocket>  (931) 
nan

>  <ATP_Site>  (931) 
nan

>  <Peripheral>  (931) 
nan

>  <Num_H_Atoms_ProtBoundConf>  (931) 
nan

>  <Num_Resolved_Atoms>  (931) 
nan

>  <Num_Not_Resolved_Atoms>  (931) 
nan

$$$$
CHEMBL3658674
     RDKit          3D

  0  0  0  0  0  0  0  0  0  0999 V3000
M  V30 BEGIN CTAB
M  V30 COUNTS 63 67 0 0 0
M  V30 BEGIN ATOM
M  V30 1 C 5.396703 -4.303373 -2.386415 0
M  V30 2 O 6.423714 -3.448173 -2.090893 0
M  V30 3 C 6.147535 -2.442770 -1.200362 0
M  V30 4 C 5.058133 -1.557185 -1.752469 0 CFG=1
M  V30 5 N 4.739977 -0.477229 -0.798960 0
M  V30 6 C 3.423098 -0.371560 -0.328926 0
M  V30 7 O 2.509067 -1.181157 -0.706377 0
M  V30 8 N 2.966721 0.627832 0.601387 0
M  V30 9 C 1.615055 0.693180 1.050217 0
M  V30 10 C 0.727528 1.463587 0.324299 0
M  V30 11 C -0.608767 1.603084 0.663111 0
M  V30 12 N -1.646857 2.278545 0.130638 0
M  V30 13 N -2.708354 2.040219 0.889709 0
M  V30 14 C -2.355568 1.210803 1.912339 0
M  V30 15 C -3.277462 0.733735 2.950528 0
M  V30 16 C -2.958919 0.713102 4.314058 0
M  V30 17 C -3.931078 0.233182 5.195042 0
M  V30 18 N -5.114397 -0.188310 4.756606 0
M  V30 19 C -5.451083 -0.181037 3.450543 0
M  V30 20 N -6.714036 -0.637973 3.049781 0
M  V30 21 C -7.256209 -0.713651 1.723583 0
M  V30 22 C -8.142129 -1.927116 1.564626 0
M  V30 23 N -7.797020 -2.987937 2.476093 0
M  V30 24 C -7.762813 -2.617989 3.854887 0
M  V30 25 C -7.678075 -1.118892 4.014066 0
M  V30 26 C -4.528182 0.282517 2.540288 0
M  V30 27 C -1.014161 0.910020 1.797710 0
M  V30 28 C -0.138066 0.135042 2.534620 0
M  V30 29 N 1.150786 0.038060 2.155129 0
M  V30 30 C 5.462142 -0.960602 -3.060033 0
M  V30 31 C 5.102900 -1.241203 -4.351653 0
M  V30 32 C 5.646181 -0.519109 -5.383642 0
M  V30 33 C 6.555872 0.498266 -5.187861 0
M  V30 34 F 7.023128 1.139747 -6.281939 0
M  V30 35 C 6.917368 0.781769 -3.897971 0
M  V30 36 C 6.379134 0.062258 -2.834728 0
M  V30 37 H 5.817985 -5.045745 -3.126444 0
M  V30 38 H 4.510954 -3.859785 -2.863261 0
M  V30 39 H 5.010459 -4.861830 -1.508802 0
M  V30 40 H 5.951882 -2.768492 -0.170099 0
M  V30 41 H 7.097659 -1.834286 -1.131507 0
M  V30 42 H 4.117367 -2.105854 -1.914945 0
M  V30 43 H 5.363428 0.236315 -0.413290 0
M  V30 44 H 3.709904 1.309473 0.926964 0
M  V30 45 H 1.075912 1.988328 -0.551380 0
M  V30 46 H -1.525740 2.860471 -0.734305 0
M  V30 47 H -1.989175 1.065216 4.610310 0
M  V30 48 H -3.667199 0.224262 6.248618 0
M  V30 49 H -6.494964 -0.673796 0.940905 0
M  V30 50 H -7.954150 0.165539 1.619526 0
M  V30 51 H -9.209828 -1.718368 1.655481 0
M  V30 52 H -7.972591 -2.328511 0.540262 0
M  V30 53 H -6.929792 -3.494529 2.187002 0
M  V30 54 H -6.858696 -3.087609 4.317865 0
M  V30 55 H -8.681565 -3.036808 4.354054 0
M  V30 56 H -8.701679 -0.715106 3.830621 0
M  V30 57 H -7.333835 -0.901276 5.051094 0
M  V30 58 H -4.784650 0.294310 1.487256 0
M  V30 59 H -0.494820 -0.389217 3.413111 0
M  V30 60 H 4.390133 -2.046003 -4.396838 0
M  V30 61 H 5.320931 -0.791300 -6.372883 0
M  V30 62 H 7.635994 1.590293 -3.790031 0
M  V30 63 H 6.778744 0.422059 -1.876020 0
M  V30 END ATOM
M  V30 BEGIN BOND
M  V30 1 1 1 2
M  V30 2 1 2 3
M  V30 3 1 3 4
M  V30 4 1 4 5
M  V30 5 1 5 6
M  V30 6 2 6 7
M  V30 7 1 6 8
M  V30 8 1 8 9
M  V30 9 2 9 10
M  V30 10 1 10 11
M  V30 11 1 11 12
M  V30 12 1 12 13
M  V30 13 2 13 14
M  V30 14 1 14 15
M  V30 15 2 15 16
M  V30 16 1 16 17
M  V30 17 2 17 18
M  V30 18 1 18 19
M  V30 19 1 19 20
M  V30 20 1 20 21
M  V30 21 1 21 22
M  V30 22 1 22 23
M  V30 23 1 23 24
M  V30 24 1 24 25
M  V30 25 2 19 26
M  V30 26 1 14 27
M  V30 27 1 27 28
M  V30 28 2 28 29
M  V30 29 1 4 30
M  V30 30 2 30 31
M  V30 31 1 31 32
M  V30 32 2 32 33
M  V30 33 1 33 34
M  V30 34 1 33 35
M  V30 35 2 35 36
M  V30 36 1 29 9
M  V30 37 1 36 30
M  V30 38 2 27 11
M  V30 39 1 26 15
M  V30 40 1 25 20
M  V30 41 1 1 37
M  V30 42 1 1 38
M  V30 43 1 1 39
M  V30 44 1 3 40
M  V30 45 1 3 41
M  V30 46 1 4 42 CFG=3
M  V30 47 1 5 43
M  V30 48 1 8 44
M  V30 49 1 10 45
M  V30 50 1 12 46
M  V30 51 1 16 47
M  V30 52 1 17 48
M  V30 53 1 21 49
M  V30 54 1 21 50
M  V30 55 1 22 51
M  V30 56 1 22 52
M  V30 57 1 23 53
M  V30 58 1 24 54
M  V30 59 1 24 55
M  V30 60 1 25 56
M  V30 61 1 25 57
M  V30 62 1 26 58
M  V30 63 1 28 59
M  V30 64 1 31 60
M  V30 65 1 32 61
M  V30 66 1 35 62
M  V30 67 1 36 63
M  V30 END BOND
M  V30 END CTAB
M  END
>  <Dataset>  (932) 
ChEMBL_Kinases

>  <Ligand_Instance>  (932) 
nan

>  <PDB_ID>  (932) 
nan

>  <Standardized_SMILES>  (932) 
COC[C@@H](NC(=O)Nc1cc2[nH]nc(-c3ccnc(N4CCNCC4)c3)c2cn1)c1ccc(F)cc1

>  <Name>  (932) 
nan

>  <Pocket>  (932) 
nan

>  <ATP_Site>  (932) 
nan

>  <Peripheral>  (932) 
nan

>  <Num_H_Atoms_ProtBoundConf>  (932) 
nan

>  <Num_Resolved_Atoms>  (932) 
nan

>  <Num_Not_Resolved_Atoms>  (932) 
nan

$$$$
CHEMBL3658673
     RDKit          3D

  0  0  0  0  0  0  0  0  0  0999 V3000
M  V30 BEGIN CTAB
M  V30 COUNTS 52 55 0 0 0
M  V30 BEGIN ATOM
M  V30 1 C 4.552947 -2.908101 2.720005 0
M  V30 2 O 4.969637 -3.192663 1.427540 0
M  V30 3 C 4.236687 -4.189888 0.842463 0
M  V30 4 C 2.778644 -3.948956 0.692590 0 CFG=1
M  V30 5 N 2.489197 -2.767118 -0.121725 0
M  V30 6 C 1.726661 -1.603293 0.258539 0
M  V30 7 O 1.263501 -1.621340 1.428628 0
M  V30 8 N 1.586775 -0.580925 -0.719545 0
M  V30 9 C 0.806568 0.530550 -0.227818 0
M  V30 10 C 1.288403 1.648687 0.426625 0
M  V30 11 C 0.352829 2.590873 0.808873 0
M  V30 12 N 0.554248 3.756023 1.452903 0
M  V30 13 N -0.641511 4.320811 1.601956 0
M  V30 14 C -1.613750 3.543838 1.066805 0
M  V30 15 C -3.043036 3.842830 1.045258 0
M  V30 16 C -3.557739 5.086573 0.706920 0
M  V30 17 C -4.939692 5.298973 0.708403 0
M  V30 18 C -5.832295 4.304062 1.038783 0
M  V30 19 C -7.305197 4.512858 1.045483 0
M  V30 20 F -7.902137 3.416158 1.638874 0
M  V30 21 F -7.794081 4.633785 -0.225480 0
M  V30 22 F -7.680846 5.621349 1.782681 0
M  V30 23 N -5.313083 3.092102 1.367666 0
M  V30 24 C -3.994685 2.895213 1.364582 0
M  V30 25 C -0.993902 2.423574 0.550187 0
M  V30 26 C -1.439735 1.294696 -0.105419 0
M  V30 27 N -0.526112 0.368578 -0.481906 0
M  V30 28 C 2.179514 -5.157255 0.064539 0
M  V30 29 C 2.267886 -5.443033 -1.292656 0
M  V30 30 C 1.699054 -6.574870 -1.841002 0
M  V30 31 C 1.022601 -7.447565 -1.014253 0
M  V30 32 F 0.439479 -8.583610 -1.500646 0
M  V30 33 C 0.886997 -7.238816 0.350379 0
M  V30 34 C 1.479971 -6.088414 0.829905 0
M  V30 35 H 3.501100 -2.575084 2.733388 0
M  V30 36 H 5.138273 -2.094465 3.180449 0
M  V30 37 H 4.666181 -3.816791 3.380492 0
M  V30 38 H 4.329392 -5.087906 1.523666 0
M  V30 39 H 4.713698 -4.537681 -0.109723 0
M  V30 40 H 2.305240 -3.795189 1.665196 0
M  V30 41 H 2.928118 -2.881126 -1.060719 0
M  V30 42 H 2.027775 -0.683910 -1.677961 0
M  V30 43 H 2.341685 1.675044 0.573469 0
M  V30 44 H 1.465973 4.148074 1.776051 0
M  V30 45 H -2.871715 5.875203 0.446027 0
M  V30 46 H -5.332662 6.279690 0.441030 0
M  V30 47 H -3.706996 1.890599 1.643751 0
M  V30 48 H -2.497043 1.176075 -0.301771 0
M  V30 49 H 2.806609 -4.739271 -1.923717 0
M  V30 50 H 1.785977 -6.773123 -2.917128 0
M  V30 51 H 0.363526 -7.903798 1.022464 0
M  V30 52 H 1.395411 -5.888570 1.898586 0
M  V30 END ATOM
M  V30 BEGIN BOND
M  V30 1 1 1 2
M  V30 2 1 2 3
M  V30 3 1 3 4
M  V30 4 1 4 5
M  V30 5 1 5 6
M  V30 6 2 6 7
M  V30 7 1 6 8
M  V30 8 1 8 9
M  V30 9 2 9 10
M  V30 10 1 10 11
M  V30 11 1 11 12
M  V30 12 1 12 13
M  V30 13 2 13 14
M  V30 14 1 14 15
M  V30 15 2 15 16
M  V30 16 1 16 17
M  V30 17 2 17 18
M  V30 18 1 18 19
M  V30 19 1 19 20
M  V30 20 1 19 21
M  V30 21 1 19 22
M  V30 22 1 18 23
M  V30 23 2 23 24
M  V30 24 1 14 25
M  V30 25 1 25 26
M  V30 26 2 26 27
M  V30 27 1 4 28
M  V30 28 2 28 29
M  V30 29 1 29 30
M  V30 30 2 30 31
M  V30 31 1 31 32
M  V30 32 1 31 33
M  V30 33 2 33 34
M  V30 34 1 27 9
M  V30 35 1 34 28
M  V30 36 2 25 11
M  V30 37 1 24 15
M  V30 38 1 1 35
M  V30 39 1 1 36
M  V30 40 1 1 37
M  V30 41 1 3 38
M  V30 42 1 3 39
M  V30 43 1 4 40 CFG=1
M  V30 44 1 5 41
M  V30 45 1 8 42
M  V30 46 1 10 43
M  V30 47 1 12 44
M  V30 48 1 16 45
M  V30 49 1 17 46
M  V30 50 1 24 47
M  V30 51 1 26 48
M  V30 52 1 29 49
M  V30 53 1 30 50
M  V30 54 1 33 51
M  V30 55 1 34 52
M  V30 END BOND
M  V30 END CTAB
M  END
>  <Dataset>  (933) 
ChEMBL_Kinases

>  <Ligand_Instance>  (933) 
nan

>  <PDB_ID>  (933) 
nan

>  <Standardized_SMILES>  (933) 
COC[C@@H](NC(=O)Nc1cc2[nH]nc(-c3ccc(C(F)(F)F)nc3)c2cn1)c1ccc(F)cc1

>  <Name>  (933) 
nan

>  <Pocket>  (933) 
nan

>  <ATP_Site>  (933) 
nan

>  <Peripheral>  (933) 
nan

>  <Num_H_Atoms_ProtBoundConf>  (933) 
nan

>  <Num_Resolved_Atoms>  (933) 
nan

>  <Num_Not_Resolved_Atoms>  (933) 
nan

$$$$
CHEMBL3658672
     RDKit          3D

  0  0  0  0  0  0  0  0  0  0999 V3000
M  V30 BEGIN CTAB
M  V30 COUNTS 50 53 0 0 0
M  V30 BEGIN ATOM
M  V30 1 C 2.779924 -2.851108 5.947690 0
M  V30 2 O 2.097264 -3.159648 4.767033 0
M  V30 3 C 0.881758 -2.522860 4.733394 0
M  V30 4 C 0.150370 -2.873807 3.432988 0 CFG=1
M  V30 5 N 0.980874 -2.430895 2.325553 0
M  V30 6 C 0.509874 -1.340402 1.548130 0
M  V30 7 O -0.586112 -0.779444 1.809667 0
M  V30 8 N 1.374836 -0.952857 0.471982 0
M  V30 9 C 0.943002 0.140756 -0.339019 0
M  V30 10 C 1.359967 1.385927 0.096048 0
M  V30 11 C 0.977988 2.495290 -0.642803 0
M  V30 12 N 1.173990 3.842377 -0.553485 0
M  V30 13 N 0.560018 4.440832 -1.561898 0
M  V30 14 C -0.056226 3.537687 -2.346629 0
M  V30 15 C -0.817101 3.905194 -3.539702 0
M  V30 16 C -1.664487 4.984349 -3.353542 0
M  V30 17 C -2.458657 5.456376 -4.398897 0
M  V30 18 N -2.399610 4.847590 -5.618656 0
M  V30 19 C -1.566142 3.798971 -5.772785 0
M  V30 20 C -1.514491 3.168160 -7.062032 0
M  V30 21 N -1.483422 2.663445 -8.095055 0
M  V30 22 C -0.760248 3.292730 -4.773612 0
M  V30 23 C 0.192499 2.289860 -1.786073 0
M  V30 24 C -0.212957 1.035701 -2.202578 0
M  V30 25 N 0.185238 -0.013036 -1.448651 0
M  V30 26 C -0.207584 -4.290916 3.384876 0
M  V30 27 C -0.161613 -5.176218 4.463785 0
M  V30 28 C -0.501427 -6.499862 4.396347 0
M  V30 29 C -0.918111 -6.986654 3.171588 0
M  V30 30 F -1.249585 -8.312262 3.140432 0
M  V30 31 C -0.981138 -6.153005 2.074432 0
M  V30 32 C -0.628437 -4.813118 2.178559 0
M  V30 33 H 2.118045 -3.207666 6.782077 0
M  V30 34 H 2.891998 -1.740552 6.056487 0
M  V30 35 H 3.745834 -3.361636 5.972093 0
M  V30 36 H 0.217395 -2.744412 5.596248 0
M  V30 37 H 1.000101 -1.408719 4.757856 0
M  V30 38 H -0.774159 -2.226227 3.470871 0
M  V30 39 H 1.874150 -2.949200 2.176399 0
M  V30 40 H 2.281716 -1.396021 0.233565 0
M  V30 41 H 1.963160 1.575467 0.969184 0
M  V30 42 H 1.729794 4.289019 0.209923 0
M  V30 43 H -1.784567 5.540975 -2.414116 0
M  V30 44 H -3.133359 6.310441 -4.262380 0
M  V30 45 H -0.093847 2.471309 -4.858408 0
M  V30 46 H -0.819888 0.901689 -3.089705 0
M  V30 47 H 0.166168 -4.775926 5.409792 0
M  V30 48 H -0.440247 -7.128534 5.279873 0
M  V30 49 H -1.321091 -6.654293 1.179854 0
M  V30 50 H -0.719937 -4.266303 1.252564 0
M  V30 END ATOM
M  V30 BEGIN BOND
M  V30 1 1 1 2
M  V30 2 1 2 3
M  V30 3 1 3 4
M  V30 4 1 4 5
M  V30 5 1 5 6
M  V30 6 2 6 7
M  V30 7 1 6 8
M  V30 8 1 8 9
M  V30 9 2 9 10
M  V30 10 1 10 11
M  V30 11 1 11 12
M  V30 12 1 12 13
M  V30 13 2 13 14
M  V30 14 1 14 15
M  V30 15 2 15 16
M  V30 16 1 16 17
M  V30 17 2 17 18
M  V30 18 1 18 19
M  V30 19 1 19 20
M  V30 20 3 20 21
M  V30 21 2 19 22
M  V30 22 1 14 23
M  V30 23 1 23 24
M  V30 24 2 24 25
M  V30 25 1 4 26
M  V30 26 2 26 27
M  V30 27 1 27 28
M  V30 28 2 28 29
M  V30 29 1 29 30
M  V30 30 1 29 31
M  V30 31 2 31 32
M  V30 32 1 25 9
M  V30 33 1 32 26
M  V30 34 2 23 11
M  V30 35 1 22 15
M  V30 36 1 1 33
M  V30 37 1 1 34
M  V30 38 1 1 35
M  V30 39 1 3 36
M  V30 40 1 3 37
M  V30 41 1 4 38 CFG=1
M  V30 42 1 5 39
M  V30 43 1 8 40
M  V30 44 1 10 41
M  V30 45 1 12 42
M  V30 46 1 16 43
M  V30 47 1 17 44
M  V30 48 1 22 45
M  V30 49 1 24 46
M  V30 50 1 27 47
M  V30 51 1 28 48
M  V30 52 1 31 49
M  V30 53 1 32 50
M  V30 END BOND
M  V30 END CTAB
M  END
>  <Dataset>  (934) 
ChEMBL_Kinases

>  <Ligand_Instance>  (934) 
nan

>  <PDB_ID>  (934) 
nan

>  <Standardized_SMILES>  (934) 
COC[C@@H](NC(=O)Nc1cc2[nH]nc(-c3ccnc(C#N)c3)c2cn1)c1ccc(F)cc1

>  <Name>  (934) 
nan

>  <Pocket>  (934) 
nan

>  <ATP_Site>  (934) 
nan

>  <Peripheral>  (934) 
nan

>  <Num_H_Atoms_ProtBoundConf>  (934) 
nan

>  <Num_Resolved_Atoms>  (934) 
nan

>  <Num_Not_Resolved_Atoms>  (934) 
nan

$$$$
CHEMBL3658671
     RDKit          3D

  0  0  0  0  0  0  0  0  0  0999 V3000
M  V30 BEGIN CTAB
M  V30 COUNTS 50 53 0 0 0
M  V30 BEGIN ATOM
M  V30 1 C -0.698601 -3.655124 5.390058 0
M  V30 2 O -1.298468 -4.426197 4.456676 0
M  V30 3 C -1.508601 -4.112497 3.197951 0
M  V30 4 C -0.355843 -3.818681 2.292856 0 CFG=1
M  V30 5 N 0.371943 -2.658767 2.731692 0
M  V30 6 C 0.256135 -1.501362 1.870924 0
M  V30 7 O -0.438246 -1.487078 0.791393 0
M  V30 8 N 0.837984 -0.199379 2.001359 0
M  V30 9 C 0.676703 0.895009 1.107773 0
M  V30 10 C 1.317176 2.080777 1.396881 0
M  V30 11 C 1.132740 3.117194 0.501717 0
M  V30 12 N 1.636700 4.365923 0.543171 0
M  V30 13 N 1.193190 5.013599 -0.522498 0
M  V30 14 C 0.403915 4.220517 -1.272481 0
M  V30 15 C -0.285681 4.534810 -2.521166 0
M  V30 16 C -0.329687 3.733021 -3.644120 0
M  V30 17 C -1.021924 4.156409 -4.760491 0
M  V30 18 C -1.669807 5.374988 -4.761463 0
M  V30 19 C -2.401452 5.851736 -5.904178 0
M  V30 20 N -2.988845 6.240731 -6.816700 0
M  V30 21 N -1.624096 6.158282 -3.657922 0
M  V30 22 C -0.953888 5.765232 -2.555665 0
M  V30 23 C 0.341485 2.990079 -0.643746 0
M  V30 24 C -0.274051 1.770100 -0.874238 0
M  V30 25 N -0.089448 0.757775 0.006986 0
M  V30 26 C 0.493111 -5.022986 2.090985 0
M  V30 27 C 1.509554 -5.475934 2.903311 0
M  V30 28 C 2.242204 -6.598834 2.649635 0
M  V30 29 C 1.993371 -7.359444 1.532198 0
M  V30 30 F 2.732359 -8.469447 1.300194 0
M  V30 31 C 1.003795 -6.989579 0.666145 0
M  V30 32 C 0.303803 -5.853551 0.975229 0
M  V30 33 H -0.749539 -4.202255 6.405618 0
M  V30 34 H 0.417693 -3.545391 5.191207 0
M  V30 35 H -1.130473 -2.652274 5.567131 0
M  V30 36 H -2.143525 -4.961072 2.733222 0
M  V30 37 H -2.207562 -3.199057 3.180503 0
M  V30 38 H -0.754714 -3.581039 1.257315 0
M  V30 39 H 1.003179 -2.295672 3.469237 0
M  V30 40 H 1.425914 -0.098075 2.848612 0
M  V30 41 H 1.923940 2.164269 2.283498 0
M  V30 42 H 2.273764 4.812136 1.262790 0
M  V30 43 H 0.190864 2.795726 -3.590327 0
M  V30 44 H -1.047324 3.514315 -5.636260 0
M  V30 45 H -0.938872 6.424742 -1.682598 0
M  V30 46 H -0.890292 1.671127 -1.766374 0
M  V30 47 H 1.729881 -4.907542 3.776378 0
M  V30 48 H 3.030880 -6.883957 3.350040 0
M  V30 49 H 0.754511 -7.539594 -0.230014 0
M  V30 50 H -0.494329 -5.555148 0.276822 0
M  V30 END ATOM
M  V30 BEGIN BOND
M  V30 1 1 1 2
M  V30 2 1 2 3
M  V30 3 1 3 4
M  V30 4 1 4 5
M  V30 5 1 5 6
M  V30 6 2 6 7
M  V30 7 1 6 8
M  V30 8 1 8 9
M  V30 9 2 9 10
M  V30 10 1 10 11
M  V30 11 1 11 12
M  V30 12 1 12 13
M  V30 13 2 13 14
M  V30 14 1 14 15
M  V30 15 2 15 16
M  V30 16 1 16 17
M  V30 17 2 17 18
M  V30 18 1 18 19
M  V30 19 3 19 20
M  V30 20 1 18 21
M  V30 21 2 21 22
M  V30 22 1 14 23
M  V30 23 1 23 24
M  V30 24 2 24 25
M  V30 25 1 4 26
M  V30 26 2 26 27
M  V30 27 1 27 28
M  V30 28 2 28 29
M  V30 29 1 29 30
M  V30 30 1 29 31
M  V30 31 2 31 32
M  V30 32 1 25 9
M  V30 33 1 32 26
M  V30 34 2 23 11
M  V30 35 1 22 15
M  V30 36 1 1 33
M  V30 37 1 1 34
M  V30 38 1 1 35
M  V30 39 1 3 36
M  V30 40 1 3 37
M  V30 41 1 4 38 CFG=3
M  V30 42 1 5 39
M  V30 43 1 8 40
M  V30 44 1 10 41
M  V30 45 1 12 42
M  V30 46 1 16 43
M  V30 47 1 17 44
M  V30 48 1 22 45
M  V30 49 1 24 46
M  V30 50 1 27 47
M  V30 51 1 28 48
M  V30 52 1 31 49
M  V30 53 1 32 50
M  V30 END BOND
M  V30 END CTAB
M  END
>  <Dataset>  (935) 
ChEMBL_Kinases

>  <Ligand_Instance>  (935) 
nan

>  <PDB_ID>  (935) 
nan

>  <Standardized_SMILES>  (935) 
COC[C@@H](NC(=O)Nc1cc2[nH]nc(-c3ccc(C#N)nc3)c2cn1)c1ccc(F)cc1

>  <Name>  (935) 
nan

>  <Pocket>  (935) 
nan

>  <ATP_Site>  (935) 
nan

>  <Peripheral>  (935) 
nan

>  <Num_H_Atoms_ProtBoundConf>  (935) 
nan

>  <Num_Resolved_Atoms>  (935) 
nan

>  <Num_Not_Resolved_Atoms>  (935) 
nan

$$$$
CHEMBL3658670
     RDKit          3D

  0  0  0  0  0  0  0  0  0  0999 V3000
M  V30 BEGIN CTAB
M  V30 COUNTS 53 56 0 0 0
M  V30 BEGIN ATOM
M  V30 1 C 2.378161 -2.416169 6.793432 0
M  V30 2 O 2.021084 -2.856352 5.519707 0
M  V30 3 C 0.741433 -2.463324 5.169297 0
M  V30 4 C 0.432759 -2.981278 3.774075 0 CFG=1
M  V30 5 N 1.435287 -2.383837 2.901341 0
M  V30 6 C 1.040306 -1.470472 1.868720 0
M  V30 7 O -0.188007 -1.203839 1.741427 0
M  V30 8 N 1.957834 -0.858804 0.992240 0
M  V30 9 C 1.496586 0.052339 -0.027275 0
M  V30 10 C 2.411888 0.658980 -0.897099 0
M  V30 11 C 1.866715 1.513385 -1.835411 0
M  V30 12 N 2.424826 2.256469 -2.812798 0
M  V30 13 N 1.492644 2.942572 -3.488933 0
M  V30 14 C 0.274188 2.666558 -2.967824 0
M  V30 15 C -0.998860 3.218587 -3.430012 0
M  V30 16 C -1.080663 4.584627 -3.698276 0
M  V30 17 N -2.196777 5.203950 -4.127807 0
M  V30 18 C -3.324684 4.505917 -4.324510 0
M  V30 19 C -3.314360 3.130614 -4.074971 0
M  V30 20 O -4.407228 2.289478 -4.236014 0
M  V30 21 C -5.664924 2.734335 -4.674732 0
M  V30 22 C -2.165363 2.509444 -3.635726 0
M  V30 23 C 0.514261 1.771878 -1.933637 0
M  V30 24 C -0.351601 1.148594 -1.051602 0
M  V30 25 N 0.180812 0.315570 -0.136913 0
M  V30 26 C 0.431487 -4.450913 3.732465 0
M  V30 27 C 0.504922 -5.055295 2.478174 0
M  V30 28 C 0.502453 -6.453525 2.459631 0
M  V30 29 C 0.432986 -7.242847 3.587765 0
M  V30 30 F 0.436924 -8.604948 3.463269 0
M  V30 31 C 0.360925 -6.620207 4.819829 0
M  V30 32 C 0.361210 -5.242910 4.874081 0
M  V30 33 H 1.737476 -2.779311 7.596526 0
M  V30 34 H 3.444252 -2.652625 6.957866 0
M  V30 35 H 2.320784 -1.290146 6.731979 0
M  V30 36 H 0.656558 -1.349818 5.097000 0
M  V30 37 H -0.049256 -2.775954 5.856234 0
M  V30 38 H -0.552611 -2.575883 3.442501 0
M  V30 39 H 2.459161 -2.580784 2.977129 0
M  V30 40 H 2.968075 -1.058576 1.073509 0
M  V30 41 H 3.453779 0.466801 -0.829770 0
M  V30 42 H 3.448112 2.324761 -3.054594 0
M  V30 43 H -0.163350 5.175015 -3.542370 0
M  V30 44 H -4.233302 4.937734 -4.661223 0
M  V30 45 H -6.302538 3.091163 -3.852965 0
M  V30 46 H -6.228816 1.945671 -5.221250 0
M  V30 47 H -5.580019 3.595886 -5.400116 0
M  V30 48 H -2.110316 1.450736 -3.430138 0
M  V30 49 H -1.418811 1.344499 -1.119460 0
M  V30 50 H 0.560682 -4.498447 1.569418 0
M  V30 51 H 0.558447 -6.977469 1.500698 0
M  V30 52 H 0.305545 -7.217676 5.720622 0
M  V30 53 H 0.304988 -4.788138 5.834093 0
M  V30 END ATOM
M  V30 BEGIN BOND
M  V30 1 1 1 2
M  V30 2 1 2 3
M  V30 3 1 3 4
M  V30 4 1 4 5
M  V30 5 1 5 6
M  V30 6 2 6 7
M  V30 7 1 6 8
M  V30 8 1 8 9
M  V30 9 2 9 10
M  V30 10 1 10 11
M  V30 11 1 11 12
M  V30 12 1 12 13
M  V30 13 2 13 14
M  V30 14 1 14 15
M  V30 15 2 15 16
M  V30 16 1 16 17
M  V30 17 2 17 18
M  V30 18 1 18 19
M  V30 19 1 19 20
M  V30 20 1 20 21
M  V30 21 2 19 22
M  V30 22 1 14 23
M  V30 23 1 23 24
M  V30 24 2 24 25
M  V30 25 1 4 26
M  V30 26 2 26 27
M  V30 27 1 27 28
M  V30 28 2 28 29
M  V30 29 1 29 30
M  V30 30 1 29 31
M  V30 31 2 31 32
M  V30 32 1 25 9
M  V30 33 1 32 26
M  V30 34 2 23 11
M  V30 35 1 22 15
M  V30 36 1 1 33
M  V30 37 1 1 34
M  V30 38 1 1 35
M  V30 39 1 3 36
M  V30 40 1 3 37
M  V30 41 1 4 38 CFG=3
M  V30 42 1 5 39
M  V30 43 1 8 40
M  V30 44 1 10 41
M  V30 45 1 12 42
M  V30 46 1 16 43
M  V30 47 1 18 44
M  V30 48 1 21 45
M  V30 49 1 21 46
M  V30 50 1 21 47
M  V30 51 1 22 48
M  V30 52 1 24 49
M  V30 53 1 27 50
M  V30 54 1 28 51
M  V30 55 1 31 52
M  V30 56 1 32 53
M  V30 END BOND
M  V30 END CTAB
M  END
>  <Dataset>  (936) 
ChEMBL_Kinases

>  <Ligand_Instance>  (936) 
nan

>  <PDB_ID>  (936) 
nan

>  <Standardized_SMILES>  (936) 
COC[C@@H](NC(=O)Nc1cc2[nH]nc(-c3cncc(OC)c3)c2cn1)c1ccc(F)cc1

>  <Name>  (936) 
nan

>  <Pocket>  (936) 
nan

>  <ATP_Site>  (936) 
nan

>  <Peripheral>  (936) 
nan

>  <Num_H_Atoms_ProtBoundConf>  (936) 
nan

>  <Num_Resolved_Atoms>  (936) 
nan

>  <Num_Not_Resolved_Atoms>  (936) 
nan

$$$$
CHEMBL3658669
     RDKit          3D

  0  0  0  0  0  0  0  0  0  0999 V3000
M  V30 BEGIN CTAB
M  V30 COUNTS 55 59 0 0 0
M  V30 BEGIN ATOM
M  V30 1 C 5.010915 -4.202822 2.170531 0
M  V30 2 O 4.265195 -3.467956 1.250283 0
M  V30 3 C 4.970648 -3.177266 0.104856 0
M  V30 4 C 4.099902 -2.391127 -0.822552 0 CFG=1
M  V30 5 N 3.649543 -1.137766 -0.244841 0
M  V30 6 C 2.268223 -0.886304 -0.037339 0
M  V30 7 O 1.439362 -1.783102 -0.369009 0
M  V30 8 N 1.885386 0.351989 0.528994 0
M  V30 9 C 0.480267 0.533150 0.707523 0
M  V30 10 C -0.190839 1.106119 -0.358906 0
M  V30 11 C -1.553895 1.331751 -0.303696 0
M  V30 12 N -2.512136 1.844642 -1.103705 0
M  V30 13 N -3.667679 1.787232 -0.468072 0
M  V30 14 C -3.514339 1.243182 0.753782 0
M  V30 15 C -4.651201 1.069684 1.656300 0
M  V30 16 C -4.904469 -0.078015 2.383212 0
M  V30 17 C -5.993334 -0.194786 3.224222 0
M  V30 18 C -6.841970 0.877646 3.328050 0
M  V30 19 C -6.665642 2.065568 2.637581 0
M  V30 20 C -5.548495 2.135775 1.798239 0
M  V30 21 N -7.630319 2.949659 2.914433 0
M  V30 22 N -8.442589 2.337877 3.790574 0
M  V30 23 N -7.983275 1.117014 4.038029 0
M  V30 24 C -8.547304 0.103179 4.925673 0
M  V30 25 C -2.170600 0.944538 0.879809 0
M  V30 26 C -1.519801 0.371554 1.955050 0
M  V30 27 N -0.187360 0.174168 1.846204 0
M  V30 28 C 4.726611 -2.179901 -2.159128 0
M  V30 29 C 4.432557 -2.990805 -3.237324 0
M  V30 30 C 4.965645 -2.864735 -4.502748 0
M  V30 31 C 5.876273 -1.820490 -4.678423 0
M  V30 32 F 6.376457 -1.738542 -5.952821 0
M  V30 33 C 6.202938 -0.990639 -3.650694 0
M  V30 34 C 5.634049 -1.169114 -2.405577 0
M  V30 35 H 5.354904 -5.190437 1.756726 0
M  V30 36 H 5.911765 -3.651074 2.520854 0
M  V30 37 H 4.366250 -4.459594 3.032309 0
M  V30 38 H 5.944306 -2.709544 0.306447 0
M  V30 39 H 5.196855 -4.139478 -0.405191 0
M  V30 40 H 3.180730 -2.983181 -1.015025 0
M  V30 41 H 4.393198 -0.440727 0.005918 0
M  V30 42 H 2.563032 1.098853 0.806114 0
M  V30 43 H 0.327644 1.399104 -1.276825 0
M  V30 44 H -2.275180 2.206596 -2.063183 0
M  V30 45 H -4.213927 -0.908707 2.278830 0
M  V30 46 H -6.184682 -1.096605 3.789883 0
M  V30 47 H -5.392720 3.056180 1.249428 0
M  V30 48 H -7.843395 -0.053626 5.762104 0
M  V30 49 H -8.759910 -0.848045 4.390454 0
M  V30 50 H -9.529203 0.464336 5.284854 0
M  V30 51 H -2.053830 0.089745 2.853227 0
M  V30 52 H 3.710091 -3.799534 -3.050635 0
M  V30 53 H 4.646753 -3.570355 -5.255657 0
M  V30 54 H 6.926409 -0.190131 -3.860019 0
M  V30 55 H 5.917264 -0.486070 -1.601875 0
M  V30 END ATOM
M  V30 BEGIN BOND
M  V30 1 1 1 2
M  V30 2 1 2 3
M  V30 3 1 3 4
M  V30 4 1 4 5
M  V30 5 1 5 6
M  V30 6 2 6 7
M  V30 7 1 6 8
M  V30 8 1 8 9
M  V30 9 2 9 10
M  V30 10 1 10 11
M  V30 11 1 11 12
M  V30 12 1 12 13
M  V30 13 2 13 14
M  V30 14 1 14 15
M  V30 15 2 15 16
M  V30 16 1 16 17
M  V30 17 2 17 18
M  V30 18 1 18 19
M  V30 19 2 19 20
M  V30 20 1 19 21
M  V30 21 2 21 22
M  V30 22 1 22 23
M  V30 23 1 23 24
M  V30 24 1 14 25
M  V30 25 1 25 26
M  V30 26 2 26 27
M  V30 27 1 4 28
M  V30 28 2 28 29
M  V30 29 1 29 30
M  V30 30 2 30 31
M  V30 31 1 31 32
M  V30 32 1 31 33
M  V30 33 2 33 34
M  V30 34 1 27 9
M  V30 35 1 34 28
M  V30 36 2 25 11
M  V30 37 1 20 15
M  V30 38 1 23 18
M  V30 39 1 1 35
M  V30 40 1 1 36
M  V30 41 1 1 37
M  V30 42 1 3 38
M  V30 43 1 3 39
M  V30 44 1 4 40 CFG=3
M  V30 45 1 5 41
M  V30 46 1 8 42
M  V30 47 1 10 43
M  V30 48 1 12 44
M  V30 49 1 16 45
M  V30 50 1 17 46
M  V30 51 1 20 47
M  V30 52 1 24 48
M  V30 53 1 24 49
M  V30 54 1 24 50
M  V30 55 1 26 51
M  V30 56 1 29 52
M  V30 57 1 30 53
M  V30 58 1 33 54
M  V30 59 1 34 55
M  V30 END BOND
M  V30 END CTAB
M  END
>  <Dataset>  (937) 
ChEMBL_Kinases

>  <Ligand_Instance>  (937) 
nan

>  <PDB_ID>  (937) 
nan

>  <Standardized_SMILES>  (937) 
COC[C@@H](NC(=O)Nc1cc2[nH]nc(-c3ccc4c(c3)nnn4C)c2cn1)c1ccc(F)cc1

>  <Name>  (937) 
nan

>  <Pocket>  (937) 
nan

>  <ATP_Site>  (937) 
nan

>  <Peripheral>  (937) 
nan

>  <Num_H_Atoms_ProtBoundConf>  (937) 
nan

>  <Num_Resolved_Atoms>  (937) 
nan

>  <Num_Not_Resolved_Atoms>  (937) 
nan

$$$$
CHEMBL3658684
     RDKit          3D

  0  0  0  0  0  0  0  0  0  0999 V3000
M  V30 BEGIN CTAB
M  V30 COUNTS 45 48 0 0 0
M  V30 BEGIN ATOM
M  V30 1 C -0.645984 -7.622554 -1.400670 0
M  V30 2 N 0.052765 -6.358233 -1.515449 0
M  V30 3 C 0.125151 -5.995482 -2.926464 0
M  V30 4 C 0.326801 -4.474800 -2.933797 0
M  V30 5 C 0.057622 -4.105229 -1.502087 0 CFG=1
M  V30 6 N -0.477997 -2.814181 -1.296007 0
M  V30 7 C 0.081306 -1.772808 -0.539496 0
M  V30 8 O 1.176499 -1.890650 0.064683 0
M  V30 9 N -0.638709 -0.568349 -0.478395 0
M  V30 10 C -0.177565 0.565807 0.257379 0
M  V30 11 C 0.627514 1.554714 -0.285622 0
M  V30 12 C 1.017471 2.610304 0.514554 0
M  V30 13 N 1.776437 3.697595 0.288517 0
M  V30 14 N 1.869919 4.438401 1.379725 0
M  V30 15 C 1.164910 3.866773 2.398003 0
M  V30 16 C 0.986214 4.327907 3.773603 0
M  V30 17 C -0.246997 4.319484 4.394007 0
M  V30 18 C -0.441378 4.749607 5.691610 0
M  V30 19 C 0.649191 5.220705 6.432323 0
M  V30 20 F 0.553389 5.663507 7.713733 0
M  V30 21 C 1.876309 5.217420 5.782540 0
M  V30 22 C 2.097545 4.793075 4.486985 0
M  V30 23 C 0.630397 2.710075 1.836298 0
M  V30 24 C -0.167669 1.696755 2.313672 0
M  V30 25 N -0.556125 0.661682 1.546913 0
M  V30 26 C -0.785458 -5.249212 -1.044522 0
M  V30 27 H -0.238075 -8.351802 -2.147151 0
M  V30 28 H -0.516097 -8.065497 -0.388911 0
M  V30 29 H -1.729594 -7.502302 -1.620788 0
M  V30 30 H -0.863363 -6.177054 -3.422396 0
M  V30 31 H 0.911082 -6.529166 -3.464422 0
M  V30 32 H -0.418372 -3.959419 -3.566758 0
M  V30 33 H 1.369471 -4.238039 -3.238932 0
M  V30 34 H 1.019641 -4.183351 -0.960823 0
M  V30 35 H -1.386505 -2.738222 -1.806083 0
M  V30 36 H -1.563386 -0.421346 -0.969181 0
M  V30 37 H 0.927972 1.469953 -1.325096 0
M  V30 38 H 2.222892 3.907585 -0.636592 0
M  V30 39 H -1.122644 3.971168 3.882485 0
M  V30 40 H -1.388795 4.756896 6.206500 0
M  V30 41 H 2.732004 5.588364 6.367360 0
M  V30 42 H 3.092111 4.825937 4.059145 0
M  V30 43 H -0.503441 1.717230 3.338434 0
M  V30 44 H -0.905546 -5.308711 0.052712 0
M  V30 45 H -1.742081 -5.377543 -1.591396 0
M  V30 END ATOM
M  V30 BEGIN BOND
M  V30 1 1 1 2
M  V30 2 1 2 3
M  V30 3 1 3 4
M  V30 4 1 4 5
M  V30 5 1 5 6
M  V30 6 1 6 7
M  V30 7 2 7 8
M  V30 8 1 7 9
M  V30 9 1 9 10
M  V30 10 2 10 11
M  V30 11 1 11 12
M  V30 12 1 12 13
M  V30 13 1 13 14
M  V30 14 2 14 15
M  V30 15 1 15 16
M  V30 16 2 16 17
M  V30 17 1 17 18
M  V30 18 2 18 19
M  V30 19 1 19 20
M  V30 20 1 19 21
M  V30 21 2 21 22
M  V30 22 1 15 23
M  V30 23 1 23 24
M  V30 24 2 24 25
M  V30 25 1 5 26
M  V30 26 1 26 2
M  V30 27 1 25 10
M  V30 28 2 23 12
M  V30 29 1 22 16
M  V30 30 1 1 27
M  V30 31 1 1 28
M  V30 32 1 1 29
M  V30 33 1 3 30
M  V30 34 1 3 31
M  V30 35 1 4 32
M  V30 36 1 4 33
M  V30 37 1 5 34 CFG=1
M  V30 38 1 6 35
M  V30 39 1 9 36
M  V30 40 1 11 37
M  V30 41 1 13 38
M  V30 42 1 17 39
M  V30 43 1 18 40
M  V30 44 1 21 41
M  V30 45 1 22 42
M  V30 46 1 24 43
M  V30 47 1 26 44
M  V30 48 1 26 45
M  V30 END BOND
M  V30 END CTAB
M  END
>  <Dataset>  (938) 
ChEMBL_Kinases

>  <Ligand_Instance>  (938) 
nan

>  <PDB_ID>  (938) 
nan

>  <Standardized_SMILES>  (938) 
CN1CC[C@@H](NC(=O)Nc2cc3[nH]nc(-c4ccc(F)cc4)c3cn2)C1

>  <Name>  (938) 
nan

>  <Pocket>  (938) 
nan

>  <ATP_Site>  (938) 
nan

>  <Peripheral>  (938) 
nan

>  <Num_H_Atoms_ProtBoundConf>  (938) 
nan

>  <Num_Resolved_Atoms>  (938) 
nan

>  <Num_Not_Resolved_Atoms>  (938) 
nan

$$$$
CHEMBL3658732
     RDKit          3D

  0  0  0  0  0  0  0  0  0  0999 V3000
M  V30 BEGIN CTAB
M  V30 COUNTS 48 52 0 0 0
M  V30 BEGIN ATOM
M  V30 1 C -3.300887 -5.453860 0.072161 0
M  V30 2 C -2.031431 -5.853827 -0.590407 0
M  V30 3 C -0.872067 -5.143609 -0.338984 0
M  V30 4 C 0.389853 -5.389665 -0.876684 0
M  V30 5 C 1.523544 -4.548774 -0.519270 0
M  V30 6 N 2.748280 -4.980047 -0.171386 0
M  V30 7 N 3.530701 -3.926147 0.087548 0
M  V30 8 C 2.776478 -2.828242 -0.103976 0
M  V30 9 C 3.166403 -1.520537 0.045291 0
M  V30 10 C 2.220301 -0.542566 -0.207582 0
M  V30 11 N 2.350763 0.889412 -0.128172 0
M  V30 12 C 2.041408 1.541131 1.101056 0
M  V30 13 O 1.663441 0.820582 2.059231 0
M  V30 14 N 2.148531 2.929552 1.252714 0
M  V30 15 C 1.869038 3.735736 2.427137 0
M  V30 16 C 0.391746 3.870404 2.555871 0
M  V30 17 C -0.434806 3.016681 3.267483 0
M  V30 18 C -1.799890 3.211649 3.334749 0
M  V30 19 C -2.404911 4.272721 2.691641 0
M  V30 20 N -3.702199 4.628354 2.637401 0
M  V30 21 C -3.728613 5.746967 1.868611 0
M  V30 22 N -2.474537 6.042057 1.479884 0
M  V30 23 C -1.607127 5.139627 1.975257 0
M  V30 24 C -0.244492 4.929855 1.918729 0
M  V30 25 N 0.953564 -0.875544 -0.589466 0
M  V30 26 C 0.581673 -2.173846 -0.733022 0
M  V30 27 C 1.503541 -3.170290 -0.487438 0
M  V30 28 C 0.435687 -6.478544 -1.755529 0
M  V30 29 C -0.719066 -7.200749 -2.017904 0
M  V30 30 N -1.894260 -6.883755 -1.447412 0
M  V30 31 H -4.035307 -6.258732 0.059852 0
M  V30 32 H -3.736291 -4.577395 -0.454089 0
M  V30 33 H -3.093057 -5.114916 1.117450 0
M  V30 34 H -0.962775 -4.307087 0.355582 0
M  V30 35 H 4.534983 -3.978305 0.380790 0
M  V30 36 H 4.106597 -1.115621 0.332627 0
M  V30 37 H 2.671301 1.481014 -0.950283 0
M  V30 38 H 2.479638 3.445958 0.383305 0
M  V30 39 H 2.188995 3.128340 3.300506 0
M  V30 40 H 2.378879 4.696561 2.356702 0
M  V30 41 H 0.017720 2.198045 3.766338 0
M  V30 42 H -2.418001 2.514097 3.908475 0
M  V30 43 H -4.534242 4.173020 3.074429 0
M  V30 44 H -4.669802 6.273939 1.643917 0
M  V30 45 H 0.352710 5.641790 1.338638 0
M  V30 46 H -0.409341 -2.451807 -1.033832 0
M  V30 47 H 1.414291 -6.693525 -2.191225 0
M  V30 48 H -0.622940 -8.027312 -2.701989 0
M  V30 END ATOM
M  V30 BEGIN BOND
M  V30 1 1 1 2
M  V30 2 2 2 3
M  V30 3 1 3 4
M  V30 4 1 4 5
M  V30 5 2 5 6
M  V30 6 1 6 7
M  V30 7 1 7 8
M  V30 8 2 8 9
M  V30 9 1 9 10
M  V30 10 1 10 11
M  V30 11 1 11 12
M  V30 12 2 12 13
M  V30 13 1 12 14
M  V30 14 1 14 15
M  V30 15 1 15 16
M  V30 16 2 16 17
M  V30 17 1 17 18
M  V30 18 2 18 19
M  V30 19 1 19 20
M  V30 20 1 20 21
M  V30 21 2 21 22
M  V30 22 1 22 23
M  V30 23 2 23 24
M  V30 24 2 10 25
M  V30 25 1 25 26
M  V30 26 2 26 27
M  V30 27 2 4 28
M  V30 28 1 28 29
M  V30 29 2 29 30
M  V30 30 1 30 2
M  V30 31 1 27 5
M  V30 32 1 27 8
M  V30 33 1 24 16
M  V30 34 1 23 19
M  V30 35 1 1 31
M  V30 36 1 1 32
M  V30 37 1 1 33
M  V30 38 1 3 34
M  V30 39 1 7 35
M  V30 40 1 9 36
M  V30 41 1 11 37
M  V30 42 1 14 38
M  V30 43 1 15 39
M  V30 44 1 15 40
M  V30 45 1 17 41
M  V30 46 1 18 42
M  V30 47 1 20 43
M  V30 48 1 21 44
M  V30 49 1 24 45
M  V30 50 1 26 46
M  V30 51 1 28 47
M  V30 52 1 29 48
M  V30 END BOND
M  V30 END CTAB
M  END
>  <Dataset>  (939) 
ChEMBL_Kinases

>  <Ligand_Instance>  (939) 
nan

>  <PDB_ID>  (939) 
nan

>  <Standardized_SMILES>  (939) 
Cc1cc(-c2n[nH]c3cc(NC(=O)NCc4ccc5[nH]cnc5c4)ncc23)ccn1

>  <Name>  (939) 
nan

>  <Pocket>  (939) 
nan

>  <ATP_Site>  (939) 
nan

>  <Peripheral>  (939) 
nan

>  <Num_H_Atoms_ProtBoundConf>  (939) 
nan

>  <Num_Resolved_Atoms>  (939) 
nan

>  <Num_Not_Resolved_Atoms>  (939) 
nan

$$$$
CHEMBL3658731
     RDKit          3D

  0  0  0  0  0  0  0  0  0  0999 V3000
M  V30 BEGIN CTAB
M  V30 COUNTS 51 55 0 0 0
M  V30 BEGIN ATOM
M  V30 1 C -2.774951 -2.944750 -6.401160 0
M  V30 2 C -2.069820 -3.956640 -5.567029 0
M  V30 3 C -1.772029 -3.604641 -4.275699 0
M  V30 4 C -1.119013 -4.504866 -3.445317 0
M  V30 5 C -0.722541 -4.317809 -2.059969 0
M  V30 6 N -0.945970 -5.254956 -1.094764 0
M  V30 7 N -0.486382 -4.820735 0.065588 0
M  V30 8 C 0.056615 -3.598200 -0.059585 0
M  V30 9 C 0.671755 -2.665712 0.748873 0
M  V30 10 C 1.132439 -1.445003 0.249541 0
M  V30 11 N 1.716604 -0.672167 1.284164 0
M  V30 12 C 0.927597 0.246844 2.032851 0
M  V30 13 O -0.289310 0.327697 1.711180 0
M  V30 14 N 1.332600 1.084409 3.095975 0
M  V30 15 C 0.544010 1.995972 3.832717 0 CFG=2
M  V30 16 C 1.000501 3.408009 3.896765 0 CFG=2
M  V30 17 C 2.178340 3.774700 3.066665 0
M  V30 18 O 3.342651 3.106244 3.329198 0
M  V30 19 C 1.256177 3.591009 5.379203 0 CFG=1
M  V30 20 C -0.074334 3.901376 6.018635 0
M  V30 21 C -0.770420 2.558705 5.811480 0
M  V30 22 C 0.352104 1.674560 5.285475 0 CFG=2
M  V30 23 O 1.470598 2.279144 5.853550 0
M  V30 24 N 0.960068 -1.193351 -1.059979 0
M  V30 25 C 0.357992 -2.087799 -1.888248 0
M  V30 26 C -0.093763 -3.286017 -1.395768 0
M  V30 27 C -0.810522 -5.737632 -4.021010 0
M  V30 28 C -1.126514 -6.051607 -5.320306 0
M  V30 29 N -1.764597 -5.159416 -6.116160 0
M  V30 30 H -3.771203 -2.716568 -5.934053 0
M  V30 31 H -2.197135 -2.050603 -6.623575 0
M  V30 32 H -3.042019 -3.409980 -7.393096 0
M  V30 33 H -1.996250 -2.669011 -3.811120 0
M  V30 34 H -0.531726 -5.344050 0.965847 0
M  V30 35 H 0.736181 -3.017646 1.789136 0
M  V30 36 H 2.702312 -0.626851 1.664950 0
M  V30 37 H 2.359094 1.000592 3.358443 0
M  V30 38 H -0.497599 1.987416 3.390007 0
M  V30 39 H 0.184802 4.134685 3.626754 0
M  V30 40 H 1.871621 3.741081 1.999675 0
M  V30 41 H 2.378290 4.861421 3.275481 0
M  V30 42 H 3.469698 3.052579 4.292644 0
M  V30 43 H 2.048438 4.283645 5.622297 0
M  V30 44 H -0.565846 4.713158 5.440198 0
M  V30 45 H 0.094596 4.153288 7.063604 0
M  V30 46 H -1.228618 2.179855 6.736879 0
M  V30 47 H -1.518409 2.691514 4.995924 0
M  V30 48 H 0.213146 0.622724 5.516472 0
M  V30 49 H 0.252582 -1.821022 -2.930147 0
M  V30 50 H -0.295621 -6.543102 -3.485672 0
M  V30 51 H -0.898513 -6.997201 -5.792856 0
M  V30 END ATOM
M  V30 BEGIN BOND
M  V30 1 1 1 2
M  V30 2 2 2 3
M  V30 3 1 3 4
M  V30 4 1 4 5
M  V30 5 2 5 6
M  V30 6 1 6 7
M  V30 7 1 7 8
M  V30 8 2 8 9
M  V30 9 1 9 10
M  V30 10 1 10 11
M  V30 11 1 11 12
M  V30 12 2 12 13
M  V30 13 1 12 14
M  V30 14 1 14 15
M  V30 15 1 15 16
M  V30 16 1 16 17
M  V30 17 1 17 18
M  V30 18 1 16 19
M  V30 19 1 19 20
M  V30 20 1 20 21
M  V30 21 1 21 22
M  V30 22 1 22 23
M  V30 23 2 10 24
M  V30 24 1 24 25
M  V30 25 2 25 26
M  V30 26 2 4 27
M  V30 27 1 27 28
M  V30 28 2 28 29
M  V30 29 1 29 2
M  V30 30 1 26 5
M  V30 31 1 26 8
M  V30 32 1 22 15
M  V30 33 1 23 19
M  V30 34 1 1 30
M  V30 35 1 1 31
M  V30 36 1 1 32
M  V30 37 1 3 33
M  V30 38 1 7 34
M  V30 39 1 9 35
M  V30 40 1 11 36
M  V30 41 1 14 37
M  V30 42 1 15 38 CFG=3
M  V30 43 1 16 39 CFG=3
M  V30 44 1 17 40
M  V30 45 1 17 41
M  V30 46 1 18 42
M  V30 47 1 19 43 CFG=3
M  V30 48 1 20 44
M  V30 49 1 20 45
M  V30 50 1 21 46
M  V30 51 1 21 47
M  V30 52 1 22 48 CFG=3
M  V30 53 1 25 49
M  V30 54 1 27 50
M  V30 55 1 28 51
M  V30 END BOND
M  V30 END CTAB
M  END
>  <Dataset>  (940) 
ChEMBL_Kinases

>  <Ligand_Instance>  (940) 
nan

>  <PDB_ID>  (940) 
nan

>  <Standardized_SMILES>  (940) 
Cc1cc(-c2n[nH]c3cc(NC(=O)N[C@@H]4[C@H](CO)[C@H]5CC[C@@H]4O5)ncc23)ccn1

>  <Name>  (940) 
nan

>  <Pocket>  (940) 
nan

>  <ATP_Site>  (940) 
nan

>  <Peripheral>  (940) 
nan

>  <Num_H_Atoms_ProtBoundConf>  (940) 
nan

>  <Num_Resolved_Atoms>  (940) 
nan

>  <Num_Not_Resolved_Atoms>  (940) 
nan

$$$$
CHEMBL3658730
     RDKit          3D

  0  0  0  0  0  0  0  0  0  0999 V3000
M  V30 BEGIN CTAB
M  V30 COUNTS 53 56 0 0 0
M  V30 BEGIN ATOM
M  V30 1 C -0.413987 -5.587229 4.018955 0
M  V30 2 C 1.034413 -5.243154 3.853586 0
M  V30 3 C 1.370388 -3.907502 3.702740 0
M  V30 4 C 2.705072 -3.658265 3.556512 0
M  V30 5 C 3.237695 -2.292889 3.384671 0
M  V30 6 N 4.311490 -1.782179 4.020698 0
M  V30 7 N 4.527306 -0.528869 3.644194 0
M  V30 8 C 3.598125 -0.159941 2.738424 0
M  V30 9 C 3.307939 0.990008 2.001972 0
M  V30 10 C 2.237723 1.027496 1.128484 0
M  V30 11 N 1.934926 2.197267 0.373425 0
M  V30 12 C 0.834922 2.206955 -0.512004 0
M  V30 13 O 0.106419 1.193338 -0.651752 0
M  V30 14 N 0.589767 3.398372 -1.230065 0
M  V30 15 C -0.446373 3.692330 -2.188761 0
M  V30 16 C -1.368897 2.582464 -2.444526 0
M  V30 17 C -1.010965 1.728336 -3.467897 0
M  V30 18 C -1.815255 0.633103 -3.802300 0
M  V30 19 C -2.978313 0.413024 -3.094295 0
M  V30 20 C -3.359749 1.249489 -2.068144 0
M  V30 21 N -4.501536 1.187160 -1.238642 0
M  V30 22 S -5.026780 -0.297432 -0.529933 0
M  V30 23 C -5.457894 -1.500096 -1.741986 0
M  V30 24 O -6.177553 -0.078713 0.391255 0
M  V30 25 O -3.880734 -0.772812 0.342156 0
M  V30 26 C -2.538894 2.338463 -1.752055 0
M  V30 27 N 1.483534 -0.081721 1.010718 0
M  V30 28 C 1.713905 -1.226057 1.696807 0
M  V30 29 C 2.783295 -1.260900 2.568474 0
M  V30 30 C 3.621437 -4.694874 3.564310 0
M  V30 31 C 3.233760 -5.998228 3.717065 0
M  V30 32 N 1.928997 -6.249297 3.860681 0
M  V30 33 H -0.779952 -5.055200 4.917319 0
M  V30 34 H -0.556161 -6.665171 4.128486 0
M  V30 35 H -0.948544 -5.173160 3.128140 0
M  V30 36 H 0.676425 -3.096279 3.694478 0
M  V30 37 H 5.277635 0.124022 3.958883 0
M  V30 38 H 3.943383 1.839404 2.138549 0
M  V30 39 H 2.546658 3.037190 0.495641 0
M  V30 40 H 1.198671 4.259038 -1.119142 0
M  V30 41 H -1.041235 4.542367 -1.758155 0
M  V30 42 H -0.031323 4.061893 -3.158930 0
M  V30 43 H -0.124832 1.771705 -4.115955 0
M  V30 44 H -1.590241 -0.071421 -4.592068 0
M  V30 45 H -3.668041 -0.399924 -3.270861 0
M  V30 46 H -5.069906 2.058943 -1.028884 0
M  V30 47 H -5.892336 -1.049317 -2.655308 0
M  V30 48 H -6.269506 -2.163833 -1.322470 0
M  V30 49 H -4.623151 -2.187887 -1.988593 0
M  V30 50 H -2.734925 3.063573 -0.966829 0
M  V30 51 H 1.067602 -2.082801 1.554777 0
M  V30 52 H 4.689337 -4.512697 3.448847 0
M  V30 53 H 3.932323 -6.832077 3.726908 0
M  V30 END ATOM
M  V30 BEGIN BOND
M  V30 1 1 1 2
M  V30 2 2 2 3
M  V30 3 1 3 4
M  V30 4 1 4 5
M  V30 5 2 5 6
M  V30 6 1 6 7
M  V30 7 1 7 8
M  V30 8 2 8 9
M  V30 9 1 9 10
M  V30 10 1 10 11
M  V30 11 1 11 12
M  V30 12 2 12 13
M  V30 13 1 12 14
M  V30 14 1 14 15
M  V30 15 1 15 16
M  V30 16 2 16 17
M  V30 17 1 17 18
M  V30 18 2 18 19
M  V30 19 1 19 20
M  V30 20 1 20 21
M  V30 21 1 21 22
M  V30 22 1 22 23
M  V30 23 2 22 24
M  V30 24 2 22 25
M  V30 25 2 20 26
M  V30 26 2 10 27
M  V30 27 1 27 28
M  V30 28 2 28 29
M  V30 29 2 4 30
M  V30 30 1 30 31
M  V30 31 2 31 32
M  V30 32 1 32 2
M  V30 33 1 29 5
M  V30 34 1 29 8
M  V30 35 1 26 16
M  V30 36 1 1 33
M  V30 37 1 1 34
M  V30 38 1 1 35
M  V30 39 1 3 36
M  V30 40 1 7 37
M  V30 41 1 9 38
M  V30 42 1 11 39
M  V30 43 1 14 40
M  V30 44 1 15 41
M  V30 45 1 15 42
M  V30 46 1 17 43
M  V30 47 1 18 44
M  V30 48 1 19 45
M  V30 49 1 21 46
M  V30 50 1 23 47
M  V30 51 1 23 48
M  V30 52 1 23 49
M  V30 53 1 26 50
M  V30 54 1 28 51
M  V30 55 1 30 52
M  V30 56 1 31 53
M  V30 END BOND
M  V30 END CTAB
M  END
>  <Dataset>  (941) 
ChEMBL_Kinases

>  <Ligand_Instance>  (941) 
nan

>  <PDB_ID>  (941) 
nan

>  <Standardized_SMILES>  (941) 
Cc1cc(-c2n[nH]c3cc(NC(=O)NCc4cccc(NS(C)(=O)=O)c4)ncc23)ccn1

>  <Name>  (941) 
nan

>  <Pocket>  (941) 
nan

>  <ATP_Site>  (941) 
nan

>  <Peripheral>  (941) 
nan

>  <Num_H_Atoms_ProtBoundConf>  (941) 
nan

>  <Num_Resolved_Atoms>  (941) 
nan

>  <Num_Not_Resolved_Atoms>  (941) 
nan

$$$$
CHEMBL3658729
     RDKit          3D

  0  0  0  0  0  0  0  0  0  0999 V3000
M  V30 BEGIN CTAB
M  V30 COUNTS 49 52 0 0 0
M  V30 BEGIN ATOM
M  V30 1 C 5.368047 -4.623576 5.390316 0
M  V30 2 C 4.675974 -5.026321 4.148758 0
M  V30 3 C 4.258228 -4.045813 3.272154 0
M  V30 4 C 3.610564 -4.403826 2.108292 0
M  V30 5 C 3.102680 -3.507201 1.073244 0
M  V30 6 N 3.293536 -3.731346 -0.255994 0
M  V30 7 N 2.720808 -2.751564 -0.946088 0
M  V30 8 C 2.147322 -1.871256 -0.101994 0
M  V30 9 C 1.424957 -0.682841 -0.250856 0
M  V30 10 C 0.984150 -0.038496 0.890006 0
M  V30 11 N 0.260424 1.159408 0.630429 0
M  V30 12 C -1.153566 1.023093 0.471022 0
M  V30 13 O -1.703442 -0.127241 0.563101 0
M  V30 14 N -1.968038 2.156365 0.209061 0
M  V30 15 C -3.403394 2.026726 0.046024 0
M  V30 16 C -4.173450 2.713569 1.149621 0
M  V30 17 O -3.940690 4.063631 1.247703 0
M  V30 18 C -3.849996 2.453108 -1.281290 0
M  V30 19 C -3.444427 3.585134 -1.923495 0
M  V30 20 C -3.900522 3.934442 -3.174252 0
M  V30 21 F -3.514761 5.050356 -3.832735 0
M  V30 22 C -4.805853 3.114606 -3.816743 0
M  V30 23 C -5.276542 1.934368 -3.233838 0
M  V30 24 F -6.157615 1.094755 -3.808346 0
M  V30 25 C -4.765900 1.667550 -1.984617 0
M  V30 26 N 1.221329 -0.507855 2.144673 0
M  V30 27 C 1.923917 -1.665804 2.321034 0
M  V30 28 C 2.377218 -2.331820 1.199764 0
M  V30 29 C 3.411179 -5.751415 1.878601 0
M  V30 30 C 3.846485 -6.717726 2.786294 0
M  V30 31 N 4.486151 -6.347540 3.934058 0
M  V30 32 H 6.457306 -4.815713 5.351588 0
M  V30 33 H 5.208766 -3.545665 5.630452 0
M  V30 34 H 4.948644 -5.181424 6.253187 0
M  V30 35 H 4.396269 -2.992161 3.418635 0
M  V30 36 H 2.664204 -2.590697 -1.989612 0
M  V30 37 H 1.246101 -0.325627 -1.246897 0
M  V30 38 H 0.709197 2.081752 0.557594 0
M  V30 39 H -1.564227 3.126547 0.123832 0
M  V30 40 H -3.616893 0.928464 0.173253 0
M  V30 41 H -5.254611 2.594159 0.873945 0
M  V30 42 H -4.053019 2.213437 2.122147 0
M  V30 43 H -3.259931 4.187543 1.967369 0
M  V30 44 H -2.735175 4.227962 -1.420830 0
M  V30 45 H -5.206813 3.335484 -4.811471 0
M  V30 46 H -5.111427 0.755277 -1.500923 0
M  V30 47 H 2.119805 -2.050603 3.313929 0
M  V30 48 H 2.915518 -6.125009 0.998247 0
M  V30 49 H 3.674414 -7.776645 2.577249 0
M  V30 END ATOM
M  V30 BEGIN BOND
M  V30 1 1 1 2
M  V30 2 2 2 3
M  V30 3 1 3 4
M  V30 4 1 4 5
M  V30 5 2 5 6
M  V30 6 1 6 7
M  V30 7 1 7 8
M  V30 8 2 8 9
M  V30 9 1 9 10
M  V30 10 1 10 11
M  V30 11 1 11 12
M  V30 12 2 12 13
M  V30 13 1 12 14
M  V30 14 1 14 15
M  V30 15 1 15 16
M  V30 16 1 16 17
M  V30 17 1 15 18
M  V30 18 2 18 19
M  V30 19 1 19 20
M  V30 20 1 20 21
M  V30 21 2 20 22
M  V30 22 1 22 23
M  V30 23 1 23 24
M  V30 24 2 23 25
M  V30 25 2 10 26
M  V30 26 1 26 27
M  V30 27 2 27 28
M  V30 28 2 4 29
M  V30 29 1 29 30
M  V30 30 2 30 31
M  V30 31 1 31 2
M  V30 32 1 28 5
M  V30 33 1 28 8
M  V30 34 1 25 18
M  V30 35 1 1 32
M  V30 36 1 1 33
M  V30 37 1 1 34
M  V30 38 1 3 35
M  V30 39 1 7 36
M  V30 40 1 9 37
M  V30 41 1 11 38
M  V30 42 1 14 39
M  V30 43 1 15 40
M  V30 44 1 16 41
M  V30 45 1 16 42
M  V30 46 1 17 43
M  V30 47 1 19 44
M  V30 48 1 22 45
M  V30 49 1 25 46
M  V30 50 1 27 47
M  V30 51 1 29 48
M  V30 52 1 30 49
M  V30 END BOND
M  V30 END CTAB
M  END
>  <Dataset>  (942) 
ChEMBL_Kinases

>  <Ligand_Instance>  (942) 
nan

>  <PDB_ID>  (942) 
nan

>  <Standardized_SMILES>  (942) 
Cc1cc(-c2n[nH]c3cc(NC(=O)NC(CO)c4cc(F)cc(F)c4)ncc23)ccn1

>  <Name>  (942) 
nan

>  <Pocket>  (942) 
nan

>  <ATP_Site>  (942) 
nan

>  <Peripheral>  (942) 
nan

>  <Num_H_Atoms_ProtBoundConf>  (942) 
nan

>  <Num_Resolved_Atoms>  (942) 
nan

>  <Num_Not_Resolved_Atoms>  (942) 
nan

$$$$
CHEMBL3658728
     RDKit          3D

  0  0  0  0  0  0  0  0  0  0999 V3000
M  V30 BEGIN CTAB
M  V30 COUNTS 47 50 0 0 0
M  V30 BEGIN ATOM
M  V30 1 C -6.661617 -1.701171 -3.431484 0
M  V30 2 C -6.211231 -2.051829 -2.062414 0
M  V30 3 C -4.854271 -2.158062 -1.830168 0
M  V30 4 C -4.429958 -2.476838 -0.584294 0
M  V30 5 C -3.090432 -2.656628 -0.042263 0
M  V30 6 N -2.659925 -3.657919 0.767422 0
M  V30 7 N -1.387739 -3.483845 1.061465 0
M  V30 8 C -0.903718 -2.355628 0.461989 0
M  V30 9 C 0.341963 -1.726178 0.443695 0
M  V30 10 C 0.511660 -0.544594 -0.292930 0
M  V30 11 N 1.850774 -0.090610 -0.145093 0
M  V30 12 C 2.131791 0.852629 0.905823 0
M  V30 13 O 1.233195 1.298579 1.663654 0
M  V30 14 N 3.487948 1.254465 1.041467 0
M  V30 15 C 3.734653 2.205984 2.115272 0
M  V30 16 C 4.481828 3.375326 1.524746 0
M  V30 17 C 4.635367 1.540056 3.128306 0
M  V30 18 C 5.754185 2.054847 3.752005 0
M  V30 19 C 6.409819 1.242848 4.650922 0
M  V30 20 C 6.004814 -0.040155 4.951126 0
M  V30 21 F 6.648759 -0.824338 5.831843 0
M  V30 22 C 4.865960 -0.525095 4.297648 0
M  V30 23 N 4.247025 0.296244 3.422354 0
M  V30 24 N -0.560082 -0.058315 -0.966135 0
M  V30 25 C -1.756655 -0.688221 -0.931072 0
M  V30 26 C -1.992458 -1.846838 -0.230993 0
M  V30 27 C -5.397547 -2.682858 0.406515 0
M  V30 28 C -6.744247 -2.578040 0.177148 0
M  V30 29 N -7.117255 -2.255331 -1.091377 0
M  V30 30 H -7.125655 -0.671136 -3.397743 0
M  V30 31 H -5.830259 -1.634600 -4.146616 0
M  V30 32 H -7.458252 -2.390752 -3.782417 0
M  V30 33 H -4.059465 -2.012938 -2.545883 0
M  V30 34 H -0.814242 -4.134126 1.681409 0
M  V30 35 H 1.075059 -2.256254 1.035905 0
M  V30 36 H 2.610148 -0.464185 -0.787365 0
M  V30 37 H 4.301374 0.947790 0.469669 0
M  V30 38 H 2.805295 2.551115 2.595049 0
M  V30 39 H 4.015127 3.746786 0.591784 0
M  V30 40 H 4.535976 4.233260 2.248306 0
M  V30 41 H 5.530243 3.126844 1.264468 0
M  V30 42 H 5.992012 3.062626 3.453829 0
M  V30 43 H 7.284606 1.677642 5.121222 0
M  V30 44 H 4.457749 -1.536870 4.465580 0
M  V30 45 H -2.560096 -0.237247 -1.493176 0
M  V30 46 H -5.202012 -2.948646 1.460949 0
M  V30 47 H -7.540127 -2.722065 0.891445 0
M  V30 END ATOM
M  V30 BEGIN BOND
M  V30 1 1 1 2
M  V30 2 2 2 3
M  V30 3 1 3 4
M  V30 4 1 4 5
M  V30 5 2 5 6
M  V30 6 1 6 7
M  V30 7 1 7 8
M  V30 8 2 8 9
M  V30 9 1 9 10
M  V30 10 1 10 11
M  V30 11 1 11 12
M  V30 12 2 12 13
M  V30 13 1 12 14
M  V30 14 1 14 15
M  V30 15 1 15 16
M  V30 16 1 15 17
M  V30 17 2 17 18
M  V30 18 1 18 19
M  V30 19 2 19 20
M  V30 20 1 20 21
M  V30 21 1 20 22
M  V30 22 2 22 23
M  V30 23 2 10 24
M  V30 24 1 24 25
M  V30 25 2 25 26
M  V30 26 2 4 27
M  V30 27 1 27 28
M  V30 28 2 28 29
M  V30 29 1 29 2
M  V30 30 1 26 5
M  V30 31 1 26 8
M  V30 32 1 23 17
M  V30 33 1 1 30
M  V30 34 1 1 31
M  V30 35 1 1 32
M  V30 36 1 3 33
M  V30 37 1 7 34
M  V30 38 1 9 35
M  V30 39 1 11 36
M  V30 40 1 14 37
M  V30 41 1 15 38
M  V30 42 1 16 39
M  V30 43 1 16 40
M  V30 44 1 16 41
M  V30 45 1 18 42
M  V30 46 1 19 43
M  V30 47 1 22 44
M  V30 48 1 25 45
M  V30 49 1 27 46
M  V30 50 1 28 47
M  V30 END BOND
M  V30 END CTAB
M  END
>  <Dataset>  (943) 
ChEMBL_Kinases

>  <Ligand_Instance>  (943) 
nan

>  <PDB_ID>  (943) 
nan

>  <Standardized_SMILES>  (943) 
Cc1cc(-c2n[nH]c3cc(NC(=O)NC(C)c4ccc(F)cn4)ncc23)ccn1

>  <Name>  (943) 
nan

>  <Pocket>  (943) 
nan

>  <ATP_Site>  (943) 
nan

>  <Peripheral>  (943) 
nan

>  <Num_H_Atoms_ProtBoundConf>  (943) 
nan

>  <Num_Resolved_Atoms>  (943) 
nan

>  <Num_Not_Resolved_Atoms>  (943) 
nan

$$$$
CHEMBL3658727
     RDKit          3D

  0  0  0  0  0  0  0  0  0  0999 V3000
M  V30 BEGIN CTAB
M  V30 COUNTS 53 57 0 0 0
M  V30 BEGIN ATOM
M  V30 1 C 4.215853 -2.035180 8.033549 0
M  V30 2 C 3.491359 -3.022615 7.202239 0
M  V30 3 C 3.332448 -2.704269 5.853858 0
M  V30 4 C 2.656544 -3.625263 5.077803 0
M  V30 5 C 2.401818 -3.445267 3.636304 0
M  V30 6 N 2.597099 -4.449017 2.742304 0
M  V30 7 N 2.304503 -4.058508 1.510843 0
M  V30 8 C 1.905124 -2.773399 1.566545 0
M  V30 9 C 1.481427 -1.842833 0.626345 0
M  V30 10 C 1.147035 -0.586252 1.089976 0
M  V30 11 N 0.720497 0.323330 0.080630 0
M  V30 12 C -0.651766 0.482090 -0.337743 0
M  V30 13 O -1.411537 -0.304910 0.324883 0
M  V30 14 N -1.132143 1.384828 -1.350124 0
M  V30 15 C -2.533538 1.358928 -1.585195 0 CFG=1
M  V30 16 C -3.120200 2.682741 -1.095835 0
M  V30 17 O -2.576715 3.768956 -1.753376 0
M  V30 18 C -3.015436 0.952892 -2.899614 0
M  V30 19 C -4.061380 0.026087 -3.055721 0
M  V30 20 C -4.592019 -0.438893 -4.238422 0
M  V30 21 C -4.048215 0.049002 -5.406616 0
M  V30 22 C -3.028199 0.953726 -5.346887 0
M  V30 23 C -2.339317 1.575996 -6.366706 0
M  V30 24 C -1.418500 2.394556 -5.750097 0
M  V30 25 N -1.579691 2.241561 -4.425475 0
M  V30 26 C -2.554519 1.368093 -4.131383 0
M  V30 27 N 1.209642 -0.215066 2.403465 0
M  V30 28 C 1.622748 -1.110789 3.346906 0
M  V30 29 C 1.957165 -2.366286 2.885976 0
M  V30 30 C 2.173757 -4.797059 5.643772 0
M  V30 31 C 2.362459 -5.059365 6.992685 0
M  V30 32 N 3.021933 -4.160436 7.749171 0
M  V30 33 H 3.893177 -1.006667 7.769458 0
M  V30 34 H 5.316812 -2.115389 7.932097 0
M  V30 35 H 3.950935 -2.169995 9.112167 0
M  V30 36 H 3.694484 -1.808682 5.392674 0
M  V30 37 H 2.367383 -4.633519 0.641635 0
M  V30 38 H 1.429739 -2.122705 -0.396717 0
M  V30 39 H 1.418503 0.925608 -0.404714 0
M  V30 40 H -0.300142 1.889595 -1.706028 0
M  V30 41 H -3.011134 0.613809 -0.859809 0
M  V30 42 H -4.228407 2.680747 -1.122891 0
M  V30 43 H -2.871404 2.731875 0.000895 0
M  V30 44 H -3.306040 4.428253 -1.952062 0
M  V30 45 H -4.508749 -0.374965 -2.130735 0
M  V30 46 H -5.400204 -1.155810 -4.211201 0
M  V30 47 H -4.442858 -0.296852 -6.329819 0
M  V30 48 H -2.511727 1.429104 -7.435788 0
M  V30 49 H -0.722422 3.020066 -6.279505 0
M  V30 50 H -0.992573 2.766884 -3.748744 0
M  V30 51 H 1.684931 -0.852912 4.395632 0
M  V30 52 H 1.636687 -5.523793 5.016031 0
M  V30 53 H 1.950838 -6.006013 7.360966 0
M  V30 END ATOM
M  V30 BEGIN BOND
M  V30 1 1 1 2
M  V30 2 2 2 3
M  V30 3 1 3 4
M  V30 4 1 4 5
M  V30 5 2 5 6
M  V30 6 1 6 7
M  V30 7 1 7 8
M  V30 8 2 8 9
M  V30 9 1 9 10
M  V30 10 1 10 11
M  V30 11 1 11 12
M  V30 12 2 12 13
M  V30 13 1 12 14
M  V30 14 1 14 15
M  V30 15 1 15 16
M  V30 16 1 16 17
M  V30 17 1 15 18
M  V30 18 2 18 19
M  V30 19 1 19 20
M  V30 20 2 20 21
M  V30 21 1 21 22
M  V30 22 1 22 23
M  V30 23 2 23 24
M  V30 24 1 24 25
M  V30 25 1 25 26
M  V30 26 2 10 27
M  V30 27 1 27 28
M  V30 28 2 28 29
M  V30 29 2 4 30
M  V30 30 1 30 31
M  V30 31 2 31 32
M  V30 32 1 32 2
M  V30 33 1 29 5
M  V30 34 1 29 8
M  V30 35 1 26 18
M  V30 36 2 26 22
M  V30 37 1 1 33
M  V30 38 1 1 34
M  V30 39 1 1 35
M  V30 40 1 3 36
M  V30 41 1 7 37
M  V30 42 1 9 38
M  V30 43 1 11 39
M  V30 44 1 14 40
M  V30 45 1 15 41 CFG=1
M  V30 46 1 16 42
M  V30 47 1 16 43
M  V30 48 1 17 44
M  V30 49 1 19 45
M  V30 50 1 20 46
M  V30 51 1 21 47
M  V30 52 1 23 48
M  V30 53 1 24 49
M  V30 54 1 25 50
M  V30 55 1 28 51
M  V30 56 1 30 52
M  V30 57 1 31 53
M  V30 END BOND
M  V30 END CTAB
M  END
>  <Dataset>  (944) 
ChEMBL_Kinases

>  <Ligand_Instance>  (944) 
nan

>  <PDB_ID>  (944) 
nan

>  <Standardized_SMILES>  (944) 
Cc1cc(-c2n[nH]c3cc(NC(=O)N[C@@H](CO)c4cccc5cc[nH]c45)ncc23)ccn1

>  <Name>  (944) 
nan

>  <Pocket>  (944) 
nan

>  <ATP_Site>  (944) 
nan

>  <Peripheral>  (944) 
nan

>  <Num_H_Atoms_ProtBoundConf>  (944) 
nan

>  <Num_Resolved_Atoms>  (944) 
nan

>  <Num_Not_Resolved_Atoms>  (944) 
nan

$$$$
CHEMBL3658726
     RDKit          3D

  0  0  0  0  0  0  0  0  0  0999 V3000
M  V30 BEGIN CTAB
M  V30 COUNTS 53 57 0 0 0
M  V30 BEGIN ATOM
M  V30 1 C 1.489396 -5.790958 6.307316 0
M  V30 2 C 2.431269 -5.717475 5.159585 0
M  V30 3 C 2.695348 -4.514222 4.500951 0
M  V30 4 C 3.562007 -4.408767 3.434087 0
M  V30 5 C 3.798868 -3.122569 2.784418 0
M  V30 6 N 4.996411 -2.618265 2.425764 0
M  V30 7 N 4.873787 -1.426318 1.855904 0
M  V30 8 C 3.554653 -1.158673 1.849466 0
M  V30 9 C 2.888863 -0.046651 1.369707 0
M  V30 10 C 1.514136 0.009347 1.471744 0
M  V30 11 N 0.626977 1.041156 1.051953 0
M  V30 12 C 0.044451 1.088820 -0.231422 0
M  V30 13 O 0.301866 0.188143 -1.071826 0
M  V30 14 N -0.828268 2.168287 -0.541072 0
M  V30 15 C -1.487588 2.318111 -1.840199 0 CFG=2
M  V30 16 C -1.036603 3.552379 -2.559591 0
M  V30 17 O -1.731880 3.585316 -3.779125 0
M  V30 18 C -2.956118 2.205178 -1.721264 0
M  V30 19 C -3.689237 2.720020 -0.650590 0
M  V30 20 C -5.064102 2.571128 -0.615668 0
M  V30 21 C -5.774581 1.920326 -1.613604 0
M  V30 22 C -5.061747 1.399821 -2.689900 0
M  V30 23 C -5.423365 0.713675 -3.826146 0
M  V30 24 C -4.268553 0.440611 -4.560324 0
M  V30 25 N -3.239733 0.969860 -3.846720 0
M  V30 26 C -3.680917 1.556871 -2.711675 0
M  V30 27 N 0.832396 -1.024824 2.040321 0
M  V30 28 C 1.484129 -2.123035 2.514665 0
M  V30 29 C 2.844078 -2.194776 2.421698 0
M  V30 30 C 4.197826 -5.566664 3.003211 0
M  V30 31 C 3.914047 -6.753757 3.680813 0
M  V30 32 N 3.057040 -6.848374 4.733041 0
M  V30 33 H 1.048428 -6.798855 6.312974 0
M  V30 34 H 0.640801 -5.074514 6.186108 0
M  V30 35 H 1.989311 -5.536312 7.263622 0
M  V30 36 H 2.163668 -3.675558 4.898184 0
M  V30 37 H 5.620782 -0.799756 1.480002 0
M  V30 38 H 3.321155 0.809170 0.911593 0
M  V30 39 H 0.453472 1.759393 1.796248 0
M  V30 40 H -1.029858 2.907737 0.171645 0
M  V30 41 H -1.147101 1.444685 -2.443233 0
M  V30 42 H 0.043055 3.464277 -2.756239 0
M  V30 43 H -1.314950 4.489654 -2.045191 0
M  V30 44 H -2.684639 3.733160 -3.508349 0
M  V30 45 H -3.149494 3.230426 0.135849 0
M  V30 46 H -5.652227 2.967351 0.213510 0
M  V30 47 H -6.842084 1.790929 -1.610905 0
M  V30 48 H -6.475332 0.466556 -4.035245 0
M  V30 49 H -4.280683 -0.085641 -5.489371 0
M  V30 50 H -2.249076 0.888159 -4.206469 0
M  V30 51 H 0.943170 -2.943581 2.965786 0
M  V30 52 H 4.880461 -5.546671 2.180841 0
M  V30 53 H 4.442349 -7.638313 3.300725 0
M  V30 END ATOM
M  V30 BEGIN BOND
M  V30 1 1 1 2
M  V30 2 2 2 3
M  V30 3 1 3 4
M  V30 4 1 4 5
M  V30 5 2 5 6
M  V30 6 1 6 7
M  V30 7 1 7 8
M  V30 8 2 8 9
M  V30 9 1 9 10
M  V30 10 1 10 11
M  V30 11 1 11 12
M  V30 12 2 12 13
M  V30 13 1 12 14
M  V30 14 1 14 15
M  V30 15 1 15 16
M  V30 16 1 16 17
M  V30 17 1 15 18
M  V30 18 2 18 19
M  V30 19 1 19 20
M  V30 20 2 20 21
M  V30 21 1 21 22
M  V30 22 1 22 23
M  V30 23 2 23 24
M  V30 24 1 24 25
M  V30 25 1 25 26
M  V30 26 2 10 27
M  V30 27 1 27 28
M  V30 28 2 28 29
M  V30 29 2 4 30
M  V30 30 1 30 31
M  V30 31 2 31 32
M  V30 32 1 32 2
M  V30 33 1 29 5
M  V30 34 1 29 8
M  V30 35 1 26 18
M  V30 36 2 26 22
M  V30 37 1 1 33
M  V30 38 1 1 34
M  V30 39 1 1 35
M  V30 40 1 3 36
M  V30 41 1 7 37
M  V30 42 1 9 38
M  V30 43 1 11 39
M  V30 44 1 14 40
M  V30 45 1 15 41 CFG=3
M  V30 46 1 16 42
M  V30 47 1 16 43
M  V30 48 1 17 44
M  V30 49 1 19 45
M  V30 50 1 20 46
M  V30 51 1 21 47
M  V30 52 1 23 48
M  V30 53 1 24 49
M  V30 54 1 25 50
M  V30 55 1 28 51
M  V30 56 1 30 52
M  V30 57 1 31 53
M  V30 END BOND
M  V30 END CTAB
M  END
>  <Dataset>  (945) 
ChEMBL_Kinases

>  <Ligand_Instance>  (945) 
nan

>  <PDB_ID>  (945) 
nan

>  <Standardized_SMILES>  (945) 
Cc1cc(-c2n[nH]c3cc(NC(=O)N[C@H](CO)c4cccc5cc[nH]c45)ncc23)ccn1

>  <Name>  (945) 
nan

>  <Pocket>  (945) 
nan

>  <ATP_Site>  (945) 
nan

>  <Peripheral>  (945) 
nan

>  <Num_H_Atoms_ProtBoundConf>  (945) 
nan

>  <Num_Resolved_Atoms>  (945) 
nan

>  <Num_Not_Resolved_Atoms>  (945) 
nan

$$$$
CHEMBL3658725
     RDKit          3D

  0  0  0  0  0  0  0  0  0  0999 V3000
M  V30 BEGIN CTAB
M  V30 COUNTS 50 53 0 0 0
M  V30 BEGIN ATOM
M  V30 1 C -2.764152 -5.752850 -3.138240 0
M  V30 2 C -1.323891 -5.579505 -3.453399 0
M  V30 3 C -0.406113 -5.012946 -2.576374 0
M  V30 4 C 0.924024 -4.872446 -2.913727 0
M  V30 5 C 1.829063 -4.270164 -1.945869 0
M  V30 6 N 3.052322 -4.768509 -1.655267 0
M  V30 7 N 3.634461 -3.993273 -0.732015 0
M  V30 8 C 2.825300 -2.972040 -0.388024 0
M  V30 9 C 2.902593 -1.903769 0.483031 0
M  V30 10 C 1.839369 -1.026594 0.574721 0
M  V30 11 N 1.855857 0.094293 1.452920 0
M  V30 12 C 0.756254 0.988253 1.537514 0
M  V30 13 O -0.230870 0.744183 0.801980 0
M  V30 14 N 0.670516 2.115144 2.363804 0
M  V30 15 C -0.478999 2.949547 2.374600 0
M  V30 16 C -0.054535 4.290886 1.803072 0
M  V30 17 N 0.996818 4.906257 2.582187 0
M  V30 18 C -1.148945 3.112890 3.675271 0
M  V30 19 C -0.407174 3.355197 4.831539 0
M  V30 20 C -1.142660 3.490963 5.992193 0
M  V30 21 C -2.511922 3.414763 6.134634 0
M  V30 22 C -3.224524 3.171896 4.961934 0
M  V30 23 C -2.545643 3.026228 3.765745 0
M  V30 24 N 0.748052 -1.227696 -0.185174 0
M  V30 25 C 0.638464 -2.260914 -1.046925 0
M  V30 26 C 1.688707 -3.148941 -1.154213 0
M  V30 27 C 1.337358 -5.312451 -4.161553 0
M  V30 28 C 0.406623 -5.868596 -5.007445 0
M  V30 29 N -0.902858 -5.999497 -4.657801 0
M  V30 30 H -2.959138 -5.632434 -2.041372 0
M  V30 31 H -3.332826 -4.967573 -3.651197 0
M  V30 32 H -3.108991 -6.748311 -3.428489 0
M  V30 33 H -0.846654 -4.709873 -1.638465 0
M  V30 34 H 4.575811 -4.093696 -0.288904 0
M  V30 35 H 3.791053 -1.763048 1.083839 0
M  V30 36 H 2.651215 0.322662 2.070153 0
M  V30 37 H 1.491845 2.329700 2.984697 0
M  V30 38 H -1.213530 2.535424 1.646969 0
M  V30 39 H -0.928470 4.988513 1.771478 0
M  V30 40 H 0.378565 4.106184 0.795354 0
M  V30 41 H 0.900698 5.941423 2.612070 0
M  V30 42 H 1.945602 4.579346 2.344694 0
M  V30 43 H 0.651776 3.429169 4.813654 0
M  V30 44 H -0.547931 3.680155 6.888092 0
M  V30 45 H -2.967708 3.539716 7.104338 0
M  V30 46 H -4.303216 3.101717 5.011872 0
M  V30 47 H -3.072655 2.835202 2.828430 0
M  V30 48 H -0.258779 -2.382971 -1.638122 0
M  V30 49 H 2.382272 -5.207184 -4.438623 0
M  V30 50 H 0.709090 -6.215866 -5.980321 0
M  V30 END ATOM
M  V30 BEGIN BOND
M  V30 1 1 1 2
M  V30 2 2 2 3
M  V30 3 1 3 4
M  V30 4 1 4 5
M  V30 5 2 5 6
M  V30 6 1 6 7
M  V30 7 1 7 8
M  V30 8 2 8 9
M  V30 9 1 9 10
M  V30 10 1 10 11
M  V30 11 1 11 12
M  V30 12 2 12 13
M  V30 13 1 12 14
M  V30 14 1 14 15
M  V30 15 1 15 16
M  V30 16 1 16 17
M  V30 17 1 15 18
M  V30 18 2 18 19
M  V30 19 1 19 20
M  V30 20 2 20 21
M  V30 21 1 21 22
M  V30 22 2 22 23
M  V30 23 2 10 24
M  V30 24 1 24 25
M  V30 25 2 25 26
M  V30 26 2 4 27
M  V30 27 1 27 28
M  V30 28 2 28 29
M  V30 29 1 29 2
M  V30 30 1 26 5
M  V30 31 1 26 8
M  V30 32 1 23 18
M  V30 33 1 1 30
M  V30 34 1 1 31
M  V30 35 1 1 32
M  V30 36 1 3 33
M  V30 37 1 7 34
M  V30 38 1 9 35
M  V30 39 1 11 36
M  V30 40 1 14 37
M  V30 41 1 15 38
M  V30 42 1 16 39
M  V30 43 1 16 40
M  V30 44 1 17 41
M  V30 45 1 17 42
M  V30 46 1 19 43
M  V30 47 1 20 44
M  V30 48 1 21 45
M  V30 49 1 22 46
M  V30 50 1 23 47
M  V30 51 1 25 48
M  V30 52 1 27 49
M  V30 53 1 28 50
M  V30 END BOND
M  V30 END CTAB
M  END
>  <Dataset>  (946) 
ChEMBL_Kinases

>  <Ligand_Instance>  (946) 
nan

>  <PDB_ID>  (946) 
nan

>  <Standardized_SMILES>  (946) 
Cc1cc(-c2n[nH]c3cc(NC(=O)NC(CN)c4ccccc4)ncc23)ccn1

>  <Name>  (946) 
nan

>  <Pocket>  (946) 
nan

>  <ATP_Site>  (946) 
nan

>  <Peripheral>  (946) 
nan

>  <Num_H_Atoms_ProtBoundConf>  (946) 
nan

>  <Num_Resolved_Atoms>  (946) 
nan

>  <Num_Not_Resolved_Atoms>  (946) 
nan

$$$$
CHEMBL3658724
     RDKit          3D

  0  0  0  0  0  0  0  0  0  0999 V3000
M  V30 BEGIN CTAB
M  V30 COUNTS 43 47 0 0 0
M  V30 BEGIN ATOM
M  V30 1 C -1.031311 -6.824501 1.947467 0
M  V30 2 C 0.416789 -6.491614 1.940844 0
M  V30 3 C 0.771253 -5.163971 1.837801 0
M  V30 4 C 2.084332 -4.710166 1.819426 0
M  V30 5 C 2.426701 -3.294340 1.709030 0
M  V30 6 N 3.364862 -2.693032 2.473224 0
M  V30 7 N 3.474676 -1.400602 2.165041 0
M  V30 8 C 2.597175 -1.132659 1.180067 0
M  V30 9 C 2.271891 0.030379 0.468826 0
M  V30 10 C 1.289157 -0.071848 -0.503367 0
M  V30 11 N 0.886441 1.070894 -1.287222 0
M  V30 12 C -0.185014 1.841235 -0.738404 0
M  V30 13 O -0.726175 1.515323 0.368577 0
M  V30 14 N -0.662758 2.989888 -1.428154 0
M  V30 15 C -1.746054 3.731590 -0.830204 0
M  V30 16 N -3.050686 3.484291 -1.064866 0
M  V30 17 O -3.758862 4.341392 -0.362355 0
M  V30 18 C -2.971337 5.122339 0.308090 0
M  V30 19 C -3.140011 6.188317 1.196888 0
M  V30 20 N -2.067516 6.810312 1.740306 0
M  V30 21 C -0.813520 6.460536 1.474061 0
M  V30 22 C -0.548386 5.408682 0.599130 0
M  V30 23 C -1.641159 4.780369 0.049994 0
M  V30 24 N 0.646454 -1.237684 -0.781584 0
M  V30 25 C 0.951118 -2.380630 -0.097977 0
M  V30 26 C 1.926945 -2.301332 0.874610 0
M  V30 27 C 3.061446 -5.708414 1.914483 0
M  V30 28 C 2.686746 -7.046867 2.018118 0
M  V30 29 N 1.399332 -7.424289 2.030638 0
M  V30 30 H -1.497463 -6.461034 2.905550 0
M  V30 31 H -1.580422 -6.343868 1.127063 0
M  V30 32 H -1.198864 -7.920495 1.908468 0
M  V30 33 H -0.002709 -4.415276 1.765932 0
M  V30 34 H 4.127585 -0.708329 2.607790 0
M  V30 35 H 2.757868 0.952602 0.665961 0
M  V30 36 H 1.350733 1.322892 -2.204903 0
M  V30 37 H -0.195889 3.217478 -2.320974 0
M  V30 38 H -4.145528 6.485689 1.424533 0
M  V30 39 H 0.000792 6.998146 1.941366 0
M  V30 40 H 0.454107 5.107229 0.368010 0
M  V30 41 H 0.442209 -3.308653 -0.316697 0
M  V30 42 H 4.102977 -5.399845 1.904086 0
M  V30 43 H 3.447040 -7.799517 2.090119 0
M  V30 END ATOM
M  V30 BEGIN BOND
M  V30 1 1 1 2
M  V30 2 2 2 3
M  V30 3 1 3 4
M  V30 4 1 4 5
M  V30 5 2 5 6
M  V30 6 1 6 7
M  V30 7 1 7 8
M  V30 8 2 8 9
M  V30 9 1 9 10
M  V30 10 1 10 11
M  V30 11 1 11 12
M  V30 12 2 12 13
M  V30 13 1 12 14
M  V30 14 1 14 15
M  V30 15 2 15 16
M  V30 16 1 16 17
M  V30 17 1 17 18
M  V30 18 2 18 19
M  V30 19 1 19 20
M  V30 20 2 20 21
M  V30 21 1 21 22
M  V30 22 2 22 23
M  V30 23 2 10 24
M  V30 24 1 24 25
M  V30 25 2 25 26
M  V30 26 2 4 27
M  V30 27 1 27 28
M  V30 28 2 28 29
M  V30 29 1 29 2
M  V30 30 1 26 5
M  V30 31 1 26 8
M  V30 32 1 23 15
M  V30 33 1 23 18
M  V30 34 1 1 30
M  V30 35 1 1 31
M  V30 36 1 1 32
M  V30 37 1 3 33
M  V30 38 1 7 34
M  V30 39 1 9 35
M  V30 40 1 11 36
M  V30 41 1 14 37
M  V30 42 1 19 38
M  V30 43 1 21 39
M  V30 44 1 22 40
M  V30 45 1 25 41
M  V30 46 1 27 42
M  V30 47 1 28 43
M  V30 END BOND
M  V30 END CTAB
M  END
>  <Dataset>  (947) 
ChEMBL_Kinases

>  <Ligand_Instance>  (947) 
nan

>  <PDB_ID>  (947) 
nan

>  <Standardized_SMILES>  (947) 
Cc1cc(-c2n[nH]c3cc(NC(=O)Nc4noc5cnccc45)ncc23)ccn1

>  <Name>  (947) 
nan

>  <Pocket>  (947) 
nan

>  <ATP_Site>  (947) 
nan

>  <Peripheral>  (947) 
nan

>  <Num_H_Atoms_ProtBoundConf>  (947) 
nan

>  <Num_Resolved_Atoms>  (947) 
nan

>  <Num_Not_Resolved_Atoms>  (947) 
nan

$$$$
CHEMBL3658723
     RDKit          3D

  0  0  0  0  0  0  0  0  0  0999 V3000
M  V30 BEGIN CTAB
M  V30 COUNTS 53 57 0 0 0
M  V30 BEGIN ATOM
M  V30 1 C -1.594751 -3.975000 -3.456840 0
M  V30 2 O -1.054094 -2.678208 -3.681179 0
M  V30 3 C 0.182468 -2.364216 -3.132294 0
M  V30 4 C 0.733789 -1.099284 -3.338055 0
M  V30 5 C 1.968798 -0.767082 -2.797316 0
M  V30 6 C 2.695870 -1.668031 -2.039875 0
M  V30 7 C 4.009746 -1.306291 -1.467934 0
M  V30 8 N 4.039223 -0.244275 -0.471839 0
M  V30 9 C 2.872366 -0.056841 0.279948 0
M  V30 10 O 1.888780 -0.812634 0.044130 0
M  V30 11 N 2.709804 0.927578 1.296573 0
M  V30 12 C 1.482334 1.041666 2.008378 0
M  V30 13 C 1.279146 1.979337 3.000376 0
M  V30 14 C 0.066408 2.041253 3.655313 0
M  V30 15 N -0.466490 2.797818 4.637028 0
M  V30 16 N -1.724083 2.417984 4.893707 0
M  V30 17 C -2.071054 1.380194 4.076850 0
M  V30 18 C -3.358678 0.689247 4.052260 0
M  V30 19 C -3.989777 0.304883 5.223615 0
M  V30 20 C -5.187570 -0.334504 5.113468 0
M  V30 21 N -5.792039 -0.613750 3.933614 0
M  V30 22 C -5.197103 -0.248889 2.764148 0
M  V30 23 C -5.880252 -0.566700 1.487587 0
M  V30 24 C -3.975556 0.404185 2.850404 0
M  V30 25 C -0.942840 1.160665 3.313507 0
M  V30 26 C -0.719143 0.246844 2.334119 0
M  V30 27 N 0.471750 0.208001 1.711870 0
M  V30 28 C 5.191526 -1.586754 -2.315482 0
M  V30 29 C 4.944596 -2.433995 -1.115522 0
M  V30 30 C 2.108799 -2.909376 -1.863063 0
M  V30 31 C 0.884261 -3.285196 -2.380624 0
M  V30 32 H -2.636839 -4.055713 -3.759379 0
M  V30 33 H -0.897346 -4.686508 -3.971020 0
M  V30 34 H -1.560388 -4.231837 -2.360695 0
M  V30 35 H 0.151320 -0.409398 -3.932101 0
M  V30 36 H 2.335472 0.231844 -2.997295 0
M  V30 37 H 4.862990 0.368952 -0.293151 0
M  V30 38 H 3.513626 1.560338 1.503651 0
M  V30 39 H 2.065151 2.667301 3.268640 0
M  V30 40 H 0.077311 3.562618 5.097419 0
M  V30 41 H -3.546838 0.505313 6.196863 0
M  V30 42 H -5.744762 -0.667646 5.986659 0
M  V30 43 H -6.991987 -0.533896 1.616995 0
M  V30 44 H -5.534790 0.097652 0.663269 0
M  V30 45 H -5.635477 -1.611834 1.195638 0
M  V30 46 H -3.547220 0.671307 1.893773 0
M  V30 47 H -1.440126 -0.472239 2.004318 0
M  V30 48 H 6.077491 -0.889633 -2.329654 0
M  V30 49 H 5.036601 -2.040148 -3.303726 0
M  V30 50 H 5.703679 -2.305849 -0.316213 0
M  V30 51 H 4.639848 -3.488682 -1.214932 0
M  V30 52 H 2.608305 -3.660808 -1.289645 0
M  V30 53 H 0.473811 -4.273744 -2.208682 0
M  V30 END ATOM
M  V30 BEGIN BOND
M  V30 1 1 1 2
M  V30 2 1 2 3
M  V30 3 2 3 4
M  V30 4 1 4 5
M  V30 5 2 5 6
M  V30 6 1 6 7
M  V30 7 1 7 8
M  V30 8 1 8 9
M  V30 9 2 9 10
M  V30 10 1 9 11
M  V30 11 1 11 12
M  V30 12 2 12 13
M  V30 13 1 13 14
M  V30 14 1 14 15
M  V30 15 1 15 16
M  V30 16 2 16 17
M  V30 17 1 17 18
M  V30 18 2 18 19
M  V30 19 1 19 20
M  V30 20 2 20 21
M  V30 21 1 21 22
M  V30 22 1 22 23
M  V30 23 2 22 24
M  V30 24 1 17 25
M  V30 25 1 25 26
M  V30 26 2 26 27
M  V30 27 1 7 28
M  V30 28 1 28 29
M  V30 29 1 6 30
M  V30 30 2 30 31
M  V30 31 1 31 3
M  V30 32 1 29 7
M  V30 33 1 27 12
M  V30 34 2 25 14
M  V30 35 1 24 18
M  V30 36 1 1 32
M  V30 37 1 1 33
M  V30 38 1 1 34
M  V30 39 1 4 35
M  V30 40 1 5 36
M  V30 41 1 8 37
M  V30 42 1 11 38
M  V30 43 1 13 39
M  V30 44 1 15 40
M  V30 45 1 19 41
M  V30 46 1 20 42
M  V30 47 1 23 43
M  V30 48 1 23 44
M  V30 49 1 23 45
M  V30 50 1 24 46
M  V30 51 1 26 47
M  V30 52 1 28 48
M  V30 53 1 28 49
M  V30 54 1 29 50
M  V30 55 1 29 51
M  V30 56 1 30 52
M  V30 57 1 31 53
M  V30 END BOND
M  V30 END CTAB
M  END
>  <Dataset>  (948) 
ChEMBL_Kinases

>  <Ligand_Instance>  (948) 
nan

>  <PDB_ID>  (948) 
nan

>  <Standardized_SMILES>  (948) 
COc1ccc(C2(NC(=O)Nc3cc4[nH]nc(-c5ccnc(C)c5)c4cn3)CC2)cc1

>  <Name>  (948) 
nan

>  <Pocket>  (948) 
nan

>  <ATP_Site>  (948) 
nan

>  <Peripheral>  (948) 
nan

>  <Num_H_Atoms_ProtBoundConf>  (948) 
nan

>  <Num_Resolved_Atoms>  (948) 
nan

>  <Num_Not_Resolved_Atoms>  (948) 
nan

$$$$
CHEMBL3658722
     RDKit          3D

  0  0  0  0  0  0  0  0  0  0999 V3000
M  V30 BEGIN CTAB
M  V30 COUNTS 54 58 0 0 0
M  V30 BEGIN ATOM
M  V30 1 C -1.693190 -5.841339 -4.523342 0
M  V30 2 C -0.231258 -5.491260 -4.573538 0
M  V30 3 C 0.292064 -4.635454 -3.609600 0
M  V30 4 C 1.635473 -4.258675 -3.581682 0
M  V30 5 C 2.160309 -3.359786 -2.560361 0
M  V30 6 N 3.309051 -3.522201 -1.867649 0
M  V30 7 N 3.489123 -2.516345 -1.012049 0
M  V30 8 C 2.445866 -1.665511 -1.131704 0
M  V30 9 C 2.086215 -0.465726 -0.516366 0
M  V30 10 C 0.920897 0.193154 -0.861162 0
M  V30 11 N 0.563307 1.431034 -0.216776 0
M  V30 12 C -0.231422 1.270966 0.966010 0
M  V30 13 O -0.640743 0.201073 1.490623 0
M  V30 14 N -0.637563 2.407248 1.674794 0
M  V30 15 C -1.439128 2.269473 2.869773 0
M  V30 16 C -0.637559 1.507109 3.869040 0
M  V30 17 C 0.626665 1.885248 4.272388 0
M  V30 18 C 1.327507 1.144116 5.201419 0
M  V30 19 C 0.768699 0.008544 5.741667 0
M  V30 20 C -0.508681 -0.365622 5.328254 0
M  V30 21 N -1.151342 0.377636 4.429121 0
M  V30 22 C -2.756106 1.589330 2.661849 0
M  V30 23 C -3.518101 1.945473 3.922454 0
M  V30 24 C -2.781209 3.102591 4.561041 0
M  V30 25 C -1.849819 3.588310 3.446888 0
M  V30 26 N 0.119678 -0.338327 -1.811332 0
M  V30 27 C 0.442631 -1.506412 -2.429597 0
M  V30 28 C 1.599092 -2.182610 -2.103593 0
M  V30 29 C 2.465435 -4.779679 -4.577639 0
M  V30 30 C 1.918429 -5.619568 -5.511746 0
M  V30 31 N 0.605862 -5.983124 -5.532879 0
M  V30 32 H -1.995464 -6.184427 -5.515856 0
M  V30 33 H -1.903155 -6.550162 -3.703560 0
M  V30 34 H -2.260579 -4.895809 -4.279645 0
M  V30 35 H -0.389434 -4.268484 -2.873580 0
M  V30 36 H 4.270986 -2.360243 -0.347431 0
M  V30 37 H 2.722577 -0.038878 0.241724 0
M  V30 38 H 0.832435 2.407801 -0.538298 0
M  V30 39 H -0.380571 3.394187 1.372420 0
M  V30 40 H 1.072419 2.778385 3.850854 0
M  V30 41 H 2.321303 1.423631 5.531647 0
M  V30 42 H 1.245434 -0.646312 6.485449 0
M  V30 43 H -1.048573 -1.252259 5.694037 0
M  V30 44 H -3.263609 2.010981 1.755702 0
M  V30 45 H -2.701702 0.482573 2.615766 0
M  V30 46 H -4.580006 2.212714 3.709747 0
M  V30 47 H -3.542308 1.088555 4.627139 0
M  V30 48 H -3.445290 3.899533 4.928921 0
M  V30 49 H -2.098924 2.692940 5.354293 0
M  V30 50 H -2.488816 4.133678 2.738781 0
M  V30 51 H -1.018776 4.197919 3.816914 0
M  V30 52 H -0.228408 -1.894073 -3.183766 0
M  V30 53 H 3.508555 -4.513170 -4.590973 0
M  V30 54 H 2.562682 -6.032203 -6.295889 0
M  V30 END ATOM
M  V30 BEGIN BOND
M  V30 1 1 1 2
M  V30 2 2 2 3
M  V30 3 1 3 4
M  V30 4 1 4 5
M  V30 5 2 5 6
M  V30 6 1 6 7
M  V30 7 1 7 8
M  V30 8 2 8 9
M  V30 9 1 9 10
M  V30 10 1 10 11
M  V30 11 1 11 12
M  V30 12 2 12 13
M  V30 13 1 12 14
M  V30 14 1 14 15
M  V30 15 1 15 16
M  V30 16 2 16 17
M  V30 17 1 17 18
M  V30 18 2 18 19
M  V30 19 1 19 20
M  V30 20 2 20 21
M  V30 21 1 15 22
M  V30 22 1 22 23
M  V30 23 1 23 24
M  V30 24 1 24 25
M  V30 25 2 10 26
M  V30 26 1 26 27
M  V30 27 2 27 28
M  V30 28 2 4 29
M  V30 29 1 29 30
M  V30 30 2 30 31
M  V30 31 1 31 2
M  V30 32 1 28 5
M  V30 33 1 28 8
M  V30 34 1 25 15
M  V30 35 1 21 16
M  V30 36 1 1 32
M  V30 37 1 1 33
M  V30 38 1 1 34
M  V30 39 1 3 35
M  V30 40 1 7 36
M  V30 41 1 9 37
M  V30 42 1 11 38
M  V30 43 1 14 39
M  V30 44 1 17 40
M  V30 45 1 18 41
M  V30 46 1 19 42
M  V30 47 1 20 43
M  V30 48 1 22 44
M  V30 49 1 22 45
M  V30 50 1 23 46
M  V30 51 1 23 47
M  V30 52 1 24 48
M  V30 53 1 24 49
M  V30 54 1 25 50
M  V30 55 1 25 51
M  V30 56 1 27 52
M  V30 57 1 29 53
M  V30 58 1 30 54
M  V30 END BOND
M  V30 END CTAB
M  END
>  <Dataset>  (949) 
ChEMBL_Kinases

>  <Ligand_Instance>  (949) 
nan

>  <PDB_ID>  (949) 
nan

>  <Standardized_SMILES>  (949) 
Cc1cc(-c2n[nH]c3cc(NC(=O)NC4(c5ccccn5)CCCC4)ncc23)ccn1

>  <Name>  (949) 
nan

>  <Pocket>  (949) 
nan

>  <ATP_Site>  (949) 
nan

>  <Peripheral>  (949) 
nan

>  <Num_H_Atoms_ProtBoundConf>  (949) 
nan

>  <Num_Resolved_Atoms>  (949) 
nan

>  <Num_Not_Resolved_Atoms>  (949) 
nan

$$$$
CHEMBL3658721
     RDKit          3D

  0  0  0  0  0  0  0  0  0  0999 V3000
M  V30 BEGIN CTAB
M  V30 COUNTS 50 53 0 0 0
M  V30 BEGIN ATOM
M  V30 1 C -1.578948 -7.227622 0.460149 0
M  V30 2 C -0.527235 -6.970514 -0.573052 0
M  V30 3 C 0.142794 -5.748942 -0.560767 0
M  V30 4 C 1.131800 -5.424925 -1.480231 0
M  V30 5 C 1.831391 -4.152641 -1.469418 0
M  V30 6 N 3.163434 -3.917577 -1.601390 0
M  V30 7 N 3.399125 -2.606085 -1.536172 0
M  V30 8 C 2.243058 -1.934261 -1.360550 0
M  V30 9 C 1.962897 -0.590939 -1.235657 0
M  V30 10 C 0.640549 -0.172128 -1.059162 0
M  V30 11 N 0.378041 1.224361 -0.932525 0
M  V30 12 C 0.389021 1.808927 0.358311 0
M  V30 13 O 0.629241 1.062351 1.313090 0
M  V30 14 N 0.151634 3.153867 0.638951 0
M  V30 15 C 0.104667 3.960449 1.862452 0
M  V30 16 C -0.166053 5.399151 1.436065 0
M  V30 17 C 1.461378 3.913743 2.507879 0
M  V30 18 C -0.924980 3.556830 2.819596 0
M  V30 19 C -0.973695 2.487255 3.684714 0
M  V30 20 C -2.001937 2.174301 4.535705 0
M  V30 21 C -3.116430 2.982614 4.561858 0
M  V30 22 C -3.083950 4.056173 3.704283 0
M  V30 23 N -2.058437 4.319315 2.893337 0
M  V30 24 N -0.314597 -1.129077 -1.019517 0
M  V30 25 C -0.031643 -2.438593 -1.142364 0
M  V30 26 C 1.262611 -2.909048 -1.319332 0
M  V30 27 C 1.438322 -6.393915 -2.443097 0
M  V30 28 C 0.762408 -7.601477 -2.439807 0
M  V30 29 N -0.174932 -7.841437 -1.525824 0
M  V30 30 H -1.236446 -6.751661 1.407175 0
M  V30 31 H -2.577074 -6.879262 0.144665 0
M  V30 32 H -1.600149 -8.309551 0.665010 0
M  V30 33 H -0.133911 -5.050049 0.196971 0
M  V30 34 H 4.368635 -2.211682 -1.616651 0
M  V30 35 H 2.743321 0.132875 -1.272101 0
M  V30 36 H 0.178137 1.830744 -1.757150 0
M  V30 37 H -0.034460 3.679285 -0.278389 0
M  V30 38 H -0.902202 5.394511 0.631683 0
M  V30 39 H -0.613146 5.879834 2.329452 0
M  V30 40 H 0.759801 5.946317 1.219436 0
M  V30 41 H 2.222729 3.460673 1.821585 0
M  V30 42 H 1.428303 3.263912 3.429955 0
M  V30 43 H 1.762290 4.904014 2.866178 0
M  V30 44 H -0.123896 1.840144 3.714197 0
M  V30 45 H -1.942565 1.309791 5.175836 0
M  V30 46 H -3.966330 2.813995 5.194881 0
M  V30 47 H -3.947073 4.726668 3.690230 0
M  V30 48 H -0.844750 -3.151468 -1.101517 0
M  V30 49 H 2.209930 -6.160131 -3.172501 0
M  V30 50 H 1.010841 -8.350556 -3.197202 0
M  V30 END ATOM
M  V30 BEGIN BOND
M  V30 1 1 1 2
M  V30 2 2 2 3
M  V30 3 1 3 4
M  V30 4 1 4 5
M  V30 5 2 5 6
M  V30 6 1 6 7
M  V30 7 1 7 8
M  V30 8 2 8 9
M  V30 9 1 9 10
M  V30 10 1 10 11
M  V30 11 1 11 12
M  V30 12 2 12 13
M  V30 13 1 12 14
M  V30 14 1 14 15
M  V30 15 1 15 16
M  V30 16 1 15 17
M  V30 17 1 15 18
M  V30 18 2 18 19
M  V30 19 1 19 20
M  V30 20 2 20 21
M  V30 21 1 21 22
M  V30 22 2 22 23
M  V30 23 2 10 24
M  V30 24 1 24 25
M  V30 25 2 25 26
M  V30 26 2 4 27
M  V30 27 1 27 28
M  V30 28 2 28 29
M  V30 29 1 29 2
M  V30 30 1 26 5
M  V30 31 1 26 8
M  V30 32 1 23 18
M  V30 33 1 1 30
M  V30 34 1 1 31
M  V30 35 1 1 32
M  V30 36 1 3 33
M  V30 37 1 7 34
M  V30 38 1 9 35
M  V30 39 1 11 36
M  V30 40 1 14 37
M  V30 41 1 16 38
M  V30 42 1 16 39
M  V30 43 1 16 40
M  V30 44 1 17 41
M  V30 45 1 17 42
M  V30 46 1 17 43
M  V30 47 1 19 44
M  V30 48 1 20 45
M  V30 49 1 21 46
M  V30 50 1 22 47
M  V30 51 1 25 48
M  V30 52 1 27 49
M  V30 53 1 28 50
M  V30 END BOND
M  V30 END CTAB
M  END
>  <Dataset>  (950) 
ChEMBL_Kinases

>  <Ligand_Instance>  (950) 
nan

>  <PDB_ID>  (950) 
nan

>  <Standardized_SMILES>  (950) 
Cc1cc(-c2n[nH]c3cc(NC(=O)NC(C)(C)c4ccccn4)ncc23)ccn1

>  <Name>  (950) 
nan

>  <Pocket>  (950) 
nan

>  <ATP_Site>  (950) 
nan

>  <Peripheral>  (950) 
nan

>  <Num_H_Atoms_ProtBoundConf>  (950) 
nan

>  <Num_Resolved_Atoms>  (950) 
nan

>  <Num_Not_Resolved_Atoms>  (950) 
nan

$$$$
CHEMBL3658720
     RDKit          3D

  0  0  0  0  0  0  0  0  0  0999 V3000
M  V30 BEGIN CTAB
M  V30 COUNTS 48 52 0 0 0
M  V30 BEGIN ATOM
M  V30 1 C -4.120413 -5.247950 -0.749311 0
M  V30 2 C -2.689356 -5.694443 -0.872927 0
M  V30 3 C -1.745913 -4.769141 -0.437670 0
M  V30 4 C -0.392987 -5.111237 -0.520625 0
M  V30 5 C 0.657726 -4.202888 -0.087630 0
M  V30 6 N 1.726258 -4.519316 0.655765 0
M  V30 7 N 2.491526 -3.449106 0.871281 0
M  V30 8 C 1.905598 -2.405167 0.250944 0
M  V30 9 C 2.297758 -1.090894 0.174239 0
M  V30 10 C 1.501935 -0.215008 -0.535874 0
M  V30 11 N 1.722583 1.188521 -0.741303 0
M  V30 12 C 1.104420 1.951988 0.302292 0
M  V30 13 O 0.448614 1.489659 1.282614 0
M  V30 14 N 1.175236 3.369584 0.332763 0
M  V30 15 C 0.545054 4.163735 1.398224 0
M  V30 16 C 0.297185 3.431386 2.660476 0
M  V30 17 C -0.921951 3.109984 3.221450 0
M  V30 18 C -0.960776 2.419088 4.411013 0
M  V30 19 N 0.159452 2.042339 5.052471 0
M  V30 20 C 1.400245 2.323437 4.560740 0
M  V30 21 C 1.444556 3.025668 3.351632 0
M  V30 22 C 0.684021 5.622968 1.326182 0
M  V30 23 C -0.642776 4.964734 0.921799 0
M  V30 24 N 0.374225 -0.686448 -1.123635 0
M  V30 25 C -0.005671 -1.956042 -1.050204 0
M  V30 26 C 0.754466 -2.871984 -0.352547 0
M  V30 27 C -0.083210 -6.373334 -1.041159 0
M  V30 28 C -1.048836 -7.264070 -1.462786 0
M  V30 29 N -2.331466 -6.893540 -1.364564 0
M  V30 30 H -4.810551 -6.077394 -1.026918 0
M  V30 31 H -4.247095 -4.342085 -1.368760 0
M  V30 32 H -4.271789 -4.967810 0.329595 0
M  V30 33 H -2.040705 -3.799952 -0.040554 0
M  V30 34 H 3.382712 -3.390185 1.412411 0
M  V30 35 H 3.165025 -0.661521 0.609933 0
M  V30 36 H 2.250683 1.680527 -1.518792 0
M  V30 37 H 1.698163 3.883095 -0.434488 0
M  V30 38 H -1.773319 3.430954 2.674309 0
M  V30 39 H -1.953267 2.199481 4.795329 0
M  V30 40 H 2.318458 2.034578 5.052174 0
M  V30 41 H 2.457766 3.239978 2.976311 0
M  V30 42 H 1.296677 6.017501 0.474208 0
M  V30 43 H 0.638307 6.283102 2.193017 0
M  V30 44 H -1.501572 5.140864 1.595499 0
M  V30 45 H -0.880627 4.973707 -0.166284 0
M  V30 46 H -0.907858 -2.294891 -1.529783 0
M  V30 47 H 0.976277 -6.630468 -1.101563 0
M  V30 48 H -0.800763 -8.239218 -1.864568 0
M  V30 END ATOM
M  V30 BEGIN BOND
M  V30 1 1 1 2
M  V30 2 2 2 3
M  V30 3 1 3 4
M  V30 4 1 4 5
M  V30 5 2 5 6
M  V30 6 1 6 7
M  V30 7 1 7 8
M  V30 8 2 8 9
M  V30 9 1 9 10
M  V30 10 1 10 11
M  V30 11 1 11 12
M  V30 12 2 12 13
M  V30 13 1 12 14
M  V30 14 1 14 15
M  V30 15 1 15 16
M  V30 16 2 16 17
M  V30 17 1 17 18
M  V30 18 2 18 19
M  V30 19 1 19 20
M  V30 20 2 20 21
M  V30 21 1 15 22
M  V30 22 1 22 23
M  V30 23 2 10 24
M  V30 24 1 24 25
M  V30 25 2 25 26
M  V30 26 2 4 27
M  V30 27 1 27 28
M  V30 28 2 28 29
M  V30 29 1 29 2
M  V30 30 1 26 5
M  V30 31 1 26 8
M  V30 32 1 23 15
M  V30 33 1 21 16
M  V30 34 1 1 30
M  V30 35 1 1 31
M  V30 36 1 1 32
M  V30 37 1 3 33
M  V30 38 1 7 34
M  V30 39 1 9 35
M  V30 40 1 11 36
M  V30 41 1 14 37
M  V30 42 1 17 38
M  V30 43 1 18 39
M  V30 44 1 20 40
M  V30 45 1 21 41
M  V30 46 1 22 42
M  V30 47 1 22 43
M  V30 48 1 23 44
M  V30 49 1 23 45
M  V30 50 1 25 46
M  V30 51 1 27 47
M  V30 52 1 28 48
M  V30 END BOND
M  V30 END CTAB
M  END
>  <Dataset>  (951) 
ChEMBL_Kinases

>  <Ligand_Instance>  (951) 
nan

>  <PDB_ID>  (951) 
nan

>  <Standardized_SMILES>  (951) 
Cc1cc(-c2n[nH]c3cc(NC(=O)NC4(c5ccncc5)CC4)ncc23)ccn1

>  <Name>  (951) 
nan

>  <Pocket>  (951) 
nan

>  <ATP_Site>  (951) 
nan

>  <Peripheral>  (951) 
nan

>  <Num_H_Atoms_ProtBoundConf>  (951) 
nan

>  <Num_Resolved_Atoms>  (951) 
nan

>  <Num_Not_Resolved_Atoms>  (951) 
nan

$$$$
CHEMBL3658719
     RDKit          3D

  0  0  0  0  0  0  0  0  0  0999 V3000
M  V30 BEGIN CTAB
M  V30 COUNTS 51 55 0 0 0
M  V30 BEGIN ATOM
M  V30 1 C 1.265792 -6.659133 2.229648 0
M  V30 2 C 2.470850 -5.831735 2.544513 0
M  V30 3 C 2.738561 -4.668038 1.852200 0
M  V30 4 C 3.832620 -3.861282 2.094845 0
M  V30 5 C 4.097636 -2.631806 1.349211 0
M  V30 6 N 5.276209 -2.209396 0.827357 0
M  V30 7 N 5.111889 -1.031865 0.215369 0
M  V30 8 C 3.816658 -0.641302 0.315486 0
M  V30 9 C 3.128495 0.482690 -0.138888 0
M  V30 10 C 1.781742 0.590066 0.130641 0
M  V30 11 N 0.997582 1.709547 -0.297774 0
M  V30 12 C -0.392764 1.757435 0.015218 0
M  V30 13 O -0.978359 0.834229 0.669408 0
M  V30 14 N -1.238694 2.833730 -0.374175 0
M  V30 15 C -2.625411 2.662724 0.059117 0
M  V30 16 C -3.359034 1.615279 -0.682636 0
M  V30 17 C -4.162000 0.560289 -0.307068 0
M  V30 18 C -4.719993 -0.266594 -1.257258 0
M  V30 19 C -4.504804 -0.080549 -2.607090 0
M  V30 20 C -3.697381 0.982614 -2.954993 0
M  V30 21 N -3.144111 1.802336 -2.014901 0
M  V30 22 C -2.787049 2.555421 1.554859 0
M  V30 23 C -4.041388 3.415258 1.406779 0
M  V30 24 C -3.404419 3.955009 0.142828 0
M  V30 25 N 1.204392 -0.409080 0.825022 0
M  V30 26 C 1.853799 -1.495633 1.268129 0
M  V30 27 C 3.187336 -1.646220 1.025761 0
M  V30 28 C 4.715414 -4.251472 3.100566 0
M  V30 29 C 4.429514 -5.416905 3.779762 0
M  V30 30 N 3.345722 -6.195121 3.523081 0
M  V30 31 H 1.503222 -7.435848 1.477372 0
M  V30 32 H 0.977136 -7.196534 3.159288 0
M  V30 33 H 0.403843 -6.034490 1.936361 0
M  V30 34 H 2.038425 -4.396647 1.084176 0
M  V30 35 H 5.857688 -0.471270 -0.277286 0
M  V30 36 H 3.635181 1.267059 -0.697059 0
M  V30 37 H 1.423960 2.479300 -0.828118 0
M  V30 38 H -0.809628 3.607917 -0.907611 0
M  V30 39 H -4.258313 0.513630 0.766686 0
M  V30 40 H -5.322990 -1.050941 -0.872852 0
M  V30 41 H -4.967444 -0.758933 -3.301975 0
M  V30 42 H -3.544934 1.105667 -4.024370 0
M  V30 43 H -2.939887 1.528285 1.889812 0
M  V30 44 H -1.964399 3.099998 2.076482 0
M  V30 45 H -4.159939 4.164097 2.216854 0
M  V30 46 H -4.919328 2.754747 1.270701 0
M  V30 47 H -4.081900 4.149456 -0.691038 0
M  V30 48 H -2.756975 4.809304 0.403439 0
M  V30 49 H 1.288715 -2.237019 1.816767 0
M  V30 50 H 5.590528 -3.679483 3.351688 0
M  V30 51 H 5.055938 -5.805501 4.580326 0
M  V30 END ATOM
M  V30 BEGIN BOND
M  V30 1 1 1 2
M  V30 2 2 2 3
M  V30 3 1 3 4
M  V30 4 1 4 5
M  V30 5 2 5 6
M  V30 6 1 6 7
M  V30 7 1 7 8
M  V30 8 2 8 9
M  V30 9 1 9 10
M  V30 10 1 10 11
M  V30 11 1 11 12
M  V30 12 2 12 13
M  V30 13 1 12 14
M  V30 14 1 14 15
M  V30 15 1 15 16
M  V30 16 2 16 17
M  V30 17 1 17 18
M  V30 18 2 18 19
M  V30 19 1 19 20
M  V30 20 2 20 21
M  V30 21 1 15 22
M  V30 22 1 22 23
M  V30 23 1 23 24
M  V30 24 2 10 25
M  V30 25 1 25 26
M  V30 26 2 26 27
M  V30 27 2 4 28
M  V30 28 1 28 29
M  V30 29 2 29 30
M  V30 30 1 30 2
M  V30 31 1 27 5
M  V30 32 1 27 8
M  V30 33 1 24 15
M  V30 34 1 21 16
M  V30 35 1 1 31
M  V30 36 1 1 32
M  V30 37 1 1 33
M  V30 38 1 3 34
M  V30 39 1 7 35
M  V30 40 1 9 36
M  V30 41 1 11 37
M  V30 42 1 14 38
M  V30 43 1 17 39
M  V30 44 1 18 40
M  V30 45 1 19 41
M  V30 46 1 20 42
M  V30 47 1 22 43
M  V30 48 1 22 44
M  V30 49 1 23 45
M  V30 50 1 23 46
M  V30 51 1 24 47
M  V30 52 1 24 48
M  V30 53 1 26 49
M  V30 54 1 28 50
M  V30 55 1 29 51
M  V30 END BOND
M  V30 END CTAB
M  END
>  <Dataset>  (952) 
ChEMBL_Kinases

>  <Ligand_Instance>  (952) 
nan

>  <PDB_ID>  (952) 
nan

>  <Standardized_SMILES>  (952) 
Cc1cc(-c2n[nH]c3cc(NC(=O)NC4(c5ccccn5)CCC4)ncc23)ccn1

>  <Name>  (952) 
nan

>  <Pocket>  (952) 
nan

>  <ATP_Site>  (952) 
nan

>  <Peripheral>  (952) 
nan

>  <Num_H_Atoms_ProtBoundConf>  (952) 
nan

>  <Num_Resolved_Atoms>  (952) 
nan

>  <Num_Not_Resolved_Atoms>  (952) 
nan

$$$$
CHEMBL3658718
     RDKit          3D

  0  0  0  0  0  0  0  0  0  0999 V3000
M  V30 BEGIN CTAB
M  V30 COUNTS 48 51 0 0 0
M  V30 BEGIN ATOM
M  V30 1 C -2.606425 -6.847295 0.814300 0
M  V30 2 C -1.126486 -6.869469 0.643979 0
M  V30 3 C -0.359470 -5.770696 0.932658 0
M  V30 4 C 1.013324 -5.743354 0.790935 0
M  V30 5 C 1.854142 -4.594835 1.088387 0
M  V30 6 N 3.032461 -4.594113 1.776278 0
M  V30 7 N 3.512488 -3.347810 1.846596 0
M  V30 8 C 2.629349 -2.566803 1.199360 0
M  V30 9 C 2.696905 -1.200762 1.008671 0
M  V30 10 C 1.676426 -0.583801 0.308885 0
M  V30 11 N 1.520572 0.800898 -0.015404 0
M  V30 12 C 0.816754 1.623614 0.916641 0
M  V30 13 O 0.321476 1.217403 2.007309 0
M  V30 14 N 0.699775 2.981688 0.532534 0
M  V30 15 C 0.005814 3.933423 1.389493 0
M  V30 16 C 0.963190 4.980018 1.875982 0
M  V30 17 F 1.541701 5.693067 0.859340 0
M  V30 18 C -1.211056 4.482611 0.756658 0
M  V30 19 C -2.399465 4.589402 1.454892 0
M  V30 20 C -3.607408 5.077943 1.000187 0
M  V30 21 C -3.575933 5.500991 -0.323310 0
M  V30 22 C -2.438094 5.437663 -1.111088 0
M  V30 23 C -1.262699 4.925528 -0.556004 0
M  V30 24 N 0.624268 -1.303161 -0.184272 0
M  V30 25 C 0.559158 -2.654349 0.005343 0
M  V30 26 C 1.565255 -3.294716 0.700675 0
M  V30 27 C 1.609337 -6.903702 0.331417 0
M  V30 28 C 0.803361 -7.998013 0.048539 0
M  V30 29 N -0.534655 -7.995879 0.196444 0
M  V30 30 H -2.957886 -7.688627 1.431114 0
M  V30 31 H -3.152523 -6.881293 -0.149228 0
M  V30 32 H -2.912457 -5.914167 1.319605 0
M  V30 33 H -0.852641 -4.876715 1.290424 0
M  V30 34 H 4.401699 -3.043911 2.314604 0
M  V30 35 H 3.462171 -0.512550 1.339561 0
M  V30 36 H 1.921030 1.168399 -0.914502 0
M  V30 37 H 1.093708 3.373011 -0.365063 0
M  V30 38 H -0.329058 3.341006 2.267204 0
M  V30 39 H 1.738576 4.461881 2.474636 0
M  V30 40 H 0.413389 5.643393 2.596639 0
M  V30 41 H -2.359334 4.239560 2.492297 0
M  V30 42 H -4.461101 5.110254 1.637818 0
M  V30 43 H -4.501377 5.899806 -0.746828 0
M  V30 44 H -2.483569 5.785163 -2.136682 0
M  V30 45 H -0.364978 4.867565 -1.153026 0
M  V30 46 H -0.263394 -3.250442 -0.374519 0
M  V30 47 H 2.698364 -6.974314 0.187651 0
M  V30 48 H 1.329344 -8.890719 -0.312406 0
M  V30 END ATOM
M  V30 BEGIN BOND
M  V30 1 1 1 2
M  V30 2 2 2 3
M  V30 3 1 3 4
M  V30 4 1 4 5
M  V30 5 2 5 6
M  V30 6 1 6 7
M  V30 7 1 7 8
M  V30 8 2 8 9
M  V30 9 1 9 10
M  V30 10 1 10 11
M  V30 11 1 11 12
M  V30 12 2 12 13
M  V30 13 1 12 14
M  V30 14 1 14 15
M  V30 15 1 15 16
M  V30 16 1 16 17
M  V30 17 1 15 18
M  V30 18 2 18 19
M  V30 19 1 19 20
M  V30 20 2 20 21
M  V30 21 1 21 22
M  V30 22 2 22 23
M  V30 23 2 10 24
M  V30 24 1 24 25
M  V30 25 2 25 26
M  V30 26 2 4 27
M  V30 27 1 27 28
M  V30 28 2 28 29
M  V30 29 1 29 2
M  V30 30 1 26 5
M  V30 31 1 26 8
M  V30 32 1 23 18
M  V30 33 1 1 30
M  V30 34 1 1 31
M  V30 35 1 1 32
M  V30 36 1 3 33
M  V30 37 1 7 34
M  V30 38 1 9 35
M  V30 39 1 11 36
M  V30 40 1 14 37
M  V30 41 1 15 38
M  V30 42 1 16 39
M  V30 43 1 16 40
M  V30 44 1 19 41
M  V30 45 1 20 42
M  V30 46 1 21 43
M  V30 47 1 22 44
M  V30 48 1 23 45
M  V30 49 1 25 46
M  V30 50 1 27 47
M  V30 51 1 28 48
M  V30 END BOND
M  V30 END CTAB
M  END
>  <Dataset>  (953) 
ChEMBL_Kinases

>  <Ligand_Instance>  (953) 
nan

>  <PDB_ID>  (953) 
nan

>  <Standardized_SMILES>  (953) 
Cc1cc(-c2n[nH]c3cc(NC(=O)NC(CF)c4ccccc4)ncc23)ccn1

>  <Name>  (953) 
nan

>  <Pocket>  (953) 
nan

>  <ATP_Site>  (953) 
nan

>  <Peripheral>  (953) 
nan

>  <Num_H_Atoms_ProtBoundConf>  (953) 
nan

>  <Num_Resolved_Atoms>  (953) 
nan

>  <Num_Not_Resolved_Atoms>  (953) 
nan

$$$$
CHEMBL3658700
     RDKit          3D

  0  0  0  0  0  0  0  0  0  0999 V3000
M  V30 BEGIN CTAB
M  V30 COUNTS 55 59 0 0 0
M  V30 BEGIN ATOM
M  V30 1 C 6.757582 -5.644005 1.481503 0
M  V30 2 C 5.425584 -4.973026 1.688554 0
M  V30 3 C 5.372904 -3.683389 2.155859 0
M  V30 4 C 4.140013 -3.091209 2.337163 0
M  V30 5 C 3.928961 -1.735456 2.827486 0
M  V30 6 N 4.521552 -1.122784 3.879550 0
M  V30 7 N 4.082859 0.100629 4.023114 0
M  V30 8 C 3.152226 0.411124 3.070470 0
M  V30 9 C 2.371875 1.495204 2.724848 0
M  V30 10 C 1.513825 1.421492 1.648262 0
M  V30 11 N 0.703274 2.533144 1.285171 0
M  V30 12 C -0.170204 2.457515 0.180165 0
M  V30 13 O -0.189238 1.382714 -0.445611 0
M  V30 14 N -0.998416 3.529902 -0.226388 0
M  V30 15 C -1.923988 3.548415 -1.342103 0
M  V30 16 C -3.167930 2.797830 -1.034231 0
M  V30 17 C -4.257806 3.417304 -0.445488 0
M  V30 18 C -5.439811 2.731765 -0.149994 0
M  V30 19 C -5.542729 1.370044 -0.453120 0
M  V30 20 C -4.461470 0.719231 -1.046243 0
M  V30 21 C -4.581933 -0.691777 -1.354552 0
M  V30 22 C -5.327754 -1.583924 -0.620993 0
M  V30 23 C -5.380957 -2.903507 -0.991320 0
M  V30 24 C -4.703431 -3.401437 -2.097871 0
M  V30 25 C -3.943136 -2.520087 -2.854821 0
M  V30 26 C -3.904610 -1.193383 -2.461923 0
M  V30 27 C -3.332359 1.466835 -1.305328 0
M  V30 28 N 1.465366 0.277438 0.959806 0
M  V30 29 C 2.210322 -0.800209 1.266325 0
M  V30 30 C 3.079081 -0.771668 2.331410 0
M  V30 31 C 2.993834 -3.797214 2.049082 0
M  V30 32 C 3.093751 -5.109550 1.574809 0
M  V30 33 N 4.306190 -5.692943 1.396053 0
M  V30 34 H 7.114786 -6.090425 2.431117 0
M  V30 35 H 6.689529 -6.445887 0.717435 0
M  V30 36 H 7.471356 -4.830126 1.218640 0
M  V30 37 H 6.255247 -3.101068 2.391943 0
M  V30 38 H 4.361730 0.814362 4.752381 0
M  V30 39 H 2.469324 2.384385 3.331455 0
M  V30 40 H 0.767174 3.410613 1.855219 0
M  V30 41 H -0.887855 4.389523 0.390477 0
M  V30 42 H -2.227641 4.591915 -1.512807 0
M  V30 43 H -1.444523 3.158532 -2.266356 0
M  V30 44 H -4.211614 4.487236 -0.193956 0
M  V30 45 H -6.302540 3.185761 0.307648 0
M  V30 46 H -6.433758 0.795371 -0.244928 0
M  V30 47 H -5.865057 -1.209361 0.251231 0
M  V30 48 H -5.948927 -3.627394 -0.448468 0
M  V30 49 H -4.724187 -4.438955 -2.418987 0
M  V30 50 H -3.381415 -2.839302 -3.742128 0
M  V30 51 H -3.303382 -0.497351 -3.061878 0
M  V30 52 H -2.538653 0.897320 -1.766092 0
M  V30 53 H 2.068498 -1.656142 0.621008 0
M  V30 54 H 1.957733 -3.500134 2.130736 0
M  V30 55 H 2.265829 -5.764826 1.313917 0
M  V30 END ATOM
M  V30 BEGIN BOND
M  V30 1 1 1 2
M  V30 2 2 2 3
M  V30 3 1 3 4
M  V30 4 1 4 5
M  V30 5 2 5 6
M  V30 6 1 6 7
M  V30 7 1 7 8
M  V30 8 2 8 9
M  V30 9 1 9 10
M  V30 10 1 10 11
M  V30 11 1 11 12
M  V30 12 2 12 13
M  V30 13 1 12 14
M  V30 14 1 14 15
M  V30 15 1 15 16
M  V30 16 2 16 17
M  V30 17 1 17 18
M  V30 18 2 18 19
M  V30 19 1 19 20
M  V30 20 1 20 21
M  V30 21 2 21 22
M  V30 22 1 22 23
M  V30 23 2 23 24
M  V30 24 1 24 25
M  V30 25 2 25 26
M  V30 26 2 20 27
M  V30 27 2 10 28
M  V30 28 1 28 29
M  V30 29 2 29 30
M  V30 30 2 4 31
M  V30 31 1 31 32
M  V30 32 2 32 33
M  V30 33 1 33 2
M  V30 34 1 30 5
M  V30 35 1 30 8
M  V30 36 1 27 16
M  V30 37 1 26 21
M  V30 38 1 1 34
M  V30 39 1 1 35
M  V30 40 1 1 36
M  V30 41 1 3 37
M  V30 42 1 7 38
M  V30 43 1 9 39
M  V30 44 1 11 40
M  V30 45 1 14 41
M  V30 46 1 15 42
M  V30 47 1 15 43
M  V30 48 1 17 44
M  V30 49 1 18 45
M  V30 50 1 19 46
M  V30 51 1 22 47
M  V30 52 1 23 48
M  V30 53 1 24 49
M  V30 54 1 25 50
M  V30 55 1 26 51
M  V30 56 1 27 52
M  V30 57 1 29 53
M  V30 58 1 31 54
M  V30 59 1 32 55
M  V30 END BOND
M  V30 END CTAB
M  END
>  <Dataset>  (954) 
ChEMBL_Kinases

>  <Ligand_Instance>  (954) 
nan

>  <PDB_ID>  (954) 
nan

>  <Standardized_SMILES>  (954) 
Cc1cc(-c2n[nH]c3cc(NC(=O)NCc4cccc(-c5ccccc5)c4)ncc23)ccn1

>  <Name>  (954) 
nan

>  <Pocket>  (954) 
nan

>  <ATP_Site>  (954) 
nan

>  <Peripheral>  (954) 
nan

>  <Num_H_Atoms_ProtBoundConf>  (954) 
nan

>  <Num_Resolved_Atoms>  (954) 
nan

>  <Num_Not_Resolved_Atoms>  (954) 
nan

$$$$
CHEMBL3658701
     RDKit          3D

  0  0  0  0  0  0  0  0  0  0999 V3000
M  V30 BEGIN CTAB
M  V30 COUNTS 52 55 0 0 0
M  V30 BEGIN ATOM
M  V30 1 C -3.737055 -1.506277 -6.735575 0
M  V30 2 C -2.527743 -2.243623 -6.320615 0
M  V30 3 C -2.079346 -2.174411 -5.012039 0
M  V30 4 C -0.961340 -2.857822 -4.554475 0
M  V30 5 C -0.367159 -2.892237 -3.230216 0
M  V30 6 N 0.006200 -4.072924 -2.635826 0
M  V30 7 N 0.525684 -3.803739 -1.436286 0
M  V30 8 C 0.483441 -2.458399 -1.267313 0
M  V30 9 C 0.868842 -1.588535 -0.267705 0
M  V30 10 C 0.717091 -0.188973 -0.349587 0
M  V30 11 N 1.239401 0.361732 0.871704 0
M  V30 12 C 0.244965 0.601909 1.849563 0
M  V30 13 O -0.984683 0.488989 1.874780 0
M  V30 14 N 0.825239 1.074457 3.068476 0
M  V30 15 C 0.294784 1.462412 4.350071 0
M  V30 16 C 0.505960 2.889865 4.715226 0
M  V30 17 C 1.915877 3.382810 4.749682 0
M  V30 18 O 2.769836 2.778413 5.609422 0
M  V30 19 C 0.423042 0.468394 5.425826 0
M  V30 20 C 0.142342 -0.811560 4.982308 0
M  V30 21 C 0.125857 -1.990612 5.673242 0
M  V30 22 C 0.448339 -1.875983 7.033017 0
M  V30 23 C 0.747508 -0.617156 7.552646 0
M  V30 24 C 0.734593 0.518843 6.774164 0
M  V30 25 N 0.164507 0.326216 -1.477702 0
M  V30 26 C -0.233073 -0.463218 -2.485895 0
M  V30 27 C -0.081346 -1.833718 -2.391647 0
M  V30 28 C -0.334514 -3.619617 -5.552475 0
M  V30 29 C -0.743146 -3.711551 -6.858737 0
M  V30 30 N -1.838194 -3.006662 -7.182256 0
M  V30 31 H -4.345617 -2.160072 -7.438647 0
M  V30 32 H -3.510530 -0.607461 -7.339191 0
M  V30 33 H -4.376906 -1.213431 -5.861927 0
M  V30 34 H -2.570441 -1.579908 -4.227814 0
M  V30 35 H 0.898570 -4.496003 -0.742895 0
M  V30 36 H 1.306186 -2.139882 0.596554 0
M  V30 37 H 2.274907 0.454196 0.823940 0
M  V30 38 H 1.841201 1.216768 3.241241 0
M  V30 39 H -0.864890 1.442561 4.114083 0
M  V30 40 H -0.073088 3.585358 4.020551 0
M  V30 41 H 0.051379 3.139381 5.716003 0
M  V30 42 H 1.836881 4.470257 5.046591 0
M  V30 43 H 2.305183 3.393728 3.683375 0
M  V30 44 H 3.405632 2.132755 5.180740 0
M  V30 45 H -0.121418 -1.068344 3.940022 0
M  V30 46 H -0.091865 -2.978367 5.332294 0
M  V30 47 H 0.486040 -2.710827 7.730082 0
M  V30 48 H 1.004359 -0.410276 8.592791 0
M  V30 49 H 0.925581 1.551863 7.045238 0
M  V30 50 H -0.677010 -0.029526 -3.366329 0
M  V30 51 H 0.571858 -4.207358 -5.301799 0
M  V30 52 H -0.207579 -4.318978 -7.572989 0
M  V30 END ATOM
M  V30 BEGIN BOND
M  V30 1 1 1 2
M  V30 2 2 2 3
M  V30 3 1 3 4
M  V30 4 1 4 5
M  V30 5 2 5 6
M  V30 6 1 6 7
M  V30 7 1 7 8
M  V30 8 2 8 9
M  V30 9 1 9 10
M  V30 10 1 10 11
M  V30 11 1 11 12
M  V30 12 2 12 13
M  V30 13 1 12 14
M  V30 14 1 14 15
M  V30 15 1 15 16
M  V30 16 1 16 17
M  V30 17 1 17 18
M  V30 18 1 15 19
M  V30 19 2 19 20
M  V30 20 1 20 21
M  V30 21 2 21 22
M  V30 22 1 22 23
M  V30 23 2 23 24
M  V30 24 2 10 25
M  V30 25 1 25 26
M  V30 26 2 26 27
M  V30 27 2 4 28
M  V30 28 1 28 29
M  V30 29 2 29 30
M  V30 30 1 30 2
M  V30 31 1 27 5
M  V30 32 1 27 8
M  V30 33 1 24 19
M  V30 34 1 1 31
M  V30 35 1 1 32
M  V30 36 1 1 33
M  V30 37 1 3 34
M  V30 38 1 7 35
M  V30 39 1 9 36
M  V30 40 1 11 37
M  V30 41 1 14 38
M  V30 42 1 15 39
M  V30 43 1 16 40
M  V30 44 1 16 41
M  V30 45 1 17 42
M  V30 46 1 17 43
M  V30 47 1 18 44
M  V30 48 1 20 45
M  V30 49 1 21 46
M  V30 50 1 22 47
M  V30 51 1 23 48
M  V30 52 1 24 49
M  V30 53 1 26 50
M  V30 54 1 28 51
M  V30 55 1 29 52
M  V30 END BOND
M  V30 END CTAB
M  END
>  <Dataset>  (955) 
ChEMBL_Kinases

>  <Ligand_Instance>  (955) 
nan

>  <PDB_ID>  (955) 
nan

>  <Standardized_SMILES>  (955) 
Cc1cc(-c2n[nH]c3cc(NC(=O)NC(CCO)c4ccccc4)ncc23)ccn1

>  <Name>  (955) 
nan

>  <Pocket>  (955) 
nan

>  <ATP_Site>  (955) 
nan

>  <Peripheral>  (955) 
nan

>  <Num_H_Atoms_ProtBoundConf>  (955) 
nan

>  <Num_Resolved_Atoms>  (955) 
nan

>  <Num_Not_Resolved_Atoms>  (955) 
nan

$$$$
CHEMBL3658702
     RDKit          3D

  0  0  0  0  0  0  0  0  0  0999 V3000
M  V30 BEGIN CTAB
M  V30 COUNTS 53 57 0 0 0
M  V30 BEGIN ATOM
M  V30 1 C -3.268741 -4.211833 2.799175 0
M  V30 2 C -1.936911 -4.819808 2.614039 0
M  V30 3 C -0.783654 -4.080711 2.396256 0
M  V30 4 C 0.480790 -4.659242 2.223107 0
M  V30 5 C 1.621850 -3.773085 1.994632 0
M  V30 6 N 2.872086 -3.691069 2.532926 0
M  V30 7 N 3.537372 -2.695425 1.972273 0
M  V30 8 C 2.740570 -2.110978 1.062628 0
M  V30 9 C 3.040709 -1.041033 0.253969 0
M  V30 10 C 2.087687 -0.585582 -0.623780 0
M  V30 11 N 2.038548 0.473209 -1.576938 0
M  V30 12 C 1.109717 1.532596 -1.325515 0
M  V30 13 N 1.347625 2.318206 -0.152973 0
M  V30 14 C 0.100850 3.047971 0.125366 0
M  V30 15 C -0.866439 2.066131 0.659568 0
M  V30 16 C -0.256268 1.275008 1.639853 0
M  V30 17 C -0.942096 0.254860 2.316217 0
M  V30 18 C -2.263013 0.064462 1.966809 0
M  V30 19 C -2.893288 0.835310 0.998310 0
M  V30 20 C -2.198749 1.842751 0.337011 0
M  V30 21 C -0.338829 3.720570 -1.124500 0
M  V30 22 N -0.423250 2.803391 -2.226611 0
M  V30 23 C -0.922387 3.383735 -3.439869 0
M  V30 24 O 0.843924 2.320250 -2.448600 0
M  V30 25 N 0.880492 -1.218155 -0.654037 0
M  V30 26 C 0.608585 -2.273460 0.156115 0
M  V30 27 C 1.528003 -2.762715 1.049439 0
M  V30 28 C 0.576690 -6.047907 2.273244 0
M  V30 29 C -0.586169 -6.759817 2.491393 0
M  V30 30 N -1.812665 -6.182674 2.658960 0
M  V30 31 H -4.000679 -4.877938 3.243203 0
M  V30 32 H -3.616598 -3.862728 1.783229 0
M  V30 33 H -3.162408 -3.270439 3.378417 0
M  V30 34 H -0.980935 -3.025730 2.385053 0
M  V30 35 H 4.516492 -2.435177 2.217364 0
M  V30 36 H 3.939176 -0.457947 0.173207 0
M  V30 37 H 2.728671 0.309068 -2.366545 0
M  V30 38 H 0.122895 1.005051 -1.129392 0
M  V30 39 H 2.142013 2.986360 -0.248247 0
M  V30 40 H 0.267603 3.790739 0.938639 0
M  V30 41 H 0.781163 1.350406 1.983412 0
M  V30 42 H -0.480422 -0.362487 3.074608 0
M  V30 43 H -2.893220 -0.688100 2.418942 0
M  V30 44 H -3.921242 0.736964 0.683875 0
M  V30 45 H -2.542788 2.513417 -0.421251 0
M  V30 46 H 0.487285 4.444382 -1.404821 0
M  V30 47 H -1.250882 4.334965 -1.002063 0
M  V30 48 H -1.608512 4.216641 -3.276271 0
M  V30 49 H -1.410925 2.608483 -4.078204 0
M  V30 50 H -0.060051 3.781375 -4.034657 0
M  V30 51 H -0.365090 -2.778119 0.118875 0
M  V30 52 H 1.540925 -6.519181 2.144238 0
M  V30 53 H -0.569441 -7.838944 2.537524 0
M  V30 END ATOM
M  V30 BEGIN BOND
M  V30 1 1 1 2
M  V30 2 2 2 3
M  V30 3 1 3 4
M  V30 4 1 4 5
M  V30 5 2 5 6
M  V30 6 1 6 7
M  V30 7 1 7 8
M  V30 8 2 8 9
M  V30 9 1 9 10
M  V30 10 1 10 11
M  V30 11 1 11 12
M  V30 12 1 12 13
M  V30 13 1 13 14
M  V30 14 1 14 15
M  V30 15 2 15 16
M  V30 16 1 16 17
M  V30 17 2 17 18
M  V30 18 1 18 19
M  V30 19 2 19 20
M  V30 20 1 14 21
M  V30 21 1 21 22
M  V30 22 1 22 23
M  V30 23 1 22 24
M  V30 24 2 10 25
M  V30 25 1 25 26
M  V30 26 2 26 27
M  V30 27 2 4 28
M  V30 28 1 28 29
M  V30 29 2 29 30
M  V30 30 1 30 2
M  V30 31 1 27 5
M  V30 32 1 27 8
M  V30 33 1 24 12
M  V30 34 1 20 15
M  V30 35 1 1 31
M  V30 36 1 1 32
M  V30 37 1 1 33
M  V30 38 1 3 34
M  V30 39 1 7 35
M  V30 40 1 9 36
M  V30 41 1 11 37
M  V30 42 1 12 38
M  V30 43 1 13 39
M  V30 44 1 14 40
M  V30 45 1 16 41
M  V30 46 1 17 42
M  V30 47 1 18 43
M  V30 48 1 19 44
M  V30 49 1 20 45
M  V30 50 1 21 46
M  V30 51 1 21 47
M  V30 52 1 23 48
M  V30 53 1 23 49
M  V30 54 1 23 50
M  V30 55 1 26 51
M  V30 56 1 28 52
M  V30 57 1 29 53
M  V30 END BOND
M  V30 END CTAB
M  END
>  <Dataset>  (956) 
ChEMBL_Kinases

>  <Ligand_Instance>  (956) 
nan

>  <PDB_ID>  (956) 
nan

>  <Standardized_SMILES>  (956) 
Cc1cc(-c2n[nH]c3cc(NC4NC(c5ccccc5)CN(C)O4)ncc23)ccn1

>  <Name>  (956) 
nan

>  <Pocket>  (956) 
nan

>  <ATP_Site>  (956) 
nan

>  <Peripheral>  (956) 
nan

>  <Num_H_Atoms_ProtBoundConf>  (956) 
nan

>  <Num_Resolved_Atoms>  (956) 
nan

>  <Num_Not_Resolved_Atoms>  (956) 
nan

$$$$
CHEMBL3658703
     RDKit          3D

  0  0  0  0  0  0  0  0  0  0999 V3000
M  V30 BEGIN CTAB
M  V30 COUNTS 48 51 0 0 0
M  V30 BEGIN ATOM
M  V30 1 C -2.283359 -7.475752 -0.203302 0
M  V30 2 C -0.800506 -7.305986 -0.366815 0
M  V30 3 C -0.262183 -6.136290 0.182656 0
M  V30 4 C 1.118281 -5.992205 0.023044 0
M  V30 5 C 1.754024 -4.796885 0.566810 0
M  V30 6 N 2.892991 -4.682570 1.300222 0
M  V30 7 N 3.129550 -3.409630 1.598494 0
M  V30 8 C 2.148377 -2.657205 1.065887 0
M  V30 9 C 1.978233 -1.288025 1.116902 0
M  V30 10 C 0.877857 -0.745284 0.482894 0
M  V30 11 N 0.488583 0.625156 0.396200 0
M  V30 12 C -0.325068 1.499306 1.167869 0
M  V30 13 O -0.767279 0.842883 2.125173 0
M  V30 14 N -0.459653 2.823739 0.734835 0
M  V30 15 C -1.296983 3.684956 1.548278 0
M  V30 16 C -2.498669 4.035612 0.662644 0
M  V30 17 O -3.361117 4.867806 1.375415 0
M  V30 18 C -0.627452 4.959782 1.889571 0
M  V30 19 C 0.038647 5.587967 0.844778 0
M  V30 20 C 0.715191 6.788021 1.001114 0
M  V30 21 C 0.678685 7.321864 2.289147 0
M  V30 22 N 0.044332 6.735971 3.310576 0
M  V30 23 C -0.606003 5.574295 3.142608 0
M  V30 24 N 0.017358 -1.565942 -0.157253 0
M  V30 25 C 0.204488 -2.907948 -0.194329 0
M  V30 26 C 1.285035 -3.516581 0.419674 0
M  V30 27 C 1.853988 -6.957649 -0.634428 0
M  V30 28 C 1.236584 -8.087886 -1.148604 0
M  V30 29 N -0.093543 -8.256056 -1.010970 0
M  V30 30 H -2.509892 -8.538822 -0.307969 0
M  V30 31 H -2.840074 -6.797125 -0.856556 0
M  V30 32 H -2.495869 -7.209114 0.862237 0
M  V30 33 H -0.902038 -5.426891 0.684927 0
M  V30 34 H 3.942295 -3.032430 2.156674 0
M  V30 35 H 2.604406 -0.574755 1.595768 0
M  V30 36 H 0.990774 0.940575 -0.486854 0
M  V30 37 H 0.027614 3.145048 -0.129145 0
M  V30 38 H -1.692348 3.128756 2.395035 0
M  V30 39 H -3.049356 3.106666 0.373055 0
M  V30 40 H -2.161057 4.498357 -0.287139 0
M  V30 41 H -3.855767 5.484854 0.769722 0
M  V30 42 H 0.075707 5.183081 -0.167638 0
M  V30 43 H 1.229208 7.261813 0.172652 0
M  V30 44 H 1.212231 8.268081 2.413314 0
M  V30 45 H -1.139181 5.042917 3.915479 0
M  V30 46 H -0.509995 -3.532236 -0.720783 0
M  V30 47 H 2.923898 -6.829279 -0.748866 0
M  V30 48 H 1.813081 -8.852175 -1.668278 0
M  V30 END ATOM
M  V30 BEGIN BOND
M  V30 1 1 1 2
M  V30 2 2 2 3
M  V30 3 1 3 4
M  V30 4 1 4 5
M  V30 5 2 5 6
M  V30 6 1 6 7
M  V30 7 1 7 8
M  V30 8 2 8 9
M  V30 9 1 9 10
M  V30 10 1 10 11
M  V30 11 1 11 12
M  V30 12 2 12 13
M  V30 13 1 12 14
M  V30 14 1 14 15
M  V30 15 1 15 16
M  V30 16 1 16 17
M  V30 17 1 15 18
M  V30 18 2 18 19
M  V30 19 1 19 20
M  V30 20 2 20 21
M  V30 21 1 21 22
M  V30 22 2 22 23
M  V30 23 2 10 24
M  V30 24 1 24 25
M  V30 25 2 25 26
M  V30 26 2 4 27
M  V30 27 1 27 28
M  V30 28 2 28 29
M  V30 29 1 29 2
M  V30 30 1 26 5
M  V30 31 1 26 8
M  V30 32 1 23 18
M  V30 33 1 1 30
M  V30 34 1 1 31
M  V30 35 1 1 32
M  V30 36 1 3 33
M  V30 37 1 7 34
M  V30 38 1 9 35
M  V30 39 1 11 36
M  V30 40 1 14 37
M  V30 41 1 15 38
M  V30 42 1 16 39
M  V30 43 1 16 40
M  V30 44 1 17 41
M  V30 45 1 19 42
M  V30 46 1 20 43
M  V30 47 1 21 44
M  V30 48 1 23 45
M  V30 49 1 25 46
M  V30 50 1 27 47
M  V30 51 1 28 48
M  V30 END BOND
M  V30 END CTAB
M  END
>  <Dataset>  (957) 
ChEMBL_Kinases

>  <Ligand_Instance>  (957) 
nan

>  <PDB_ID>  (957) 
nan

>  <Standardized_SMILES>  (957) 
Cc1cc(-c2n[nH]c3cc(NC(=O)NC(CO)c4cccnc4)ncc23)ccn1

>  <Name>  (957) 
nan

>  <Pocket>  (957) 
nan

>  <ATP_Site>  (957) 
nan

>  <Peripheral>  (957) 
nan

>  <Num_H_Atoms_ProtBoundConf>  (957) 
nan

>  <Num_Resolved_Atoms>  (957) 
nan

>  <Num_Not_Resolved_Atoms>  (957) 
nan

$$$$
CHEMBL3658704
     RDKit          3D

  0  0  0  0  0  0  0  0  0  0999 V3000
M  V30 BEGIN CTAB
M  V30 COUNTS 44 48 0 0 0
M  V30 BEGIN ATOM
M  V30 1 C -2.032068 -8.480389 1.290243 0
M  V30 2 C -2.197714 -7.009227 1.081480 0
M  V30 3 C -1.178484 -6.135222 1.467921 0
M  V30 4 C -1.306474 -4.766416 1.285589 0
M  V30 5 C -0.267835 -3.817469 1.674241 0
M  V30 6 N 0.406481 -3.841891 2.854324 0
M  V30 7 N 1.290158 -2.842011 2.906253 0
M  V30 8 C 1.159586 -2.187803 1.737068 0
M  V30 9 C 1.857700 -1.074381 1.309555 0
M  V30 10 C 1.537607 -0.584604 0.056727 0
M  V30 11 N 2.113875 0.543857 -0.599198 0
M  V30 12 C 1.515612 1.819273 -0.396406 0
M  V30 13 O 0.495432 2.023996 0.334593 0
M  V30 14 N 2.075736 2.968671 -1.044452 0
M  V30 15 C 1.519492 4.273622 -0.879171 0
M  V30 16 N 0.552582 4.792178 -1.679374 0
M  V30 17 O 0.244658 5.994168 -1.290012 0
M  V30 18 C 0.944872 6.365626 -0.246414 0
M  V30 19 C 1.042948 7.476938 0.557886 0
M  V30 20 C 1.932220 7.518748 1.616109 0
M  V30 21 C 2.735298 6.419258 1.865187 0
M  V30 22 C 2.682283 5.260454 1.083683 0
M  V30 23 C 1.771290 5.279425 0.038023 0
M  V30 24 N 0.586558 -1.145404 -0.745600 0
M  V30 25 C -0.102585 -2.245743 -0.321800 0
M  V30 26 C 0.196669 -2.755631 0.924796 0
M  V30 27 C -2.491957 -4.358968 0.707280 0
M  V30 28 C -3.509296 -5.204374 0.319130 0
M  V30 29 N -3.346025 -6.539760 0.514535 0
M  V30 30 H -2.452796 -8.795026 2.279350 0
M  V30 31 H -2.660267 -8.977336 0.521728 0
M  V30 32 H -1.004454 -8.829713 1.116608 0
M  V30 33 H -0.272914 -6.534945 1.917689 0
M  V30 34 H 1.947549 -2.608390 3.683833 0
M  V30 35 H 2.631244 -0.528972 1.832865 0
M  V30 36 H 2.950681 0.382294 -1.200034 0
M  V30 37 H 2.923665 2.800098 -1.652356 0
M  V30 38 H 0.371358 8.302296 0.291031 0
M  V30 39 H 1.980888 8.410217 2.226483 0
M  V30 40 H 3.430415 6.458105 2.696162 0
M  V30 41 H 3.306403 4.398007 1.272335 0
M  V30 42 H -0.864788 -2.725812 -0.920752 0
M  V30 43 H -2.689920 -3.311678 0.522262 0
M  V30 44 H -4.427798 -4.856885 -0.131812 0
M  V30 END ATOM
M  V30 BEGIN BOND
M  V30 1 1 1 2
M  V30 2 2 2 3
M  V30 3 1 3 4
M  V30 4 1 4 5
M  V30 5 2 5 6
M  V30 6 1 6 7
M  V30 7 1 7 8
M  V30 8 2 8 9
M  V30 9 1 9 10
M  V30 10 1 10 11
M  V30 11 1 11 12
M  V30 12 2 12 13
M  V30 13 1 12 14
M  V30 14 1 14 15
M  V30 15 2 15 16
M  V30 16 1 16 17
M  V30 17 1 17 18
M  V30 18 2 18 19
M  V30 19 1 19 20
M  V30 20 2 20 21
M  V30 21 1 21 22
M  V30 22 2 22 23
M  V30 23 2 10 24
M  V30 24 1 24 25
M  V30 25 2 25 26
M  V30 26 2 4 27
M  V30 27 1 27 28
M  V30 28 2 28 29
M  V30 29 1 29 2
M  V30 30 1 26 5
M  V30 31 1 26 8
M  V30 32 1 23 15
M  V30 33 1 23 18
M  V30 34 1 1 30
M  V30 35 1 1 31
M  V30 36 1 1 32
M  V30 37 1 3 33
M  V30 38 1 7 34
M  V30 39 1 9 35
M  V30 40 1 11 36
M  V30 41 1 14 37
M  V30 42 1 19 38
M  V30 43 1 20 39
M  V30 44 1 21 40
M  V30 45 1 22 41
M  V30 46 1 25 42
M  V30 47 1 27 43
M  V30 48 1 28 44
M  V30 END BOND
M  V30 END CTAB
M  END
>  <Dataset>  (958) 
ChEMBL_Kinases

>  <Ligand_Instance>  (958) 
nan

>  <PDB_ID>  (958) 
nan

>  <Standardized_SMILES>  (958) 
Cc1cc(-c2n[nH]c3cc(NC(=O)Nc4noc5ccccc45)ncc23)ccn1

>  <Name>  (958) 
nan

>  <Pocket>  (958) 
nan

>  <ATP_Site>  (958) 
nan

>  <Peripheral>  (958) 
nan

>  <Num_H_Atoms_ProtBoundConf>  (958) 
nan

>  <Num_Resolved_Atoms>  (958) 
nan

>  <Num_Not_Resolved_Atoms>  (958) 
nan

$$$$
CHEMBL3658705
     RDKit          3D

  0  0  0  0  0  0  0  0  0  0999 V3000
M  V30 BEGIN CTAB
M  V30 COUNTS 50 53 0 0 0
M  V30 BEGIN ATOM
M  V30 1 C 0.892759 -3.566270 7.520681 0
M  V30 2 C 1.586723 -2.922095 6.374570 0
M  V30 3 C 2.263913 -3.609918 5.388563 0
M  V30 4 C 2.880241 -2.928773 4.359796 0
M  V30 5 C 2.845687 -1.531274 4.273008 0
M  V30 6 C 3.509376 -0.776221 3.161697 0
M  V30 7 C 4.979428 -0.630342 3.396759 0
M  V30 8 N 3.195501 -1.437850 1.891832 0
M  V30 9 C 2.347754 -0.710563 1.011697 0
M  V30 10 O 1.870104 0.407691 1.237032 0
M  V30 11 N 2.068658 -1.400427 -0.223212 0
M  V30 12 C 1.208061 -0.701806 -1.140031 0
M  V30 13 C 1.582808 0.179839 -2.125542 0
M  V30 14 C 0.559648 0.706859 -2.862792 0
M  V30 15 N 0.638994 1.595650 -3.891451 0
M  V30 16 N -0.594572 1.861563 -4.348630 0
M  V30 17 C -1.494653 1.151756 -3.626549 0
M  V30 18 C -2.946432 1.105871 -3.745951 0
M  V30 19 C -3.472456 0.991159 -5.037941 0
M  V30 20 C -4.856735 0.942632 -5.206756 0
M  V30 21 N -5.667414 1.007939 -4.110924 0
M  V30 22 C -5.198476 1.117257 -2.869037 0
M  V30 23 C -6.138273 1.182507 -1.723076 0
M  V30 24 C -3.834246 1.165873 -2.692935 0
M  V30 25 C -0.780064 0.433831 -2.703159 0
M  V30 26 C -1.058713 -0.458705 -1.693567 0
M  V30 27 N -0.097106 -1.032077 -0.909284 0
M  V30 28 N 2.173807 -0.917107 5.258251 0
M  V30 29 C 1.560646 -1.546439 6.277007 0
M  V30 30 H 1.417186 -3.425428 8.467525 0
M  V30 31 H -0.172651 -3.204970 7.534601 0
M  V30 32 H 0.850254 -4.679029 7.366947 0
M  V30 33 H 2.296805 -4.689144 5.444774 0
M  V30 34 H 3.422630 -3.440431 3.566298 0
M  V30 35 H 3.006615 0.221839 3.164556 0
M  V30 36 H 5.329984 0.329381 2.960424 0
M  V30 37 H 5.489805 -1.505678 2.943599 0
M  V30 38 H 5.118790 -0.599501 4.505007 0
M  V30 39 H 3.595634 -2.381781 1.698080 0
M  V30 40 H 2.403972 -2.346674 -0.547391 0
M  V30 41 H 2.623466 0.362465 -2.214991 0
M  V30 42 H 1.506927 2.036428 -4.303005 0
M  V30 43 H -2.882487 0.933488 -5.966354 0
M  V30 44 H -5.397435 0.857141 -6.126066 0
M  V30 45 H -5.765752 0.609355 -0.850013 0
M  V30 46 H -7.104960 0.708795 -2.030156 0
M  V30 47 H -6.387525 2.245838 -1.479076 0
M  V30 48 H -3.427964 1.254957 -1.698078 0
M  V30 49 H -2.105511 -0.732157 -1.499682 0
M  V30 50 H 1.058770 -0.876894 6.992213 0
M  V30 END ATOM
M  V30 BEGIN BOND
M  V30 1 1 1 2
M  V30 2 2 2 3
M  V30 3 1 3 4
M  V30 4 2 4 5
M  V30 5 1 5 6
M  V30 6 1 6 7
M  V30 7 1 6 8
M  V30 8 1 8 9
M  V30 9 2 9 10
M  V30 10 1 9 11
M  V30 11 1 11 12
M  V30 12 2 12 13
M  V30 13 1 13 14
M  V30 14 1 14 15
M  V30 15 1 15 16
M  V30 16 2 16 17
M  V30 17 1 17 18
M  V30 18 2 18 19
M  V30 19 1 19 20
M  V30 20 2 20 21
M  V30 21 1 21 22
M  V30 22 1 22 23
M  V30 23 2 22 24
M  V30 24 1 17 25
M  V30 25 1 25 26
M  V30 26 2 26 27
M  V30 27 1 5 28
M  V30 28 2 28 29
M  V30 29 1 29 2
M  V30 30 1 27 12
M  V30 31 2 25 14
M  V30 32 1 24 18
M  V30 33 1 1 30
M  V30 34 1 1 31
M  V30 35 1 1 32
M  V30 36 1 3 33
M  V30 37 1 4 34
M  V30 38 1 6 35
M  V30 39 1 7 36
M  V30 40 1 7 37
M  V30 41 1 7 38
M  V30 42 1 8 39
M  V30 43 1 11 40
M  V30 44 1 13 41
M  V30 45 1 15 42
M  V30 46 1 19 43
M  V30 47 1 20 44
M  V30 48 1 23 45
M  V30 49 1 23 46
M  V30 50 1 23 47
M  V30 51 1 24 48
M  V30 52 1 26 49
M  V30 53 1 29 50
M  V30 END BOND
M  V30 END CTAB
M  END
>  <Dataset>  (959) 
ChEMBL_Kinases

>  <Ligand_Instance>  (959) 
nan

>  <PDB_ID>  (959) 
nan

>  <Standardized_SMILES>  (959) 
Cc1ccc(C(C)NC(=O)Nc2cc3[nH]nc(-c4ccnc(C)c4)c3cn2)nc1

>  <Name>  (959) 
nan

>  <Pocket>  (959) 
nan

>  <ATP_Site>  (959) 
nan

>  <Peripheral>  (959) 
nan

>  <Num_H_Atoms_ProtBoundConf>  (959) 
nan

>  <Num_Resolved_Atoms>  (959) 
nan

>  <Num_Not_Resolved_Atoms>  (959) 
nan

$$$$
CHEMBL3658706
     RDKit          3D

  0  0  0  0  0  0  0  0  0  0999 V3000
M  V30 BEGIN CTAB
M  V30 COUNTS 51 54 0 0 0
M  V30 BEGIN ATOM
M  V30 1 C -0.595341 -7.775331 -1.846091 0
M  V30 2 C 0.353688 -7.469434 -0.743618 0
M  V30 3 C 1.040631 -6.252339 -0.746095 0
M  V30 4 C 1.921717 -5.966505 0.275938 0
M  V30 5 C 2.662800 -4.709725 0.318511 0
M  V30 6 N 3.976142 -4.534344 0.592466 0
M  V30 7 N 4.309864 -3.250182 0.542149 0
M  V30 8 C 3.201343 -2.555081 0.229349 0
M  V30 9 C 3.048898 -1.192341 0.063743 0
M  V30 10 C 1.786350 -0.735721 -0.260103 0
M  V30 11 N 1.381285 0.611779 -0.480197 0
M  V30 12 C 0.904582 1.439101 0.588350 0
M  V30 13 O 0.859591 0.920246 1.734292 0
M  V30 14 N 0.491878 2.804410 0.377082 0
M  V30 15 C 0.020384 3.575111 1.517451 0 CFG=1
M  V30 16 C 0.792820 4.833371 1.732092 0
M  V30 17 C -1.419173 3.953104 1.300556 0
M  V30 18 C -1.886760 4.445925 0.096011 0
M  V30 19 C -3.242137 4.771750 -0.016020 0
M  V30 20 C -4.104162 4.609297 1.045721 0
M  V30 21 Cl -5.810637 5.017970 0.909491 0
M  V30 22 C -3.665527 4.120242 2.257664 0
M  V30 23 C -4.574957 3.931834 3.430006 0
M  V30 24 C -2.326634 3.812487 2.325089 0
M  V30 25 N 0.742856 -1.602362 -0.407405 0
M  V30 26 C 0.918243 -2.947198 -0.238447 0
M  V30 27 C 2.158552 -3.447142 0.084661 0
M  V30 28 C 2.087689 -6.925272 1.282531 0
M  V30 29 C 1.369865 -8.120457 1.223515 0
M  V30 30 N 0.509763 -8.393930 0.221362 0
M  V30 31 H -0.506639 -8.830120 -2.114143 0
M  V30 32 H -0.489935 -7.065283 -2.696952 0
M  V30 33 H -1.618557 -7.594487 -1.433918 0
M  V30 34 H 0.865769 -5.560246 -1.550954 0
M  V30 35 H 5.264843 -2.863357 0.716262 0
M  V30 36 H 3.792786 -0.442553 0.155981 0
M  V30 37 H 1.415246 1.052143 -1.430454 0
M  V30 38 H 0.556389 3.171898 -0.607040 0
M  V30 39 H 0.076545 2.908250 2.389034 0
M  V30 40 H 0.800723 5.423127 0.810475 0
M  V30 41 H 1.783812 4.678067 2.193372 0
M  V30 42 H 0.214724 5.416365 2.503251 0
M  V30 43 H -1.192395 4.568774 -0.734670 0
M  V30 44 H -3.631105 5.163215 -0.961337 0
M  V30 45 H -3.968518 3.765429 4.326775 0
M  V30 46 H -5.253173 3.064347 3.244978 0
M  V30 47 H -5.178217 4.878678 3.503448 0
M  V30 48 H -1.931590 3.420226 3.268842 0
M  V30 49 H 0.087768 -3.629647 -0.356375 0
M  V30 50 H 2.772486 -6.734415 2.102051 0
M  V30 51 H 1.473133 -8.886383 1.985983 0
M  V30 END ATOM
M  V30 BEGIN BOND
M  V30 1 1 1 2
M  V30 2 2 2 3
M  V30 3 1 3 4
M  V30 4 1 4 5
M  V30 5 2 5 6
M  V30 6 1 6 7
M  V30 7 1 7 8
M  V30 8 2 8 9
M  V30 9 1 9 10
M  V30 10 1 10 11
M  V30 11 1 11 12
M  V30 12 2 12 13
M  V30 13 1 12 14
M  V30 14 1 14 15
M  V30 15 1 15 16
M  V30 16 1 15 17
M  V30 17 2 17 18
M  V30 18 1 18 19
M  V30 19 2 19 20
M  V30 20 1 20 21
M  V30 21 1 20 22
M  V30 22 1 22 23
M  V30 23 2 22 24
M  V30 24 2 10 25
M  V30 25 1 25 26
M  V30 26 2 26 27
M  V30 27 2 4 28
M  V30 28 1 28 29
M  V30 29 2 29 30
M  V30 30 1 30 2
M  V30 31 1 27 5
M  V30 32 1 27 8
M  V30 33 1 24 17
M  V30 34 1 1 31
M  V30 35 1 1 32
M  V30 36 1 1 33
M  V30 37 1 3 34
M  V30 38 1 7 35
M  V30 39 1 9 36
M  V30 40 1 11 37
M  V30 41 1 14 38
M  V30 42 1 15 39 CFG=1
M  V30 43 1 16 40
M  V30 44 1 16 41
M  V30 45 1 16 42
M  V30 46 1 18 43
M  V30 47 1 19 44
M  V30 48 1 23 45
M  V30 49 1 23 46
M  V30 50 1 23 47
M  V30 51 1 24 48
M  V30 52 1 26 49
M  V30 53 1 28 50
M  V30 54 1 29 51
M  V30 END BOND
M  V30 END CTAB
M  END
>  <Dataset>  (960) 
ChEMBL_Kinases

>  <Ligand_Instance>  (960) 
nan

>  <PDB_ID>  (960) 
nan

>  <Standardized_SMILES>  (960) 
Cc1cc(-c2n[nH]c3cc(NC(=O)N[C@@H](C)c4ccc(Cl)c(C)c4)ncc23)ccn1

>  <Name>  (960) 
nan

>  <Pocket>  (960) 
nan

>  <ATP_Site>  (960) 
nan

>  <Peripheral>  (960) 
nan

>  <Num_H_Atoms_ProtBoundConf>  (960) 
nan

>  <Num_Resolved_Atoms>  (960) 
nan

>  <Num_Not_Resolved_Atoms>  (960) 
nan

$$$$
CHEMBL3658707
     RDKit          3D

  0  0  0  0  0  0  0  0  0  0999 V3000
M  V30 BEGIN CTAB
M  V30 COUNTS 51 54 0 0 0
M  V30 BEGIN ATOM
M  V30 1 C 4.638591 -6.437123 3.037123 0
M  V30 2 C 3.980098 -6.730147 1.736689 0
M  V30 3 C 3.315871 -5.710375 1.057643 0
M  V30 4 C 2.691829 -5.941525 -0.151092 0
M  V30 5 C 1.991642 -4.852079 -0.855768 0
M  V30 6 N 2.060615 -4.546202 -2.164868 0
M  V30 7 N 1.301705 -3.507785 -2.461379 0
M  V30 8 C 0.693178 -3.086394 -1.326232 0
M  V30 9 C -0.192858 -2.051222 -1.083071 0
M  V30 10 C -0.611536 -1.920472 0.226973 0
M  V30 11 N -1.533323 -0.880684 0.607390 0
M  V30 12 C -0.874449 0.316355 0.993813 0
M  V30 13 O 0.380843 0.551274 1.036763 0
M  V30 14 N -1.643149 1.437246 1.396053 0
M  V30 15 C -1.243305 2.760525 1.833076 0 CFG=2
M  V30 16 C -1.658738 3.054841 3.257987 0
M  V30 17 C -1.797405 3.822965 0.971990 0
M  V30 18 C -1.694277 3.573689 -0.381837 0
M  V30 19 C -2.170534 4.481258 -1.322497 0
M  V30 20 C -2.755587 5.649664 -0.898389 0
M  V30 21 Cl -3.405339 6.896344 -1.947898 0
M  V30 22 C -2.868565 5.918088 0.449483 0
M  V30 23 C -3.465920 7.118224 1.099957 0
M  V30 24 C -2.388936 5.002952 1.363255 0
M  V30 25 N -0.201113 -2.738270 1.241879 0
M  V30 26 C 0.673944 -3.753771 0.978745 0
M  V30 27 C 1.121729 -3.925662 -0.314853 0
M  V30 28 C 2.718723 -7.190186 -0.703319 0
M  V30 29 C 3.394584 -8.189282 0.005980 0
M  V30 30 N 4.000794 -7.956078 1.184508 0
M  V30 31 H 4.937221 -7.395488 3.515191 0
M  V30 32 H 3.980588 -5.934116 3.754436 0
M  V30 33 H 5.535177 -5.806075 2.874969 0
M  V30 34 H 3.320787 -4.737981 1.530581 0
M  V30 35 H 1.150057 -3.039849 -3.390342 0
M  V30 36 H -0.544922 -1.379670 -1.854659 0
M  V30 37 H -2.587500 -1.001917 0.597249 0
M  V30 38 H -2.690487 1.355673 1.398703 0
M  V30 39 H -0.118266 2.743241 1.795555 0
M  V30 40 H -2.755660 3.192692 3.317727 0
M  V30 41 H -1.140617 3.988377 3.556949 0
M  V30 42 H -1.268360 2.275847 3.954689 0
M  V30 43 H -1.243016 2.669472 -0.802960 0
M  V30 44 H -2.116073 4.338513 -2.384614 0
M  V30 45 H -2.619173 7.774479 1.427728 0
M  V30 46 H -4.071199 6.817393 2.001982 0
M  V30 47 H -4.153057 7.636945 0.401757 0
M  V30 48 H -2.428796 5.117834 2.450555 0
M  V30 49 H 0.971861 -4.377498 1.811078 0
M  V30 50 H 2.225187 -7.343359 -1.644871 0
M  V30 51 H 3.404841 -9.187386 -0.455147 0
M  V30 END ATOM
M  V30 BEGIN BOND
M  V30 1 1 1 2
M  V30 2 2 2 3
M  V30 3 1 3 4
M  V30 4 1 4 5
M  V30 5 2 5 6
M  V30 6 1 6 7
M  V30 7 1 7 8
M  V30 8 2 8 9
M  V30 9 1 9 10
M  V30 10 1 10 11
M  V30 11 1 11 12
M  V30 12 2 12 13
M  V30 13 1 12 14
M  V30 14 1 14 15
M  V30 15 1 15 16
M  V30 16 1 15 17
M  V30 17 2 17 18
M  V30 18 1 18 19
M  V30 19 2 19 20
M  V30 20 1 20 21
M  V30 21 1 20 22
M  V30 22 1 22 23
M  V30 23 2 22 24
M  V30 24 2 10 25
M  V30 25 1 25 26
M  V30 26 2 26 27
M  V30 27 2 4 28
M  V30 28 1 28 29
M  V30 29 2 29 30
M  V30 30 1 30 2
M  V30 31 1 27 5
M  V30 32 1 27 8
M  V30 33 1 24 17
M  V30 34 1 1 31
M  V30 35 1 1 32
M  V30 36 1 1 33
M  V30 37 1 3 34
M  V30 38 1 7 35
M  V30 39 1 9 36
M  V30 40 1 11 37
M  V30 41 1 14 38
M  V30 42 1 15 39 CFG=1
M  V30 43 1 16 40
M  V30 44 1 16 41
M  V30 45 1 16 42
M  V30 46 1 18 43
M  V30 47 1 19 44
M  V30 48 1 23 45
M  V30 49 1 23 46
M  V30 50 1 23 47
M  V30 51 1 24 48
M  V30 52 1 26 49
M  V30 53 1 28 50
M  V30 54 1 29 51
M  V30 END BOND
M  V30 END CTAB
M  END
>  <Dataset>  (961) 
ChEMBL_Kinases

>  <Ligand_Instance>  (961) 
nan

>  <PDB_ID>  (961) 
nan

>  <Standardized_SMILES>  (961) 
Cc1cc(-c2n[nH]c3cc(NC(=O)N[C@H](C)c4ccc(Cl)c(C)c4)ncc23)ccn1

>  <Name>  (961) 
nan

>  <Pocket>  (961) 
nan

>  <ATP_Site>  (961) 
nan

>  <Peripheral>  (961) 
nan

>  <Num_H_Atoms_ProtBoundConf>  (961) 
nan

>  <Num_Resolved_Atoms>  (961) 
nan

>  <Num_Not_Resolved_Atoms>  (961) 
nan

$$$$
CHEMBL3658717
     RDKit          3D

  0  0  0  0  0  0  0  0  0  0999 V3000
M  V30 BEGIN CTAB
M  V30 COUNTS 51 55 0 0 0
M  V30 BEGIN ATOM
M  V30 1 C -0.218892 -6.539486 -4.902912 0
M  V30 2 C 0.187163 -6.520057 -3.480541 0
M  V30 3 C 0.660806 -5.309586 -2.966816 0
M  V30 4 C 1.039230 -5.278104 -1.654203 0
M  V30 5 C 1.556773 -4.114864 -0.939152 0
M  V30 6 N 2.646902 -4.216222 -0.123426 0
M  V30 7 N 2.941255 -3.053878 0.418767 0
M  V30 8 C 2.058507 -2.139439 -0.016546 0
M  V30 9 C 1.832117 -0.791235 0.173188 0
M  V30 10 C 0.780632 -0.172307 -0.472586 0
M  V30 11 N 0.643774 1.219601 -0.201809 0
M  V30 12 C -0.135587 1.714971 0.856162 0
M  V30 13 O -0.752346 0.899792 1.614835 0
M  V30 14 N -0.335121 3.071877 1.207074 0
M  V30 15 C -1.199128 3.289762 2.358344 0
M  V30 16 C -0.521257 2.986202 3.657522 0
M  V30 17 C -0.981530 2.287655 4.770055 0
M  V30 18 C -0.152543 2.153001 5.837311 0
M  V30 19 N 1.097617 2.671829 5.855067 0
M  V30 20 C 1.568907 3.349462 4.798884 0
M  V30 21 C 0.771805 3.523078 3.675347 0
M  V30 22 C -2.588768 2.765921 2.223097 0
M  V30 23 C -3.077394 4.044556 2.873087 0
M  V30 24 C -1.781380 4.686764 2.418698 0
M  V30 25 N -0.043958 -0.871165 -1.299472 0
M  V30 26 C 0.129378 -2.189113 -1.522051 0
M  V30 27 C 1.183438 -2.783927 -0.867760 0
M  V30 28 C 0.924229 -6.463110 -0.919718 0
M  V30 29 C 0.457373 -7.653376 -1.428838 0
M  V30 30 N 0.097473 -7.630267 -2.728350 0
M  V30 31 H -0.339650 -7.571868 -5.285375 0
M  V30 32 H 0.477566 -5.957511 -5.547096 0
M  V30 33 H -1.202881 -6.038839 -5.012545 0
M  V30 34 H 0.750103 -4.395770 -3.531041 0
M  V30 35 H 3.693954 -2.777461 1.075735 0
M  V30 36 H 2.511337 -0.254603 0.843747 0
M  V30 37 H 1.096466 1.988476 -0.747555 0
M  V30 38 H 0.160622 3.788392 0.601258 0
M  V30 39 H -1.975815 1.937340 4.618471 0
M  V30 40 H -0.557706 1.603263 6.672959 0
M  V30 41 H 2.590252 3.753565 4.856975 0
M  V30 42 H 1.250171 4.082876 2.885554 0
M  V30 43 H -2.888736 2.769555 1.150171 0
M  V30 44 H -2.831800 1.831974 2.761314 0
M  V30 45 H -3.988451 4.475821 2.413039 0
M  V30 46 H -3.124700 3.945372 3.980281 0
M  V30 47 H -1.301753 5.339836 3.183090 0
M  V30 48 H -1.945896 5.154011 1.433355 0
M  V30 49 H -0.531500 -2.736458 -2.181315 0
M  V30 50 H 1.220207 -6.468428 0.135784 0
M  V30 51 H 0.396435 -8.534584 -0.795406 0
M  V30 END ATOM
M  V30 BEGIN BOND
M  V30 1 1 1 2
M  V30 2 2 2 3
M  V30 3 1 3 4
M  V30 4 1 4 5
M  V30 5 2 5 6
M  V30 6 1 6 7
M  V30 7 1 7 8
M  V30 8 2 8 9
M  V30 9 1 9 10
M  V30 10 1 10 11
M  V30 11 1 11 12
M  V30 12 2 12 13
M  V30 13 1 12 14
M  V30 14 1 14 15
M  V30 15 1 15 16
M  V30 16 2 16 17
M  V30 17 1 17 18
M  V30 18 2 18 19
M  V30 19 1 19 20
M  V30 20 2 20 21
M  V30 21 1 15 22
M  V30 22 1 22 23
M  V30 23 1 23 24
M  V30 24 2 10 25
M  V30 25 1 25 26
M  V30 26 2 26 27
M  V30 27 2 4 28
M  V30 28 1 28 29
M  V30 29 2 29 30
M  V30 30 1 30 2
M  V30 31 1 27 5
M  V30 32 1 27 8
M  V30 33 1 24 15
M  V30 34 1 21 16
M  V30 35 1 1 31
M  V30 36 1 1 32
M  V30 37 1 1 33
M  V30 38 1 3 34
M  V30 39 1 7 35
M  V30 40 1 9 36
M  V30 41 1 11 37
M  V30 42 1 14 38
M  V30 43 1 17 39
M  V30 44 1 18 40
M  V30 45 1 20 41
M  V30 46 1 21 42
M  V30 47 1 22 43
M  V30 48 1 22 44
M  V30 49 1 23 45
M  V30 50 1 23 46
M  V30 51 1 24 47
M  V30 52 1 24 48
M  V30 53 1 26 49
M  V30 54 1 28 50
M  V30 55 1 29 51
M  V30 END BOND
M  V30 END CTAB
M  END
>  <Dataset>  (962) 
ChEMBL_Kinases

>  <Ligand_Instance>  (962) 
nan

>  <PDB_ID>  (962) 
nan

>  <Standardized_SMILES>  (962) 
Cc1cc(-c2n[nH]c3cc(NC(=O)NC4(c5ccncc5)CCC4)ncc23)ccn1

>  <Name>  (962) 
nan

>  <Pocket>  (962) 
nan

>  <ATP_Site>  (962) 
nan

>  <Peripheral>  (962) 
nan

>  <Num_H_Atoms_ProtBoundConf>  (962) 
nan

>  <Num_Resolved_Atoms>  (962) 
nan

>  <Num_Not_Resolved_Atoms>  (962) 
nan

$$$$
CHEMBL3658709
     RDKit          3D

  0  0  0  0  0  0  0  0  0  0999 V3000
M  V30 BEGIN CTAB
M  V30 COUNTS 49 53 0 0 0
M  V30 BEGIN ATOM
M  V30 1 C -2.707483 -5.868436 -3.335872 0
M  V30 2 C -1.247603 -5.869722 -3.078743 0
M  V30 3 C -0.648404 -4.978391 -2.213489 0
M  V30 4 C 0.706546 -4.958677 -1.957006 0
M  V30 5 C 1.347441 -4.020134 -1.044166 0
M  V30 6 N 2.272975 -4.283837 -0.112928 0
M  V30 7 N 2.623716 -3.188769 0.525599 0
M  V30 8 C 1.913615 -2.148628 0.011373 0
M  V30 9 C 1.911300 -0.796620 0.332029 0
M  V30 10 C 1.072808 0.049898 -0.366409 0
M  V30 11 N 1.074107 1.435591 -0.033790 0
M  V30 12 C 0.202555 1.963736 0.951253 0
M  V30 13 O -0.575744 1.125658 1.515261 0
M  V30 14 N 0.093104 3.304259 1.382035 0
M  V30 15 C -0.918996 3.513722 2.428544 0
M  V30 16 C -0.475409 3.109459 3.783076 0
M  V30 17 C 0.804907 3.542074 4.092024 0
M  V30 18 C 1.386746 3.260575 5.308847 0
M  V30 19 C 0.701200 2.524235 6.279732 0
M  V30 20 F 1.259011 2.244897 7.467635 0
M  V30 21 C -0.584560 2.098288 5.950310 0
M  V30 22 C -1.150409 2.388068 4.730860 0
M  V30 23 C -2.301596 3.111225 1.951377 0
M  V30 24 C -1.969964 4.530818 2.247656 0
M  V30 25 N 0.280093 -0.473081 -1.342994 0
M  V30 26 C 0.294488 -1.784017 -1.640856 0
M  V30 27 C 1.108696 -2.676026 -0.979378 0
M  V30 28 C 1.492140 -5.902698 -2.622175 0
M  V30 29 C 0.834244 -6.757619 -3.466799 0
M  V30 30 N -0.484387 -6.789356 -3.727097 0
M  V30 31 H -2.859993 -5.443262 -4.350172 0
M  V30 32 H -3.201887 -5.200908 -2.605020 0
M  V30 33 H -3.123086 -6.895994 -3.275536 0
M  V30 34 H -1.275785 -4.248174 -1.702467 0
M  V30 35 H 3.321681 -3.048268 1.308982 0
M  V30 36 H 2.551570 -0.403090 1.113907 0
M  V30 37 H 1.683768 2.185174 -0.453167 0
M  V30 38 H 0.749320 3.975167 0.897933 0
M  V30 39 H 1.452594 4.117324 3.445872 0
M  V30 40 H 2.377279 3.571534 5.601288 0
M  V30 41 H -1.139548 1.534841 6.662784 0
M  V30 42 H -2.140053 2.079965 4.432856 0
M  V30 43 H -2.480146 2.896474 0.881936 0
M  V30 44 H -2.946652 2.522348 2.615539 0
M  V30 45 H -2.444926 4.943915 3.142212 0
M  V30 46 H -1.870610 5.244783 1.426746 0
M  V30 47 H -0.356989 -2.153397 -2.428993 0
M  V30 48 H 2.565609 -5.979183 -2.497435 0
M  V30 49 H 1.415617 -7.513189 -4.007574 0
M  V30 END ATOM
M  V30 BEGIN BOND
M  V30 1 1 1 2
M  V30 2 2 2 3
M  V30 3 1 3 4
M  V30 4 1 4 5
M  V30 5 2 5 6
M  V30 6 1 6 7
M  V30 7 1 7 8
M  V30 8 2 8 9
M  V30 9 1 9 10
M  V30 10 1 10 11
M  V30 11 1 11 12
M  V30 12 2 12 13
M  V30 13 1 12 14
M  V30 14 1 14 15
M  V30 15 1 15 16
M  V30 16 2 16 17
M  V30 17 1 17 18
M  V30 18 2 18 19
M  V30 19 1 19 20
M  V30 20 1 19 21
M  V30 21 2 21 22
M  V30 22 1 15 23
M  V30 23 1 23 24
M  V30 24 2 10 25
M  V30 25 1 25 26
M  V30 26 2 26 27
M  V30 27 2 4 28
M  V30 28 1 28 29
M  V30 29 2 29 30
M  V30 30 1 30 2
M  V30 31 1 27 5
M  V30 32 1 27 8
M  V30 33 1 24 15
M  V30 34 1 22 16
M  V30 35 1 1 31
M  V30 36 1 1 32
M  V30 37 1 1 33
M  V30 38 1 3 34
M  V30 39 1 7 35
M  V30 40 1 9 36
M  V30 41 1 11 37
M  V30 42 1 14 38
M  V30 43 1 17 39
M  V30 44 1 18 40
M  V30 45 1 21 41
M  V30 46 1 22 42
M  V30 47 1 23 43
M  V30 48 1 23 44
M  V30 49 1 24 45
M  V30 50 1 24 46
M  V30 51 1 26 47
M  V30 52 1 28 48
M  V30 53 1 29 49
M  V30 END BOND
M  V30 END CTAB
M  END
>  <Dataset>  (963) 
ChEMBL_Kinases

>  <Ligand_Instance>  (963) 
nan

>  <PDB_ID>  (963) 
nan

>  <Standardized_SMILES>  (963) 
Cc1cc(-c2n[nH]c3cc(NC(=O)NC4(c5ccc(F)cc5)CC4)ncc23)ccn1

>  <Name>  (963) 
nan

>  <Pocket>  (963) 
nan

>  <ATP_Site>  (963) 
nan

>  <Peripheral>  (963) 
nan

>  <Num_H_Atoms_ProtBoundConf>  (963) 
nan

>  <Num_Resolved_Atoms>  (963) 
nan

>  <Num_Not_Resolved_Atoms>  (963) 
nan

$$$$
CHEMBL3658710
     RDKit          3D

  0  0  0  0  0  0  0  0  0  0999 V3000
M  V30 BEGIN CTAB
M  V30 COUNTS 51 54 0 0 0
M  V30 BEGIN ATOM
M  V30 1 C 2.359204 -6.154416 -1.884833 0
M  V30 2 C 2.701930 -4.865194 -1.132267 0
M  V30 3 C 1.555154 -4.439564 -0.216708 0
M  V30 4 N 1.890275 -3.218033 0.490996 0
M  V30 5 C 1.128871 -2.023436 0.231203 0
M  V30 6 O 0.168745 -1.936217 -0.578207 0
M  V30 7 N 1.480469 -0.837882 0.940952 0
M  V30 8 C 0.800406 0.402659 0.767911 0
M  V30 9 C 1.276196 1.261386 -0.203033 0
M  V30 10 C 0.682177 2.484752 -0.442500 0
M  V30 11 N 0.893631 3.514179 -1.283704 0
M  V30 12 N -0.009043 4.456098 -1.067604 0
M  V30 13 C -0.849615 4.068003 -0.066218 0
M  V30 14 C -1.966924 4.864628 0.434782 0
M  V30 15 C -2.768145 5.455945 -0.536945 0
M  V30 16 C -3.825139 6.209731 -0.071590 0
M  V30 17 N -4.129447 6.409252 1.225285 0
M  V30 18 C -3.349112 5.833543 2.159270 0
M  V30 19 C -3.519235 5.933550 3.652782 0
M  V30 20 C -2.253848 5.050869 1.782600 0
M  V30 21 C -0.426830 2.817097 0.344664 0
M  V30 22 C -0.896644 1.956898 1.311166 0
M  V30 23 N -0.282693 0.756317 1.518294 0
M  V30 24 C 1.208790 -5.498254 0.732334 0
M  V30 25 C 0.126824 -6.359306 0.622539 0
M  V30 26 C -0.129083 -7.327874 1.558238 0
M  V30 27 C 0.709238 -7.459126 2.647076 0
M  V30 28 Cl 0.372870 -8.706830 3.845125 0
M  V30 29 C 1.792444 -6.608928 2.771873 0
M  V30 30 C 2.048148 -5.638428 1.833530 0
M  V30 31 H 3.286540 -6.764991 -2.021921 0
M  V30 32 H 1.942269 -5.929662 -2.897095 0
M  V30 33 H 1.579008 -6.746301 -1.358365 0
M  V30 34 H 2.867905 -4.116074 -1.931036 0
M  V30 35 H 3.624010 -5.050557 -0.551626 0
M  V30 36 H 0.697715 -4.189110 -0.881457 0
M  V30 37 H 2.674282 -3.197098 1.183315 0
M  V30 38 H 2.250543 -0.781106 1.633154 0
M  V30 39 H 2.130981 0.976504 -0.791578 0
M  V30 40 H 1.685015 3.482615 -1.975455 0
M  V30 41 H -2.631815 5.373900 -1.605590 0
M  V30 42 H -4.492696 6.700660 -0.765959 0
M  V30 43 H -2.763543 6.632792 4.061252 0
M  V30 44 H -3.369840 4.934522 4.073062 0
M  V30 45 H -4.522255 6.348416 3.866005 0
M  V30 46 H -1.590922 4.562747 2.511064 0
M  V30 47 H -1.757087 2.237005 1.907824 0
M  V30 48 H -0.484565 -6.204719 -0.245584 0
M  V30 49 H -0.989555 -7.969797 1.417029 0
M  V30 50 H 2.410614 -6.776447 3.663670 0
M  V30 51 H 2.911486 -5.051427 2.046939 0
M  V30 END ATOM
M  V30 BEGIN BOND
M  V30 1 1 1 2
M  V30 2 1 2 3
M  V30 3 1 3 4
M  V30 4 1 4 5
M  V30 5 2 5 6
M  V30 6 1 5 7
M  V30 7 1 7 8
M  V30 8 2 8 9
M  V30 9 1 9 10
M  V30 10 1 10 11
M  V30 11 1 11 12
M  V30 12 2 12 13
M  V30 13 1 13 14
M  V30 14 2 14 15
M  V30 15 1 15 16
M  V30 16 2 16 17
M  V30 17 1 17 18
M  V30 18 1 18 19
M  V30 19 2 18 20
M  V30 20 1 13 21
M  V30 21 1 21 22
M  V30 22 2 22 23
M  V30 23 1 3 24
M  V30 24 2 24 25
M  V30 25 1 25 26
M  V30 26 2 26 27
M  V30 27 1 27 28
M  V30 28 1 27 29
M  V30 29 2 29 30
M  V30 30 1 23 8
M  V30 31 1 30 24
M  V30 32 2 21 10
M  V30 33 1 20 14
M  V30 34 1 1 31
M  V30 35 1 1 32
M  V30 36 1 1 33
M  V30 37 1 2 34
M  V30 38 1 2 35
M  V30 39 1 3 36
M  V30 40 1 4 37
M  V30 41 1 7 38
M  V30 42 1 9 39
M  V30 43 1 11 40
M  V30 44 1 15 41
M  V30 45 1 16 42
M  V30 46 1 19 43
M  V30 47 1 19 44
M  V30 48 1 19 45
M  V30 49 1 20 46
M  V30 50 1 22 47
M  V30 51 1 25 48
M  V30 52 1 26 49
M  V30 53 1 29 50
M  V30 54 1 30 51
M  V30 END BOND
M  V30 END CTAB
M  END
>  <Dataset>  (964) 
ChEMBL_Kinases

>  <Ligand_Instance>  (964) 
nan

>  <PDB_ID>  (964) 
nan

>  <Standardized_SMILES>  (964) 
CCC(NC(=O)Nc1cc2[nH]nc(-c3ccnc(C)c3)c2cn1)c1ccc(Cl)cc1

>  <Name>  (964) 
nan

>  <Pocket>  (964) 
nan

>  <ATP_Site>  (964) 
nan

>  <Peripheral>  (964) 
nan

>  <Num_H_Atoms_ProtBoundConf>  (964) 
nan

>  <Num_Resolved_Atoms>  (964) 
nan

>  <Num_Not_Resolved_Atoms>  (964) 
nan

$$$$
CHEMBL3658711
     RDKit          3D

  0  0  0  0  0  0  0  0  0  0999 V3000
M  V30 BEGIN CTAB
M  V30 COUNTS 49 52 0 0 0
M  V30 BEGIN ATOM
M  V30 1 C -1.898540 -7.981595 -2.777960 0
M  V30 2 C -0.673076 -7.175487 -2.589292 0
M  V30 3 C -0.503911 -6.263009 -1.570385 0
M  V30 4 C 0.655381 -5.504619 -1.392528 0
M  V30 5 C 0.589498 -4.610168 -0.243273 0
M  V30 6 N 0.113374 -4.993247 0.961798 0
M  V30 7 N 0.167940 -3.985424 1.813575 0
M  V30 8 C 0.677479 -2.885266 1.233052 0
M  V30 9 C 0.976982 -1.571027 1.580016 0
M  V30 10 C 1.525862 -0.715621 0.619604 0
M  V30 11 N 1.743501 0.578961 1.177507 0
M  V30 12 C 0.688713 1.545885 1.058666 0
M  V30 13 O -0.354897 1.193725 0.456341 0
M  V30 14 N 0.906665 2.829215 1.633217 0
M  V30 15 C -0.233505 3.742415 1.449392 0 CFG=2
M  V30 16 C 0.337257 5.015911 0.872737 0
M  V30 17 O 0.954221 4.731405 -0.344745 0
M  V30 18 C -0.841867 4.112495 2.773422 0
M  V30 19 C -2.240344 4.104236 2.845211 0
M  V30 20 C -2.909604 4.426082 4.029446 0
M  V30 21 C -2.147433 4.753097 5.129091 0
M  V30 22 F -2.824144 5.062672 6.270189 0
M  V30 23 C -0.752476 4.767243 5.077987 0
M  V30 24 C -0.096298 4.442361 3.884415 0
M  V30 25 N 1.763450 -1.156301 -0.629673 0
M  V30 26 C 1.490782 -2.418729 -1.013427 0
M  V30 27 C 0.949257 -3.281745 -0.085094 0
M  V30 28 C 1.686731 -5.681306 -2.288644 0
M  V30 29 C 1.481897 -6.602213 -3.294511 0
M  V30 30 N 0.369661 -7.323806 -3.457741 0
M  V30 31 H -2.487573 -7.615807 -3.663976 0
M  V30 32 H -1.707035 -9.049593 -3.000134 0
M  V30 33 H -2.553877 -7.964572 -1.897375 0
M  V30 34 H -1.380258 -6.198797 -0.914993 0
M  V30 35 H -0.129836 -3.966956 2.833934 0
M  V30 36 H 0.743039 -1.333791 2.608087 0
M  V30 37 H 2.667213 0.774837 1.664391 0
M  V30 38 H 1.767762 3.113218 2.131131 0
M  V30 39 H -1.003682 3.266679 0.818619 0
M  V30 40 H 1.166693 5.335270 1.554991 0
M  V30 41 H -0.396091 5.841643 0.822705 0
M  V30 42 H 1.727229 5.331001 -0.489125 0
M  V30 43 H -2.809251 3.836596 1.940103 0
M  V30 44 H -3.992547 4.396031 4.000311 0
M  V30 45 H -0.173208 5.031237 5.966605 0
M  V30 46 H 0.986286 4.441540 3.805076 0
M  V30 47 H 1.701824 -2.716145 -2.030320 0
M  V30 48 H 2.547163 -5.070899 -2.098577 0
M  V30 49 H 2.316494 -6.715082 -3.984246 0
M  V30 END ATOM
M  V30 BEGIN BOND
M  V30 1 1 1 2
M  V30 2 2 2 3
M  V30 3 1 3 4
M  V30 4 1 4 5
M  V30 5 2 5 6
M  V30 6 1 6 7
M  V30 7 1 7 8
M  V30 8 2 8 9
M  V30 9 1 9 10
M  V30 10 1 10 11
M  V30 11 1 11 12
M  V30 12 2 12 13
M  V30 13 1 12 14
M  V30 14 1 14 15
M  V30 15 1 15 16
M  V30 16 1 16 17
M  V30 17 1 15 18
M  V30 18 2 18 19
M  V30 19 1 19 20
M  V30 20 2 20 21
M  V30 21 1 21 22
M  V30 22 1 21 23
M  V30 23 2 23 24
M  V30 24 2 10 25
M  V30 25 1 25 26
M  V30 26 2 26 27
M  V30 27 2 4 28
M  V30 28 1 28 29
M  V30 29 2 29 30
M  V30 30 1 30 2
M  V30 31 1 27 5
M  V30 32 1 27 8
M  V30 33 1 24 18
M  V30 34 1 1 31
M  V30 35 1 1 32
M  V30 36 1 1 33
M  V30 37 1 3 34
M  V30 38 1 7 35
M  V30 39 1 9 36
M  V30 40 1 11 37
M  V30 41 1 14 38
M  V30 42 1 15 39 CFG=3
M  V30 43 1 16 40
M  V30 44 1 16 41
M  V30 45 1 17 42
M  V30 46 1 19 43
M  V30 47 1 20 44
M  V30 48 1 23 45
M  V30 49 1 24 46
M  V30 50 1 26 47
M  V30 51 1 28 48
M  V30 52 1 29 49
M  V30 END BOND
M  V30 END CTAB
M  END
>  <Dataset>  (965) 
ChEMBL_Kinases

>  <Ligand_Instance>  (965) 
nan

>  <PDB_ID>  (965) 
nan

>  <Standardized_SMILES>  (965) 
Cc1cc(-c2n[nH]c3cc(NC(=O)N[C@H](CO)c4ccc(F)cc4)ncc23)ccn1

>  <Name>  (965) 
nan

>  <Pocket>  (965) 
nan

>  <ATP_Site>  (965) 
nan

>  <Peripheral>  (965) 
nan

>  <Num_H_Atoms_ProtBoundConf>  (965) 
nan

>  <Num_Resolved_Atoms>  (965) 
nan

>  <Num_Not_Resolved_Atoms>  (965) 
nan

$$$$
CHEMBL3658712
     RDKit          3D

  0  0  0  0  0  0  0  0  0  0999 V3000
M  V30 BEGIN CTAB
M  V30 COUNTS 50 53 0 0 0
M  V30 BEGIN ATOM
M  V30 1 C -1.286142 -6.241476 1.673005 0
M  V30 2 C -0.759548 -5.347973 2.783774 0
M  V30 3 C 0.462859 -4.579896 2.345357 0
M  V30 4 N 0.244101 -3.721365 1.223111 0
M  V30 5 C 0.327317 -2.321526 1.369984 0
M  V30 6 O 0.572365 -1.626570 2.358779 0
M  V30 7 N 0.095649 -1.547814 0.202881 0
M  V30 8 C 0.104567 -0.134087 0.013418 0
M  V30 9 C 1.300443 0.463013 -0.336749 0
M  V30 10 C 1.225635 1.832179 -0.501786 0
M  V30 11 N 2.204479 2.710479 -0.840243 0
M  V30 12 N 1.714659 3.944300 -0.893335 0
M  V30 13 C 0.383970 3.928954 -0.589930 0
M  V30 14 C -0.523146 5.070904 -0.536547 0
M  V30 15 C -0.175264 6.270564 0.088609 0
M  V30 16 C -1.073144 7.324409 0.111115 0
M  V30 17 N -2.303420 7.242657 -0.459501 0
M  V30 18 C -2.665529 6.099180 -1.068744 0
M  V30 19 C -4.020219 6.017247 -1.694032 0
M  V30 20 C -1.787461 5.034213 -1.104301 0
M  V30 21 C 0.082335 2.604985 -0.345592 0
M  V30 22 C -1.064617 1.939853 0.002549 0
M  V30 23 N -1.037794 0.591777 0.175649 0
M  V30 24 C 1.654953 -5.458991 2.223716 0
M  V30 25 C 1.958595 -6.160316 1.074778 0
M  V30 26 C 3.055309 -6.985110 0.926348 0
M  V30 27 C 3.909567 -7.113792 2.014068 0
M  V30 28 C 3.609046 -6.408616 3.177054 0
M  V30 29 N 2.533987 -5.630849 3.250576 0
M  V30 30 H -0.848734 -7.279563 1.721457 0
M  V30 31 H -1.033483 -5.866144 0.659873 0
M  V30 32 H -2.380991 -6.416772 1.782467 0
M  V30 33 H -0.514614 -6.054155 3.606024 0
M  V30 34 H -1.551519 -4.714354 3.188558 0
M  V30 35 H 0.683141 -3.902110 3.225309 0
M  V30 36 H 0.022517 -4.159506 0.298339 0
M  V30 37 H -0.133217 -1.919138 -0.765671 0
M  V30 38 H 2.234264 -0.039754 -0.481431 0
M  V30 39 H 3.218586 2.502178 -1.042240 0
M  V30 40 H 0.806535 6.323055 0.538989 0
M  V30 41 H -0.812360 8.243622 0.587625 0
M  V30 42 H -4.313967 4.983342 -1.918100 0
M  V30 43 H -4.746804 6.420221 -0.962231 0
M  V30 44 H -4.026477 6.688618 -2.597327 0
M  V30 45 H -2.135042 4.160542 -1.600772 0
M  V30 46 H -1.985732 2.499680 0.136716 0
M  V30 47 H 1.313315 -6.081630 0.209475 0
M  V30 48 H 3.271006 -7.524562 0.013573 0
M  V30 49 H 4.779429 -7.750250 1.937816 0
M  V30 50 H 4.312120 -6.551090 3.986805 0
M  V30 END ATOM
M  V30 BEGIN BOND
M  V30 1 1 1 2
M  V30 2 1 2 3
M  V30 3 1 3 4
M  V30 4 1 4 5
M  V30 5 2 5 6
M  V30 6 1 5 7
M  V30 7 1 7 8
M  V30 8 2 8 9
M  V30 9 1 9 10
M  V30 10 1 10 11
M  V30 11 1 11 12
M  V30 12 2 12 13
M  V30 13 1 13 14
M  V30 14 2 14 15
M  V30 15 1 15 16
M  V30 16 2 16 17
M  V30 17 1 17 18
M  V30 18 1 18 19
M  V30 19 2 18 20
M  V30 20 1 13 21
M  V30 21 1 21 22
M  V30 22 2 22 23
M  V30 23 1 3 24
M  V30 24 2 24 25
M  V30 25 1 25 26
M  V30 26 2 26 27
M  V30 27 1 27 28
M  V30 28 2 28 29
M  V30 29 1 23 8
M  V30 30 1 29 24
M  V30 31 2 21 10
M  V30 32 1 20 14
M  V30 33 1 1 30
M  V30 34 1 1 31
M  V30 35 1 1 32
M  V30 36 1 2 33
M  V30 37 1 2 34
M  V30 38 1 3 35
M  V30 39 1 4 36
M  V30 40 1 7 37
M  V30 41 1 9 38
M  V30 42 1 11 39
M  V30 43 1 15 40
M  V30 44 1 16 41
M  V30 45 1 19 42
M  V30 46 1 19 43
M  V30 47 1 19 44
M  V30 48 1 20 45
M  V30 49 1 22 46
M  V30 50 1 25 47
M  V30 51 1 26 48
M  V30 52 1 27 49
M  V30 53 1 28 50
M  V30 END BOND
M  V30 END CTAB
M  END
>  <Dataset>  (966) 
ChEMBL_Kinases

>  <Ligand_Instance>  (966) 
nan

>  <PDB_ID>  (966) 
nan

>  <Standardized_SMILES>  (966) 
CCC(NC(=O)Nc1cc2[nH]nc(-c3ccnc(C)c3)c2cn1)c1ccccn1

>  <Name>  (966) 
nan

>  <Pocket>  (966) 
nan

>  <ATP_Site>  (966) 
nan

>  <Peripheral>  (966) 
nan

>  <Num_H_Atoms_ProtBoundConf>  (966) 
nan

>  <Num_Resolved_Atoms>  (966) 
nan

>  <Num_Not_Resolved_Atoms>  (966) 
nan

$$$$
CHEMBL3658713
     RDKit          3D

  0  0  0  0  0  0  0  0  0  0999 V3000
M  V30 BEGIN CTAB
M  V30 COUNTS 51 54 0 0 0
M  V30 BEGIN ATOM
M  V30 1 C -0.521732 -6.806669 -3.449433 0
M  V30 2 O -0.156925 -6.234641 -2.237761 0
M  V30 3 C 0.338857 -4.935065 -2.400332 0
M  V30 4 C 0.697775 -4.425293 -1.024013 0
M  V30 5 N 1.225741 -3.084014 -1.049125 0
M  V30 6 C 0.495220 -2.075747 -0.328066 0
M  V30 7 O -0.566607 -2.284732 0.318751 0
M  V30 8 N 1.043240 -0.745385 -0.368952 0
M  V30 9 C 0.413246 0.341880 0.305087 0
M  V30 10 C -0.531357 1.084656 -0.375672 0
M  V30 11 C -1.211458 2.159710 0.163818 0
M  V30 12 N -2.148250 3.021891 -0.272045 0
M  V30 13 N -2.432538 3.871975 0.717112 0
M  V30 14 C -1.679811 3.563201 1.799153 0
M  V30 15 C -1.718653 4.277051 3.073419 0
M  V30 16 C -1.757954 3.716953 4.335005 0
M  V30 17 C -1.791517 4.539837 5.439941 0
M  V30 18 N -1.788808 5.876721 5.380456 0
M  V30 19 C -1.750309 6.456499 4.145284 0
M  V30 20 C -1.746376 7.949171 4.048813 0
M  V30 21 C -1.716211 5.661129 3.023600 0
M  V30 22 C -0.889695 2.476399 1.481426 0
M  V30 23 C 0.054996 1.740384 2.175268 0
M  V30 24 N 0.685407 0.701197 1.593861 0
M  V30 25 C 1.643995 -5.367094 -0.431028 0
M  V30 26 C 2.946103 -5.256987 -0.848228 0
M  V30 27 C 3.960803 -6.073046 -0.382402 0
M  V30 28 C 3.699308 -7.058217 0.545990 0
M  V30 29 C 2.363491 -7.145698 0.951647 0
M  V30 30 N 1.377405 -6.340562 0.488356 0
M  V30 31 H -0.893908 -7.821089 -3.192653 0
M  V30 32 H 0.356138 -6.939928 -4.110116 0
M  V30 33 H -1.348928 -6.280662 -3.966661 0
M  V30 34 H -0.540171 -4.369673 -2.824782 0
M  V30 35 H 1.225951 -4.869450 -3.033315 0
M  V30 36 H -0.224034 -4.413347 -0.416115 0
M  V30 37 H 2.104023 -2.823979 -1.563241 0
M  V30 38 H 1.898093 -0.440205 -0.856878 0
M  V30 39 H -0.773115 0.834202 -1.389497 0
M  V30 40 H -2.547410 2.983148 -1.231720 0
M  V30 41 H -1.759554 2.635253 4.363938 0
M  V30 42 H -1.820507 3.959161 6.366939 0
M  V30 43 H -1.119036 8.342371 4.848539 0
M  V30 44 H -2.791050 8.299470 4.220708 0
M  V30 45 H -1.399058 8.191873 3.022718 0
M  V30 46 H -1.686239 6.163379 2.063149 0
M  V30 47 H 0.288681 2.005431 3.198999 0
M  V30 48 H 3.272141 -4.525081 -1.570401 0
M  V30 49 H 4.985229 -5.992194 -0.705570 0
M  V30 50 H 4.390045 -7.759163 0.990629 0
M  V30 51 H 2.093027 -7.911725 1.690060 0
M  V30 END ATOM
M  V30 BEGIN BOND
M  V30 1 1 1 2
M  V30 2 1 2 3
M  V30 3 1 3 4
M  V30 4 1 4 5
M  V30 5 1 5 6
M  V30 6 2 6 7
M  V30 7 1 6 8
M  V30 8 1 8 9
M  V30 9 2 9 10
M  V30 10 1 10 11
M  V30 11 1 11 12
M  V30 12 1 12 13
M  V30 13 2 13 14
M  V30 14 1 14 15
M  V30 15 2 15 16
M  V30 16 1 16 17
M  V30 17 2 17 18
M  V30 18 1 18 19
M  V30 19 1 19 20
M  V30 20 2 19 21
M  V30 21 1 14 22
M  V30 22 1 22 23
M  V30 23 2 23 24
M  V30 24 1 4 25
M  V30 25 2 25 26
M  V30 26 1 26 27
M  V30 27 2 27 28
M  V30 28 1 28 29
M  V30 29 2 29 30
M  V30 30 1 24 9
M  V30 31 1 30 25
M  V30 32 2 22 11
M  V30 33 1 21 15
M  V30 34 1 1 31
M  V30 35 1 1 32
M  V30 36 1 1 33
M  V30 37 1 3 34
M  V30 38 1 3 35
M  V30 39 1 4 36
M  V30 40 1 5 37
M  V30 41 1 8 38
M  V30 42 1 10 39
M  V30 43 1 12 40
M  V30 44 1 16 41
M  V30 45 1 17 42
M  V30 46 1 20 43
M  V30 47 1 20 44
M  V30 48 1 20 45
M  V30 49 1 21 46
M  V30 50 1 23 47
M  V30 51 1 26 48
M  V30 52 1 27 49
M  V30 53 1 28 50
M  V30 54 1 29 51
M  V30 END BOND
M  V30 END CTAB
M  END
>  <Dataset>  (967) 
ChEMBL_Kinases

>  <Ligand_Instance>  (967) 
nan

>  <PDB_ID>  (967) 
nan

>  <Standardized_SMILES>  (967) 
COCC(NC(=O)Nc1cc2[nH]nc(-c3ccnc(C)c3)c2cn1)c1ccccn1

>  <Name>  (967) 
nan

>  <Pocket>  (967) 
nan

>  <ATP_Site>  (967) 
nan

>  <Peripheral>  (967) 
nan

>  <Num_H_Atoms_ProtBoundConf>  (967) 
nan

>  <Num_Resolved_Atoms>  (967) 
nan

>  <Num_Not_Resolved_Atoms>  (967) 
nan

$$$$
CHEMBL3658714
     RDKit          3D

  0  0  0  0  0  0  0  0  0  0999 V3000
M  V30 BEGIN CTAB
M  V30 COUNTS 50 53 0 0 0
M  V30 BEGIN ATOM
M  V30 1 C 0.744309 -7.980690 -1.108307 0
M  V30 2 C 1.320531 -7.015848 -2.079137 0
M  V30 3 C 1.815508 -5.815267 -1.608755 0
M  V30 4 C 2.376858 -4.842874 -2.440605 0
M  V30 5 C 2.897758 -3.579893 -1.947241 0
M  V30 6 N 4.048794 -2.975206 -2.272290 0
M  V30 7 N 4.188256 -1.825929 -1.615088 0
M  V30 8 C 3.098904 -1.673960 -0.838595 0
M  V30 9 C 2.771297 -0.649514 0.028537 0
M  V30 10 C 1.582501 -0.709273 0.729860 0
M  V30 11 N 1.069909 0.239621 1.663255 0
M  V30 12 C 0.247406 1.315380 1.272589 0
M  V30 13 O -0.072471 1.489855 0.089897 0
M  V30 14 N -0.149423 2.136620 2.361384 0
M  V30 15 C -0.988221 3.303326 2.257238 0
M  V30 16 C -0.178729 4.500800 2.709187 0
M  V30 17 C -2.193859 3.245270 3.103249 0
M  V30 18 N -2.120323 2.520334 4.261350 0
M  V30 19 C -3.201087 2.442868 5.061929 0
M  V30 20 C -4.404700 3.060111 4.785261 0
M  V30 21 C -4.435841 3.783459 3.603437 0
M  V30 22 C -3.354699 3.903268 2.732310 0
M  V30 23 C -3.447809 4.687412 1.488046 0
M  V30 24 N 0.784167 -1.780581 0.533273 0
M  V30 25 C 1.097804 -2.786974 -0.313476 0
M  V30 26 C 2.271397 -2.762213 -1.027990 0
M  V30 27 C 2.438708 -5.101152 -3.814221 0
M  V30 28 C 1.930640 -6.314357 -4.229941 0
M  V30 29 N 1.388354 -7.251705 -3.419242 0
M  V30 30 H 1.602253 -8.533708 -0.652636 0
M  V30 31 H 0.234128 -7.489781 -0.275454 0
M  V30 32 H 0.091228 -8.733471 -1.579549 0
M  V30 33 H 1.762307 -5.626584 -0.544587 0
M  V30 34 H 4.993647 -1.164005 -1.687922 0
M  V30 35 H 3.365621 0.229701 0.227761 0
M  V30 36 H 1.421084 -0.036328 2.604951 0
M  V30 37 H 0.119873 1.990234 3.359201 0
M  V30 38 H -1.248243 3.424212 1.207746 0
M  V30 39 H -0.125572 5.300132 1.947364 0
M  V30 40 H -0.539825 4.887490 3.706697 0
M  V30 41 H 0.894969 4.241550 2.917527 0
M  V30 42 H -3.194619 1.873309 6.003714 0
M  V30 43 H -5.275259 3.001418 5.423985 0
M  V30 44 H -5.361944 4.293664 3.331980 0
M  V30 45 H -4.542824 4.900696 1.312902 0
M  V30 46 H -2.995049 5.711465 1.565096 0
M  V30 47 H -3.028322 4.217686 0.600059 0
M  V30 48 H 0.433683 -3.630388 -0.446083 0
M  V30 49 H 2.850095 -4.421808 -4.540585 0
M  V30 50 H 1.918354 -6.639811 -5.278815 0
M  V30 END ATOM
M  V30 BEGIN BOND
M  V30 1 1 1 2
M  V30 2 2 2 3
M  V30 3 1 3 4
M  V30 4 1 4 5
M  V30 5 2 5 6
M  V30 6 1 6 7
M  V30 7 1 7 8
M  V30 8 2 8 9
M  V30 9 1 9 10
M  V30 10 1 10 11
M  V30 11 1 11 12
M  V30 12 2 12 13
M  V30 13 1 12 14
M  V30 14 1 14 15
M  V30 15 1 15 16
M  V30 16 1 15 17
M  V30 17 2 17 18
M  V30 18 1 18 19
M  V30 19 2 19 20
M  V30 20 1 20 21
M  V30 21 2 21 22
M  V30 22 1 22 23
M  V30 23 2 10 24
M  V30 24 1 24 25
M  V30 25 2 25 26
M  V30 26 2 4 27
M  V30 27 1 27 28
M  V30 28 2 28 29
M  V30 29 1 29 2
M  V30 30 1 26 5
M  V30 31 1 26 8
M  V30 32 1 22 17
M  V30 33 1 1 30
M  V30 34 1 1 31
M  V30 35 1 1 32
M  V30 36 1 3 33
M  V30 37 1 7 34
M  V30 38 1 9 35
M  V30 39 1 11 36
M  V30 40 1 14 37
M  V30 41 1 15 38
M  V30 42 1 16 39
M  V30 43 1 16 40
M  V30 44 1 16 41
M  V30 45 1 19 42
M  V30 46 1 20 43
M  V30 47 1 21 44
M  V30 48 1 23 45
M  V30 49 1 23 46
M  V30 50 1 23 47
M  V30 51 1 25 48
M  V30 52 1 27 49
M  V30 53 1 28 50
M  V30 END BOND
M  V30 END CTAB
M  END
>  <Dataset>  (968) 
ChEMBL_Kinases

>  <Ligand_Instance>  (968) 
nan

>  <PDB_ID>  (968) 
nan

>  <Standardized_SMILES>  (968) 
Cc1cc(-c2n[nH]c3cc(NC(=O)NC(C)c4ncccc4C)ncc23)ccn1

>  <Name>  (968) 
nan

>  <Pocket>  (968) 
nan

>  <ATP_Site>  (968) 
nan

>  <Peripheral>  (968) 
nan

>  <Num_H_Atoms_ProtBoundConf>  (968) 
nan

>  <Num_Resolved_Atoms>  (968) 
nan

>  <Num_Not_Resolved_Atoms>  (968) 
nan

$$$$
CHEMBL3658715
     RDKit          3D

  0  0  0  0  0  0  0  0  0  0999 V3000
M  V30 BEGIN CTAB
M  V30 COUNTS 49 53 0 0 0
M  V30 BEGIN ATOM
M  V30 1 C -2.476988 -6.547274 -1.233921 0
M  V30 2 C -1.011013 -6.442134 -1.524106 0
M  V30 3 C -0.297814 -5.356440 -1.025385 0
M  V30 4 C 1.064440 -5.177371 -1.244716 0
M  V30 5 C 1.795130 -4.037444 -0.716700 0
M  V30 6 N 3.001162 -4.027494 -0.099217 0
M  V30 7 N 3.320126 -2.776981 0.233466 0
M  V30 8 C 2.340328 -1.947560 -0.154513 0
M  V30 9 C 2.231347 -0.588745 -0.025765 0
M  V30 10 C 1.107321 0.046956 -0.513726 0
M  V30 11 N 0.781475 1.441293 -0.490949 0
M  V30 12 C 0.062542 1.981328 0.612751 0
M  V30 13 O -0.311421 1.283885 1.593209 0
M  V30 14 N -0.233307 3.371801 0.581711 0
M  V30 15 C -0.972574 4.003807 1.684777 0
M  V30 16 C -0.829897 3.263777 2.966469 0
M  V30 17 C -1.798775 2.605373 3.698831 0
M  V30 18 C -1.439829 1.979151 4.872093 0
M  V30 19 C -0.152537 1.977193 5.354584 0
M  V30 20 C 0.821982 2.636688 4.622512 0
M  V30 21 C 0.471877 3.268623 3.443057 0
M  V30 22 C -1.282704 5.440165 1.661007 0
M  V30 23 C -2.388250 4.446699 1.371699 0
M  V30 24 N 0.135571 -0.700886 -1.111675 0
M  V30 25 C 0.280724 -2.053677 -1.221128 0
M  V30 26 C 1.375521 -2.728339 -0.753385 0
M  V30 27 C 1.725530 -6.147828 -2.005164 0
M  V30 28 C 0.984554 -7.211659 -2.483631 0
M  V30 29 N -0.338757 -7.362742 -2.256427 0
M  V30 30 H -2.669537 -6.046888 -0.243412 0
M  V30 31 H -3.035601 -5.994574 -2.025037 0
M  V30 32 H -2.772829 -7.609937 -1.222918 0
M  V30 33 H -0.853862 -4.633934 -0.443737 0
M  V30 34 H 4.208304 -2.505248 0.724087 0
M  V30 35 H 2.931116 0.071112 0.421294 0
M  V30 36 H 1.090004 2.021206 -1.301723 0
M  V30 37 H 0.081345 3.953605 -0.241162 0
M  V30 38 H -2.775317 2.653631 3.255171 0
M  V30 39 H -2.267197 1.483149 5.387507 0
M  V30 40 H 0.059992 1.463120 6.287145 0
M  V30 41 H 1.819418 2.623295 5.016080 0
M  V30 42 H 1.321779 3.752349 2.956413 0
M  V30 43 H -1.399411 5.962882 2.613021 0
M  V30 44 H -0.888972 6.039013 0.815372 0
M  V30 45 H -3.185787 4.285440 2.095134 0
M  V30 46 H -2.735752 4.445593 0.322031 0
M  V30 47 H -0.507482 -2.618971 -1.700553 0
M  V30 48 H 2.792973 -6.082412 -2.223354 0
M  V30 49 H 1.413955 -8.010050 -3.081523 0
M  V30 END ATOM
M  V30 BEGIN BOND
M  V30 1 1 1 2
M  V30 2 2 2 3
M  V30 3 1 3 4
M  V30 4 1 4 5
M  V30 5 2 5 6
M  V30 6 1 6 7
M  V30 7 1 7 8
M  V30 8 2 8 9
M  V30 9 1 9 10
M  V30 10 1 10 11
M  V30 11 1 11 12
M  V30 12 2 12 13
M  V30 13 1 12 14
M  V30 14 1 14 15
M  V30 15 1 15 16
M  V30 16 2 16 17
M  V30 17 1 17 18
M  V30 18 2 18 19
M  V30 19 1 19 20
M  V30 20 2 20 21
M  V30 21 1 15 22
M  V30 22 1 22 23
M  V30 23 2 10 24
M  V30 24 1 24 25
M  V30 25 2 25 26
M  V30 26 2 4 27
M  V30 27 1 27 28
M  V30 28 2 28 29
M  V30 29 1 29 2
M  V30 30 1 26 5
M  V30 31 1 26 8
M  V30 32 1 23 15
M  V30 33 1 21 16
M  V30 34 1 1 30
M  V30 35 1 1 31
M  V30 36 1 1 32
M  V30 37 1 3 33
M  V30 38 1 7 34
M  V30 39 1 9 35
M  V30 40 1 11 36
M  V30 41 1 14 37
M  V30 42 1 17 38
M  V30 43 1 18 39
M  V30 44 1 19 40
M  V30 45 1 20 41
M  V30 46 1 21 42
M  V30 47 1 22 43
M  V30 48 1 22 44
M  V30 49 1 23 45
M  V30 50 1 23 46
M  V30 51 1 25 47
M  V30 52 1 27 48
M  V30 53 1 28 49
M  V30 END BOND
M  V30 END CTAB
M  END
>  <Dataset>  (969) 
ChEMBL_Kinases

>  <Ligand_Instance>  (969) 
nan

>  <PDB_ID>  (969) 
nan

>  <Standardized_SMILES>  (969) 
Cc1cc(-c2n[nH]c3cc(NC(=O)NC4(c5ccccc5)CC4)ncc23)ccn1

>  <Name>  (969) 
nan

>  <Pocket>  (969) 
nan

>  <ATP_Site>  (969) 
nan

>  <Peripheral>  (969) 
nan

>  <Num_H_Atoms_ProtBoundConf>  (969) 
nan

>  <Num_Resolved_Atoms>  (969) 
nan

>  <Num_Not_Resolved_Atoms>  (969) 
nan

$$$$
CHEMBL3658716
     RDKit          3D

  0  0  0  0  0  0  0  0  0  0999 V3000
M  V30 BEGIN CTAB
M  V30 COUNTS 48 52 0 0 0
M  V30 BEGIN ATOM
M  V30 1 C -3.401233 -6.256615 -0.613506 0
M  V30 2 C -1.926166 -6.466200 -0.799082 0
M  V30 3 C -1.086412 -5.449618 -0.400284 0
M  V30 4 C 0.300766 -5.531077 -0.523432 0
M  V30 5 C 1.211942 -4.469251 -0.109038 0
M  V30 6 N 2.377281 -4.548872 0.597676 0
M  V30 7 N 2.898885 -3.342993 0.761356 0
M  V30 8 C 2.118017 -2.439968 0.183336 0
M  V30 9 C 2.259203 -1.084645 0.101127 0
M  V30 10 C 1.295620 -0.355343 -0.564814 0
M  V30 11 N 1.227948 1.055554 -0.778752 0
M  V30 12 C 0.547276 1.793852 0.219239 0
M  V30 13 O 0.050882 1.235976 1.203689 0
M  V30 14 N 0.369614 3.178529 0.200708 0
M  V30 15 C -0.252200 4.196367 1.051315 0
M  V30 16 C -0.156833 3.928162 2.505861 0
M  V30 17 C 0.020153 4.994159 3.377926 0
M  V30 18 C 0.115553 4.892016 4.753365 0
M  V30 19 C 0.032455 3.642247 5.345633 0
M  V30 20 C -0.140912 2.598658 4.489931 0
M  V30 21 N -0.221182 2.793651 3.187096 0
M  V30 22 C -0.231380 5.602275 0.565377 0
M  V30 23 C -1.528580 4.795191 0.518388 0
M  V30 24 N 0.239713 -1.018495 -1.114760 0
M  V30 25 C 0.117262 -2.352845 -1.023927 0
M  V30 26 C 1.054463 -3.123708 -0.368651 0
M  V30 27 C 0.788104 -6.717143 -1.080701 0
M  V30 28 C -0.080826 -7.718332 -1.470835 0
M  V30 29 N -1.417933 -7.584590 -1.327608 0
M  V30 30 H -3.654202 -5.284881 -1.109287 0
M  V30 31 H -3.985016 -7.079511 -1.032228 0
M  V30 32 H -3.544798 -6.090124 0.471791 0
M  V30 33 H -1.510737 -4.550010 0.025824 0
M  V30 34 H 3.784805 -3.174486 1.270456 0
M  V30 35 H 3.055006 -0.478073 0.502476 0
M  V30 36 H 1.636528 1.558691 -1.599340 0
M  V30 37 H 0.812774 3.599130 -0.678330 0
M  V30 38 H 0.108905 6.036602 3.120339 0
M  V30 39 H 0.254784 5.712271 5.464395 0
M  V30 40 H 0.085824 3.379397 6.390254 0
M  V30 41 H -0.230219 1.535750 4.751474 0
M  V30 42 H 0.252560 5.733418 -0.447194 0
M  V30 43 H -0.116217 6.443772 1.230138 0
M  V30 44 H -2.247713 5.141956 1.303991 0
M  V30 45 H -1.899512 4.470798 -0.460448 0
M  V30 46 H -0.736006 -2.843979 -1.473838 0
M  V30 47 H 1.854107 -6.863504 -1.212534 0
M  V30 48 H 0.241674 -8.661369 -1.909846 0
M  V30 END ATOM
M  V30 BEGIN BOND
M  V30 1 1 1 2
M  V30 2 2 2 3
M  V30 3 1 3 4
M  V30 4 1 4 5
M  V30 5 2 5 6
M  V30 6 1 6 7
M  V30 7 1 7 8
M  V30 8 2 8 9
M  V30 9 1 9 10
M  V30 10 1 10 11
M  V30 11 1 11 12
M  V30 12 2 12 13
M  V30 13 1 12 14
M  V30 14 1 14 15
M  V30 15 1 15 16
M  V30 16 2 16 17
M  V30 17 1 17 18
M  V30 18 2 18 19
M  V30 19 1 19 20
M  V30 20 2 20 21
M  V30 21 1 15 22
M  V30 22 1 22 23
M  V30 23 2 10 24
M  V30 24 1 24 25
M  V30 25 2 25 26
M  V30 26 2 4 27
M  V30 27 1 27 28
M  V30 28 2 28 29
M  V30 29 1 29 2
M  V30 30 1 26 5
M  V30 31 1 26 8
M  V30 32 1 23 15
M  V30 33 1 21 16
M  V30 34 1 1 30
M  V30 35 1 1 31
M  V30 36 1 1 32
M  V30 37 1 3 33
M  V30 38 1 7 34
M  V30 39 1 9 35
M  V30 40 1 11 36
M  V30 41 1 14 37
M  V30 42 1 17 38
M  V30 43 1 18 39
M  V30 44 1 19 40
M  V30 45 1 20 41
M  V30 46 1 22 42
M  V30 47 1 22 43
M  V30 48 1 23 44
M  V30 49 1 23 45
M  V30 50 1 25 46
M  V30 51 1 27 47
M  V30 52 1 28 48
M  V30 END BOND
M  V30 END CTAB
M  END
>  <Dataset>  (970) 
ChEMBL_Kinases

>  <Ligand_Instance>  (970) 
nan

>  <PDB_ID>  (970) 
nan

>  <Standardized_SMILES>  (970) 
Cc1cc(-c2n[nH]c3cc(NC(=O)NC4(c5ccccn5)CC4)ncc23)ccn1

>  <Name>  (970) 
nan

>  <Pocket>  (970) 
nan

>  <ATP_Site>  (970) 
nan

>  <Peripheral>  (970) 
nan

>  <Num_H_Atoms_ProtBoundConf>  (970) 
nan

>  <Num_Resolved_Atoms>  (970) 
nan

>  <Num_Not_Resolved_Atoms>  (970) 
nan

$$$$
CHEMBL3658708
     RDKit          3D

  0  0  0  0  0  0  0  0  0  0999 V3000
M  V30 BEGIN CTAB
M  V30 COUNTS 52 56 0 0 0
M  V30 BEGIN ATOM
M  V30 1 C 2.081995 -5.690395 5.818075 0
M  V30 2 C 2.321522 -5.199773 4.436264 0
M  V30 3 C 3.164994 -4.174820 4.130545 0
M  V30 4 C 3.336352 -3.774773 2.824441 0
M  V30 5 C 2.666916 -4.387236 1.763442 0
M  V30 6 C 2.932364 -3.868622 0.397443 0
M  V30 7 N 3.236193 -2.428255 0.362012 0
M  V30 8 C 2.154306 -1.550097 0.232289 0
M  V30 9 O 1.006643 -2.109146 0.158096 0
M  V30 10 N 2.214740 -0.116549 0.176458 0
M  V30 11 C 0.968024 0.594373 0.040616 0
M  V30 12 C 0.275072 0.984288 1.194481 0
M  V30 13 C -0.915933 1.663022 1.019716 0
M  V30 14 N -1.842483 2.187105 1.858180 0
M  V30 15 N -2.833205 2.753891 1.153815 0
M  V30 16 C -2.590387 2.620929 -0.163627 0
M  V30 17 C -3.473145 3.127518 -1.214236 0
M  V30 18 C -3.825655 2.395161 -2.329017 0
M  V30 19 C -4.663604 2.961026 -3.262952 0
M  V30 20 N -5.166588 4.203433 -3.151990 0
M  V30 21 C -4.835782 4.951783 -2.060431 0
M  V30 22 C -5.359854 6.336133 -1.878344 0
M  V30 23 C -3.991168 4.395522 -1.108595 0
M  V30 24 C -1.387140 1.936397 -0.261481 0
M  V30 25 C -0.686847 1.542227 -1.387042 0
M  V30 26 N 0.477227 0.878701 -1.188852 0
M  V30 27 C 2.253139 -4.484940 -0.752552 0
M  V30 28 C 3.760090 -4.652037 -0.569080 0
M  V30 29 C 1.828740 -5.414649 2.125138 0
M  V30 30 C 1.637822 -5.833117 3.403579 0
M  V30 31 H 1.240186 -5.100152 6.248599 0
M  V30 32 H 1.746861 -6.750481 5.821422 0
M  V30 33 H 2.959510 -5.520109 6.475399 0
M  V30 34 H 3.699726 -3.675777 4.914225 0
M  V30 35 H 4.023548 -2.949077 2.635923 0
M  V30 36 H 4.189979 -1.985833 0.424461 0
M  V30 37 H 3.181040 0.292766 0.241530 0
M  V30 38 H 0.639416 0.772985 2.173374 0
M  V30 39 H -1.797282 2.157323 2.912892 0
M  V30 40 H -3.443603 1.406427 -2.446575 0
M  V30 41 H -4.953505 2.401166 -4.148032 0
M  V30 42 H -4.631577 6.937878 -1.314544 0
M  V30 43 H -5.554258 6.809707 -2.862171 0
M  V30 44 H -6.324933 6.331993 -1.329725 0
M  V30 45 H -3.758194 5.013510 -0.272201 0
M  V30 46 H -1.040787 1.747758 -2.393888 0
M  V30 47 H 1.923418 -3.874286 -1.638349 0
M  V30 48 H 1.697792 -5.411398 -0.614431 0
M  V30 49 H 4.147308 -5.667096 -0.271582 0
M  V30 50 H 4.401455 -4.139475 -1.294098 0
M  V30 51 H 1.304730 -5.896783 1.316456 0
M  V30 52 H 0.969165 -6.644690 3.638615 0
M  V30 END ATOM
M  V30 BEGIN BOND
M  V30 1 1 1 2
M  V30 2 2 2 3
M  V30 3 1 3 4
M  V30 4 2 4 5
M  V30 5 1 5 6
M  V30 6 1 6 7
M  V30 7 1 7 8
M  V30 8 2 8 9
M  V30 9 1 8 10
M  V30 10 1 10 11
M  V30 11 2 11 12
M  V30 12 1 12 13
M  V30 13 1 13 14
M  V30 14 1 14 15
M  V30 15 2 15 16
M  V30 16 1 16 17
M  V30 17 2 17 18
M  V30 18 1 18 19
M  V30 19 2 19 20
M  V30 20 1 20 21
M  V30 21 1 21 22
M  V30 22 2 21 23
M  V30 23 1 16 24
M  V30 24 1 24 25
M  V30 25 2 25 26
M  V30 26 1 6 27
M  V30 27 1 27 28
M  V30 28 1 5 29
M  V30 29 2 29 30
M  V30 30 1 30 2
M  V30 31 1 28 6
M  V30 32 1 26 11
M  V30 33 2 24 13
M  V30 34 1 23 17
M  V30 35 1 1 31
M  V30 36 1 1 32
M  V30 37 1 1 33
M  V30 38 1 3 34
M  V30 39 1 4 35
M  V30 40 1 7 36
M  V30 41 1 10 37
M  V30 42 1 12 38
M  V30 43 1 14 39
M  V30 44 1 18 40
M  V30 45 1 19 41
M  V30 46 1 22 42
M  V30 47 1 22 43
M  V30 48 1 22 44
M  V30 49 1 23 45
M  V30 50 1 25 46
M  V30 51 1 27 47
M  V30 52 1 27 48
M  V30 53 1 28 49
M  V30 54 1 28 50
M  V30 55 1 29 51
M  V30 56 1 30 52
M  V30 END BOND
M  V30 END CTAB
M  END
>  <Dataset>  (971) 
ChEMBL_Kinases

>  <Ligand_Instance>  (971) 
nan

>  <PDB_ID>  (971) 
nan

>  <Standardized_SMILES>  (971) 
Cc1ccc(C2(NC(=O)Nc3cc4[nH]nc(-c5ccnc(C)c5)c4cn3)CC2)cc1

>  <Name>  (971) 
nan

>  <Pocket>  (971) 
nan

>  <ATP_Site>  (971) 
nan

>  <Peripheral>  (971) 
nan

>  <Num_H_Atoms_ProtBoundConf>  (971) 
nan

>  <Num_Resolved_Atoms>  (971) 
nan

>  <Num_Not_Resolved_Atoms>  (971) 
nan

$$$$
CHEMBL3658634
     RDKit          3D

  0  0  0  0  0  0  0  0  0  0999 V3000
M  V30 BEGIN CTAB
M  V30 COUNTS 50 54 0 0 0
M  V30 BEGIN ATOM
M  V30 1 C 0.290549 -8.405296 -0.860073 0
M  V30 2 C 1.555424 -7.622188 -0.829057 0
M  V30 3 C 1.521551 -6.251160 -1.070596 0
M  V30 4 C 2.634568 -5.456736 -1.061616 0
M  V30 5 C 2.590881 -4.018736 -1.316203 0
M  V30 6 N 3.428218 -3.314824 -2.115835 0
M  V30 7 N 3.120783 -2.034264 -2.131789 0
M  V30 8 C 2.053585 -1.883476 -1.323401 0
M  V30 9 C 1.348948 -0.736910 -1.000118 0
M  V30 10 C 0.281164 -0.867697 -0.134547 0
M  V30 11 N -0.551904 0.203839 0.304880 0
M  V30 12 C -0.448423 1.076773 1.423740 0
M  V30 13 O 0.569641 0.818787 2.113079 0
M  V30 14 N -1.450177 2.065177 1.602255 0
M  V30 15 C -1.340725 2.939142 2.728640 0 CFG=2
M  V30 16 C -2.490811 2.872170 3.683303 0
M  V30 17 C -3.829211 2.759800 2.987977 0
M  V30 18 S -3.936820 3.889530 1.569604 0
M  V30 19 C -2.421508 4.858336 1.668169 0
M  V30 20 C -2.461101 6.129777 1.173809 0
M  V30 21 C -1.329694 6.897466 1.230584 0
M  V30 22 C -0.149201 6.421374 1.774150 0
M  V30 23 C -0.129758 5.123815 2.272226 0
M  V30 24 C -1.257345 4.337811 2.223540 0
M  V30 25 N -0.064551 -2.082187 0.381421 0
M  V30 26 C 0.625707 -3.208548 0.065328 0
M  V30 27 C 1.692657 -3.109561 -0.793165 0
M  V30 28 C 3.829061 -6.094585 -0.794208 0
M  V30 29 C 3.863215 -7.451803 -0.555039 0
M  V30 30 N 2.744624 -8.198061 -0.573103 0
M  V30 31 H 0.267564 -9.226636 -0.121137 0
M  V30 32 H 0.002369 -8.737453 -1.867431 0
M  V30 33 H -0.518196 -7.686021 -0.535928 0
M  V30 34 H 0.568015 -5.806255 -1.273013 0
M  V30 35 H 3.593801 -1.265664 -2.658223 0
M  V30 36 H 1.563359 0.261439 -1.369179 0
M  V30 37 H -1.353382 0.276281 -0.390212 0
M  V30 38 H -2.228776 2.117719 0.906390 0
M  V30 39 H -0.428640 2.665174 3.296811 0
M  V30 40 H -2.494948 3.829424 4.258402 0
M  V30 41 H -2.377784 2.065039 4.435051 0
M  V30 42 H -4.653364 3.061151 3.667411 0
M  V30 43 H -4.030091 1.703241 2.692990 0
M  V30 44 H -3.369862 6.551793 0.734332 0
M  V30 45 H -1.315840 7.924816 0.845269 0
M  V30 46 H 0.758402 7.033603 1.821143 0
M  V30 47 H 0.767332 4.699241 2.709023 0
M  V30 48 H 0.350702 -4.172822 0.475332 0
M  V30 49 H 4.766119 -5.557193 -0.763917 0
M  V30 50 H 4.745395 -8.036078 -0.337804 0
M  V30 END ATOM
M  V30 BEGIN BOND
M  V30 1 1 1 2
M  V30 2 2 2 3
M  V30 3 1 3 4
M  V30 4 1 4 5
M  V30 5 2 5 6
M  V30 6 1 6 7
M  V30 7 1 7 8
M  V30 8 2 8 9
M  V30 9 1 9 10
M  V30 10 1 10 11
M  V30 11 1 11 12
M  V30 12 2 12 13
M  V30 13 1 12 14
M  V30 14 1 14 15
M  V30 15 1 15 16
M  V30 16 1 16 17
M  V30 17 1 17 18
M  V30 18 1 18 19
M  V30 19 2 19 20
M  V30 20 1 20 21
M  V30 21 2 21 22
M  V30 22 1 22 23
M  V30 23 2 23 24
M  V30 24 2 10 25
M  V30 25 1 25 26
M  V30 26 2 26 27
M  V30 27 2 4 28
M  V30 28 1 28 29
M  V30 29 2 29 30
M  V30 30 1 30 2
M  V30 31 1 27 5
M  V30 32 1 27 8
M  V30 33 1 24 15
M  V30 34 1 24 19
M  V30 35 1 1 31
M  V30 36 1 1 32
M  V30 37 1 1 33
M  V30 38 1 3 34
M  V30 39 1 7 35
M  V30 40 1 9 36
M  V30 41 1 11 37
M  V30 42 1 14 38
M  V30 43 1 15 39 CFG=1
M  V30 44 1 16 40
M  V30 45 1 16 41
M  V30 46 1 17 42
M  V30 47 1 17 43
M  V30 48 1 20 44
M  V30 49 1 21 45
M  V30 50 1 22 46
M  V30 51 1 23 47
M  V30 52 1 26 48
M  V30 53 1 28 49
M  V30 54 1 29 50
M  V30 END BOND
M  V30 END CTAB
M  END
>  <Dataset>  (972) 
ChEMBL_Kinases

>  <Ligand_Instance>  (972) 
nan

>  <PDB_ID>  (972) 
nan

>  <Standardized_SMILES>  (972) 
Cc1cc(-c2n[nH]c3cc(NC(=O)N[C@@H]4CCSc5ccccc54)ncc23)ccn1

>  <Name>  (972) 
nan

>  <Pocket>  (972) 
nan

>  <ATP_Site>  (972) 
nan

>  <Peripheral>  (972) 
nan

>  <Num_H_Atoms_ProtBoundConf>  (972) 
nan

>  <Num_Resolved_Atoms>  (972) 
nan

>  <Num_Not_Resolved_Atoms>  (972) 
nan

$$$$
CHEMBL3658633
     RDKit          3D

  0  0  0  0  0  0  0  0  0  0999 V3000
M  V30 BEGIN CTAB
M  V30 COUNTS 51 55 0 0 0
M  V30 BEGIN ATOM
M  V30 1 C 1.467135 -6.984311 4.616283 0
M  V30 2 C 2.465522 -6.793396 3.514440 0
M  V30 3 C 2.537505 -5.563594 2.889025 0
M  V30 4 C 3.427365 -5.301821 1.865653 0
M  V30 5 C 3.536945 -4.018373 1.177875 0
M  V30 6 N 4.656062 -3.343413 0.857092 0
M  V30 7 N 4.388465 -2.208653 0.235048 0
M  V30 8 C 3.044152 -2.159169 0.156631 0
M  V30 9 C 2.276834 -1.156620 -0.413359 0
M  V30 10 C 0.904916 -1.317816 -0.379268 0
M  V30 11 N -0.102483 -0.442686 -0.889703 0
M  V30 12 C -0.678042 0.591251 -0.103564 0
M  V30 13 O -0.302506 0.760680 1.087535 0
M  V30 14 N -1.683549 1.408258 -0.727470 0
M  V30 15 C -2.301336 2.477839 0.034983 0 CFG=2
M  V30 16 C -3.754663 2.164066 0.254875 0
M  V30 17 C -4.559547 3.352041 0.698292 0
M  V30 18 C -4.499030 4.521814 -0.222453 0
M  V30 19 C -3.093276 4.725342 -0.625870 0
M  V30 20 C -2.806447 5.944895 -1.151098 0
M  V30 21 C -1.499941 6.220909 -1.558713 0
M  V30 22 N -0.479571 5.335082 -1.462954 0
M  V30 23 C -0.780230 4.114026 -0.933938 0
M  V30 24 C -2.063211 3.811212 -0.521722 0
M  V30 25 N 0.335210 -2.406046 0.185452 0
M  V30 26 C 1.085276 -3.397761 0.748942 0
M  V30 27 C 2.461623 -3.271374 0.733786 0
M  V30 28 C 4.259062 -6.345692 1.487689 0
M  V30 29 C 4.190838 -7.575493 2.109291 0
M  V30 30 N 3.297692 -7.784215 3.112186 0
M  V30 31 H 0.616005 -6.268607 4.426198 0
M  V30 32 H 1.002019 -7.990337 4.590245 0
M  V30 33 H 1.880478 -6.715381 5.607863 0
M  V30 34 H 1.874934 -4.769644 3.207047 0
M  V30 35 H 5.077511 -1.507837 -0.116255 0
M  V30 36 H 2.595778 -0.253043 -0.888188 0
M  V30 37 H -0.421316 -0.578953 -1.885591 0
M  V30 38 H -1.992982 1.264720 -1.716754 0
M  V30 39 H -1.826357 2.448422 1.048991 0
M  V30 40 H -3.888468 1.374728 1.023367 0
M  V30 41 H -4.184810 1.766469 -0.687377 0
M  V30 42 H -4.245280 3.645965 1.722644 0
M  V30 43 H -5.616883 3.025671 0.774324 0
M  V30 44 H -5.111640 4.323581 -1.123422 0
M  V30 45 H -4.923485 5.393078 0.313078 0
M  V30 46 H -3.522034 6.745986 -1.285855 0
M  V30 47 H -1.261151 7.198744 -1.981880 0
M  V30 48 H 0.007797 3.371802 -0.838160 0
M  V30 49 H 0.646283 -4.275753 1.205344 0
M  V30 50 H 5.001352 -6.252825 0.690352 0
M  V30 51 H 4.809182 -8.430477 1.863724 0
M  V30 END ATOM
M  V30 BEGIN BOND
M  V30 1 1 1 2
M  V30 2 2 2 3
M  V30 3 1 3 4
M  V30 4 1 4 5
M  V30 5 2 5 6
M  V30 6 1 6 7
M  V30 7 1 7 8
M  V30 8 2 8 9
M  V30 9 1 9 10
M  V30 10 1 10 11
M  V30 11 1 11 12
M  V30 12 2 12 13
M  V30 13 1 12 14
M  V30 14 1 14 15
M  V30 15 1 15 16
M  V30 16 1 16 17
M  V30 17 1 17 18
M  V30 18 1 18 19
M  V30 19 2 19 20
M  V30 20 1 20 21
M  V30 21 2 21 22
M  V30 22 1 22 23
M  V30 23 2 23 24
M  V30 24 2 10 25
M  V30 25 1 25 26
M  V30 26 2 26 27
M  V30 27 2 4 28
M  V30 28 1 28 29
M  V30 29 2 29 30
M  V30 30 1 30 2
M  V30 31 1 27 5
M  V30 32 1 27 8
M  V30 33 1 24 15
M  V30 34 1 24 19
M  V30 35 1 1 31
M  V30 36 1 1 32
M  V30 37 1 1 33
M  V30 38 1 3 34
M  V30 39 1 7 35
M  V30 40 1 9 36
M  V30 41 1 11 37
M  V30 42 1 14 38
M  V30 43 1 15 39 CFG=1
M  V30 44 1 16 40
M  V30 45 1 16 41
M  V30 46 1 17 42
M  V30 47 1 17 43
M  V30 48 1 18 44
M  V30 49 1 18 45
M  V30 50 1 20 46
M  V30 51 1 21 47
M  V30 52 1 23 48
M  V30 53 1 26 49
M  V30 54 1 28 50
M  V30 55 1 29 51
M  V30 END BOND
M  V30 END CTAB
M  END
>  <Dataset>  (973) 
ChEMBL_Kinases

>  <Ligand_Instance>  (973) 
nan

>  <PDB_ID>  (973) 
nan

>  <Standardized_SMILES>  (973) 
Cc1cc(-c2n[nH]c3cc(NC(=O)N[C@@H]4CCCc5ccncc54)ncc23)ccn1

>  <Name>  (973) 
nan

>  <Pocket>  (973) 
nan

>  <ATP_Site>  (973) 
nan

>  <Peripheral>  (973) 
nan

>  <Num_H_Atoms_ProtBoundConf>  (973) 
nan

>  <Num_Resolved_Atoms>  (973) 
nan

>  <Num_Not_Resolved_Atoms>  (973) 
nan

$$$$
CHEMBL3658632
     RDKit          3D

  0  0  0  0  0  0  0  0  0  0999 V3000
M  V30 BEGIN CTAB
M  V30 COUNTS 51 55 0 0 0
M  V30 BEGIN ATOM
M  V30 1 C 0.789366 -8.569335 1.693109 0
M  V30 2 C 1.898342 -7.843299 1.009588 0
M  V30 3 C 1.674496 -6.648004 0.356863 0
M  V30 4 C 2.649809 -5.921075 -0.296329 0
M  V30 5 C 2.361034 -4.656358 -0.974935 0
M  V30 6 N 2.771111 -4.243111 -2.205047 0
M  V30 7 N 2.299240 -3.031102 -2.465233 0
M  V30 8 C 1.565950 -2.608894 -1.418578 0
M  V30 9 C 0.876479 -1.428627 -1.212194 0
M  V30 10 C 0.189656 -1.248786 -0.017666 0
M  V30 11 N -0.567594 -0.099277 0.354651 0
M  V30 12 C -0.167095 1.070957 1.033017 0
M  V30 13 O 1.043457 1.074077 1.343807 0
M  V30 14 N -1.151445 2.042409 1.259747 0
M  V30 15 C -0.837114 3.268853 1.943786 0 CFG=2
M  V30 16 C -1.662200 3.494478 3.178798 0
M  V30 17 C -3.152455 3.473451 2.879622 0
M  V30 18 C -3.521866 4.541434 1.870723 0
M  V30 19 C -2.357066 4.987763 1.088849 0
M  V30 20 C -2.589024 6.081432 0.280988 0
M  V30 21 C -1.621815 6.647070 -0.527152 0
M  V30 22 C -0.348848 6.065320 -0.510149 0
M  V30 23 N -0.124582 4.993805 0.282423 0
M  V30 24 C -1.081283 4.459372 1.061357 0
M  V30 25 N 0.221273 -2.245822 0.909188 0
M  V30 26 C 0.901713 -3.401653 0.696586 0
M  V30 27 C 1.595724 -3.618475 -0.475605 0
M  V30 28 C 3.926012 -6.452527 -0.277392 0
M  V30 29 C 4.120192 -7.648499 0.382573 0
M  V30 30 N 3.152552 -8.348390 1.018068 0
M  V30 31 H 1.036414 -9.627738 1.811361 0
M  V30 32 H -0.174714 -8.440774 1.121597 0
M  V30 33 H 0.585601 -8.145344 2.686861 0
M  V30 34 H 0.652660 -6.294387 0.384019 0
M  V30 35 H 2.481321 -2.499608 -3.356962 0
M  V30 36 H 0.823192 -0.622767 -1.905875 0
M  V30 37 H -1.548744 -0.261545 0.024120 0
M  V30 38 H -2.137709 1.908985 0.942121 0
M  V30 39 H 0.214111 3.303530 2.229202 0
M  V30 40 H -1.429737 4.508812 3.548840 0
M  V30 41 H -1.491297 2.794235 3.996303 0
M  V30 42 H -3.668384 3.737998 3.828623 0
M  V30 43 H -3.518074 2.491302 2.584614 0
M  V30 44 H -4.255243 4.087103 1.172617 0
M  V30 45 H -4.043847 5.408438 2.352555 0
M  V30 46 H -3.551911 6.590404 0.211999 0
M  V30 47 H -1.795418 7.506301 -1.164968 0
M  V30 48 H 0.462655 6.460715 -1.123652 0
M  V30 49 H 0.899863 -4.160676 1.454001 0
M  V30 50 H 4.743722 -5.938172 -0.768994 0
M  V30 51 H 5.109223 -8.120704 0.432814 0
M  V30 END ATOM
M  V30 BEGIN BOND
M  V30 1 1 1 2
M  V30 2 2 2 3
M  V30 3 1 3 4
M  V30 4 1 4 5
M  V30 5 2 5 6
M  V30 6 1 6 7
M  V30 7 1 7 8
M  V30 8 2 8 9
M  V30 9 1 9 10
M  V30 10 1 10 11
M  V30 11 1 11 12
M  V30 12 2 12 13
M  V30 13 1 12 14
M  V30 14 1 14 15
M  V30 15 1 15 16
M  V30 16 1 16 17
M  V30 17 1 17 18
M  V30 18 1 18 19
M  V30 19 2 19 20
M  V30 20 1 20 21
M  V30 21 2 21 22
M  V30 22 1 22 23
M  V30 23 2 23 24
M  V30 24 2 10 25
M  V30 25 1 25 26
M  V30 26 2 26 27
M  V30 27 2 4 28
M  V30 28 1 28 29
M  V30 29 2 29 30
M  V30 30 1 30 2
M  V30 31 1 27 5
M  V30 32 1 27 8
M  V30 33 1 24 15
M  V30 34 1 24 19
M  V30 35 1 1 31
M  V30 36 1 1 32
M  V30 37 1 1 33
M  V30 38 1 3 34
M  V30 39 1 7 35
M  V30 40 1 9 36
M  V30 41 1 11 37
M  V30 42 1 14 38
M  V30 43 1 15 39 CFG=1
M  V30 44 1 16 40
M  V30 45 1 16 41
M  V30 46 1 17 42
M  V30 47 1 17 43
M  V30 48 1 18 44
M  V30 49 1 18 45
M  V30 50 1 20 46
M  V30 51 1 21 47
M  V30 52 1 22 48
M  V30 53 1 26 49
M  V30 54 1 28 50
M  V30 55 1 29 51
M  V30 END BOND
M  V30 END CTAB
M  END
>  <Dataset>  (974) 
ChEMBL_Kinases

>  <Ligand_Instance>  (974) 
nan

>  <PDB_ID>  (974) 
nan

>  <Standardized_SMILES>  (974) 
Cc1cc(-c2n[nH]c3cc(NC(=O)N[C@@H]4CCCc5cccnc54)ncc23)ccn1

>  <Name>  (974) 
nan

>  <Pocket>  (974) 
nan

>  <ATP_Site>  (974) 
nan

>  <Peripheral>  (974) 
nan

>  <Num_H_Atoms_ProtBoundConf>  (974) 
nan

>  <Num_Resolved_Atoms>  (974) 
nan

>  <Num_Not_Resolved_Atoms>  (974) 
nan

$$$$
CHEMBL3658631
     RDKit          3D

  0  0  0  0  0  0  0  0  0  0999 V3000
M  V30 BEGIN CTAB
M  V30 COUNTS 72 77 0 0 0
M  V30 BEGIN ATOM
M  V30 1 C 2.683280 -4.003961 3.189671 0
M  V30 2 C 1.571278 -3.018394 3.347714 0
M  V30 3 C 0.914443 -3.097771 4.709275 0
M  V30 4 C 2.158744 -1.633386 3.256752 0
M  V30 5 N 2.679997 -0.564079 3.893721 0
M  V30 6 N 2.995731 0.373645 3.013225 0
M  V30 7 C 2.691552 -0.051600 1.773288 0
M  V30 8 N 2.804933 0.512381 0.460553 0
M  V30 9 C 1.598643 1.238849 0.146252 0
M  V30 10 O 0.762538 1.194943 1.092137 0
M  V30 11 C 1.453897 1.916783 -1.147285 0
M  V30 12 C 2.387234 1.934679 -2.162513 0
M  V30 13 C 2.086003 2.625317 -3.318029 0
M  V30 14 C 0.879055 3.278840 -3.446537 0
M  V30 15 C -0.057653 3.259678 -2.424830 0
M  V30 16 O -1.231263 3.966780 -2.702020 0
M  V30 17 C -1.354794 5.318834 -2.386942 0
M  V30 18 C -1.847721 5.669475 -1.146962 0
M  V30 19 C -2.001226 7.002129 -0.757011 0
M  V30 20 C -1.650071 8.016029 -1.636569 0
M  V30 21 C -1.157433 7.663737 -2.875701 0
M  V30 22 C -1.013217 6.345973 -3.242141 0
M  V30 23 C 0.243890 2.568286 -1.267979 0
M  V30 24 C 2.157344 -1.329141 1.912637 0
M  V30 25 C 1.586066 -2.520041 1.269853 0
M  V30 26 N 0.631299 -2.985988 2.253439 0
M  V30 27 C -0.723172 -3.363688 2.463977 0
M  V30 28 O -1.215847 -3.749466 3.555919 0
M  V30 29 N -1.866162 -3.433045 1.624137 0
M  V30 30 C -3.060742 -3.885361 2.303327 0
M  V30 31 C -4.313806 -3.300169 1.688397 0
M  V30 32 N -4.295781 -3.374300 0.252939 0
M  V30 33 C -3.201506 -2.592860 -0.280542 0
M  V30 34 C -1.849563 -3.086533 0.218018 0
M  V30 35 C -1.271213 -4.136436 -0.643023 0
M  V30 36 C -1.576904 -5.488962 -0.524022 0
M  V30 37 C -1.031021 -6.462022 -1.334170 0
M  V30 38 C -0.132248 -6.121687 -2.325489 0
M  V30 39 C 0.212848 -4.793312 -2.494832 0
M  V30 40 C -0.359967 -3.853542 -1.658993 0
M  V30 41 H 2.447643 -4.867129 2.536696 0
M  V30 42 H 3.598428 -3.513600 2.799955 0
M  V30 43 H 2.979692 -4.355761 4.222291 0
M  V30 44 H 1.683318 -2.799214 5.481538 0
M  V30 45 H 0.584690 -4.097833 4.998452 0
M  V30 46 H 0.147684 -2.303211 4.769709 0
M  V30 47 H 2.808407 -0.500721 4.927415 0
M  V30 48 H 3.586003 0.446774 -0.195812 0
M  V30 49 H 3.306510 1.395925 -1.978004 0
M  V30 50 H 2.819687 2.633949 -4.104481 0
M  V30 51 H 0.713392 3.795482 -4.373546 0
M  V30 52 H -2.125001 4.893619 -0.453716 0
M  V30 53 H -2.394334 7.177230 0.232720 0
M  V30 54 H -1.793528 9.021185 -1.271426 0
M  V30 55 H -0.889846 8.467249 -3.545575 0
M  V30 56 H -0.626412 6.065088 -4.215097 0
M  V30 57 H -0.533223 2.603899 -0.530310 0
M  V30 58 H 2.354807 -3.339046 1.196216 0
M  V30 59 H 1.185422 -2.345692 0.273357 0
M  V30 60 H -3.196928 -4.988136 2.282794 0
M  V30 61 H -3.097450 -3.601804 3.375867 0
M  V30 62 H -5.167940 -3.918101 2.039053 0
M  V30 63 H -4.491824 -2.263220 2.083191 0
M  V30 64 H -5.164008 -2.920453 -0.101016 0
M  V30 65 H -3.339155 -1.525212 0.061853 0
M  V30 66 H -3.233984 -2.647353 -1.370294 0
M  V30 67 H -1.183567 -2.180342 0.106093 0
M  V30 68 H -2.266481 -5.800880 0.227132 0
M  V30 69 H -1.262415 -7.508691 -1.248330 0
M  V30 70 H 0.347131 -6.792965 -3.004393 0
M  V30 71 H 0.906134 -4.401190 -3.236189 0
M  V30 72 H -0.108047 -2.788592 -1.765152 0
M  V30 END ATOM
M  V30 BEGIN BOND
M  V30 1 1 1 2
M  V30 2 1 2 3
M  V30 3 1 2 4
M  V30 4 1 4 5
M  V30 5 1 5 6
M  V30 6 2 6 7
M  V30 7 1 7 8
M  V30 8 1 8 9
M  V30 9 2 9 10
M  V30 10 1 9 11
M  V30 11 2 11 12
M  V30 12 1 12 13
M  V30 13 2 13 14
M  V30 14 1 14 15
M  V30 15 1 15 16
M  V30 16 1 16 17
M  V30 17 2 17 18
M  V30 18 1 18 19
M  V30 19 2 19 20
M  V30 20 1 20 21
M  V30 21 2 21 22
M  V30 22 2 15 23
M  V30 23 1 7 24
M  V30 24 1 24 25
M  V30 25 1 25 26
M  V30 26 1 26 27
M  V30 27 2 27 28
M  V30 28 1 27 29
M  V30 29 1 29 30
M  V30 30 1 30 31
M  V30 31 1 31 32
M  V30 32 1 32 33
M  V30 33 1 33 34
M  V30 34 1 34 35
M  V30 35 2 35 36
M  V30 36 1 36 37
M  V30 37 2 37 38
M  V30 38 1 38 39
M  V30 39 2 39 40
M  V30 40 1 26 2
M  V30 41 1 34 29
M  V30 42 1 40 35
M  V30 43 2 24 4
M  V30 44 1 23 11
M  V30 45 1 22 17
M  V30 46 1 1 41
M  V30 47 1 1 42
M  V30 48 1 1 43
M  V30 49 1 3 44
M  V30 50 1 3 45
M  V30 51 1 3 46
M  V30 52 1 5 47
M  V30 53 1 8 48
M  V30 54 1 12 49
M  V30 55 1 13 50
M  V30 56 1 14 51
M  V30 57 1 18 52
M  V30 58 1 19 53
M  V30 59 1 20 54
M  V30 60 1 21 55
M  V30 61 1 22 56
M  V30 62 1 23 57
M  V30 63 1 25 58
M  V30 64 1 25 59
M  V30 65 1 30 60
M  V30 66 1 30 61
M  V30 67 1 31 62
M  V30 68 1 31 63
M  V30 69 1 32 64
M  V30 70 1 33 65
M  V30 71 1 33 66
M  V30 72 1 34 67
M  V30 73 1 36 68
M  V30 74 1 37 69
M  V30 75 1 38 70
M  V30 76 1 39 71
M  V30 77 1 40 72
M  V30 END BOND
M  V30 END CTAB
M  END
>  <Dataset>  (975) 
ChEMBL_Kinases

>  <Ligand_Instance>  (975) 
nan

>  <PDB_ID>  (975) 
nan

>  <Standardized_SMILES>  (975) 
CC1(C)c2[nH]nc(NC(=O)c3cccc(Oc4ccccc4)c3)c2CN1C(=O)N1CCNCC1c1ccccc1

>  <Name>  (975) 
nan

>  <Pocket>  (975) 
nan

>  <ATP_Site>  (975) 
nan

>  <Peripheral>  (975) 
nan

>  <Num_H_Atoms_ProtBoundConf>  (975) 
nan

>  <Num_Resolved_Atoms>  (975) 
nan

>  <Num_Not_Resolved_Atoms>  (975) 
nan

$$$$
CHEMBL3658630
     RDKit          3D

  0  0  0  0  0  0  0  0  0  0999 V3000
M  V30 BEGIN CTAB
M  V30 COUNTS 75 80 0 0 0
M  V30 BEGIN ATOM
M  V30 1 C 7.151770 -1.760084 3.177534 0
M  V30 2 N 5.792462 -1.669499 2.676322 0
M  V30 3 C 5.537693 -2.934205 1.965644 0
M  V30 4 C 4.096189 -2.997011 1.512741 0
M  V30 5 N 3.641723 -1.696066 1.028673 0
M  V30 6 C 2.292414 -1.402093 0.715208 0
M  V30 7 O 1.915309 -0.252874 0.301512 0
M  V30 8 N 0.989517 -1.957853 0.668984 0
M  V30 9 C -0.132956 -1.147057 0.246948 0
M  V30 10 C -1.065768 -1.276405 1.397600 0
M  V30 11 C -2.003737 -0.706007 2.220079 0
M  V30 12 N -2.410429 0.656415 2.041557 0
M  V30 13 C -3.521211 0.710200 1.148097 0
M  V30 14 O -3.849004 -0.444195 0.755524 0
M  V30 15 C -4.160328 1.975073 0.770011 0
M  V30 16 C -3.788324 3.231594 1.202362 0
M  V30 17 C -4.503843 4.318773 0.741784 0
M  V30 18 C -5.570493 4.200123 -0.128927 0
M  V30 19 C -5.922835 2.912146 -0.548777 0
M  V30 20 O -7.009877 2.913944 -1.423378 0
M  V30 21 C -7.440089 1.662482 -1.889087 0
M  V30 22 C -7.029558 0.966500 -3.006980 0
M  V30 23 C -7.600439 -0.260446 -3.266790 0
M  V30 24 C -8.564395 -0.817918 -2.453654 0
M  V30 25 C -8.971768 -0.101616 -1.323113 0
M  V30 26 C -8.404965 1.131800 -1.052592 0
M  V30 27 C -5.218945 1.817365 -0.098320 0
M  V30 28 N -2.371898 -1.660832 3.107905 0
M  V30 29 N -1.698345 -2.777433 2.856171 0
M  V30 30 C -0.881780 -2.577873 1.806373 0
M  V30 31 C 0.144129 -3.138630 0.876229 0
M  V30 32 C -0.448701 -3.669813 -0.389097 0
M  V30 33 C 0.856983 -4.244484 1.613746 0
M  V30 34 C 4.544471 -0.595621 0.825591 0
M  V30 35 C 4.944133 -0.463721 -0.610790 0
M  V30 36 C 4.984255 0.760451 -1.244691 0
M  V30 37 C 5.335623 0.989129 -2.557141 0
M  V30 38 C 5.679944 -0.126007 -3.302774 0
M  V30 39 C 5.662144 -1.399790 -2.726712 0
M  V30 40 C 5.297150 -1.531376 -1.405933 0
M  V30 41 C 5.787046 -0.654017 1.642803 0
M  V30 42 H 7.616712 -0.748134 3.205940 0
M  V30 43 H 7.736961 -2.328999 2.427086 0
M  V30 44 H 7.212121 -2.269833 4.160418 0
M  V30 45 H 6.258444 -3.050058 1.132476 0
M  V30 46 H 5.710223 -3.752974 2.701176 0
M  V30 47 H 4.020233 -3.699064 0.677374 0
M  V30 48 H 3.466326 -3.362838 2.361213 0
M  V30 49 H 0.094555 -0.104337 0.017214 0
M  V30 50 H -0.538214 -1.604870 -0.680392 0
M  V30 51 H -2.020204 1.551553 2.456933 0
M  V30 52 H -2.948588 3.275640 1.882212 0
M  V30 53 H -4.193816 5.303473 1.096217 0
M  V30 54 H -6.059423 5.111561 -0.425385 0
M  V30 55 H -6.276441 1.480044 -3.577659 0
M  V30 56 H -7.248732 -0.769400 -4.152998 0
M  V30 57 H -9.007905 -1.763556 -2.648718 0
M  V30 58 H -9.741597 -0.571720 -0.693842 0
M  V30 59 H -8.802666 1.590665 -0.147012 0
M  V30 60 H -5.603080 0.892093 -0.505434 0
M  V30 61 H -1.777876 -3.682630 3.383001 0
M  V30 62 H 0.178816 -3.407847 -1.253150 0
M  V30 63 H -0.419663 -4.798261 -0.331170 0
M  V30 64 H -1.507403 -3.368173 -0.536172 0
M  V30 65 H 0.147871 -5.116685 1.580679 0
M  V30 66 H 1.712903 -4.563723 0.996919 0
M  V30 67 H 1.070903 -4.037781 2.663925 0
M  V30 68 H 4.033329 0.371848 1.081527 0
M  V30 69 H 4.705970 1.630735 -0.629720 0
M  V30 70 H 5.332419 1.999553 -2.954479 0
M  V30 71 H 5.958225 0.070792 -4.347691 0
M  V30 72 H 5.937926 -2.238735 -3.345979 0
M  V30 73 H 5.291437 -2.520706 -0.991038 0
M  V30 74 H 6.069312 0.344584 2.044720 0
M  V30 75 H 6.663763 -0.926399 0.982014 0
M  V30 END ATOM
M  V30 BEGIN BOND
M  V30 1 1 1 2
M  V30 2 1 2 3
M  V30 3 1 3 4
M  V30 4 1 4 5
M  V30 5 1 5 6
M  V30 6 2 6 7
M  V30 7 1 6 8
M  V30 8 1 8 9
M  V30 9 1 9 10
M  V30 10 1 10 11
M  V30 11 1 11 12
M  V30 12 1 12 13
M  V30 13 2 13 14
M  V30 14 1 13 15
M  V30 15 2 15 16
M  V30 16 1 16 17
M  V30 17 2 17 18
M  V30 18 1 18 19
M  V30 19 1 19 20
M  V30 20 1 20 21
M  V30 21 2 21 22
M  V30 22 1 22 23
M  V30 23 2 23 24
M  V30 24 1 24 25
M  V30 25 2 25 26
M  V30 26 2 19 27
M  V30 27 2 11 28
M  V30 28 1 28 29
M  V30 29 1 29 30
M  V30 30 1 30 31
M  V30 31 1 31 32
M  V30 32 1 31 33
M  V30 33 1 5 34
M  V30 34 1 34 35
M  V30 35 2 35 36
M  V30 36 1 36 37
M  V30 37 2 37 38
M  V30 38 1 38 39
M  V30 39 2 39 40
M  V30 40 1 34 41
M  V30 41 1 41 2
M  V30 42 1 31 8
M  V30 43 1 40 35
M  V30 44 2 30 10
M  V30 45 1 27 15
M  V30 46 1 26 21
M  V30 47 1 1 42
M  V30 48 1 1 43
M  V30 49 1 1 44
M  V30 50 1 3 45
M  V30 51 1 3 46
M  V30 52 1 4 47
M  V30 53 1 4 48
M  V30 54 1 9 49
M  V30 55 1 9 50
M  V30 56 1 12 51
M  V30 57 1 16 52
M  V30 58 1 17 53
M  V30 59 1 18 54
M  V30 60 1 22 55
M  V30 61 1 23 56
M  V30 62 1 24 57
M  V30 63 1 25 58
M  V30 64 1 26 59
M  V30 65 1 27 60
M  V30 66 1 29 61
M  V30 67 1 32 62
M  V30 68 1 32 63
M  V30 69 1 32 64
M  V30 70 1 33 65
M  V30 71 1 33 66
M  V30 72 1 33 67
M  V30 73 1 34 68
M  V30 74 1 36 69
M  V30 75 1 37 70
M  V30 76 1 38 71
M  V30 77 1 39 72
M  V30 78 1 40 73
M  V30 79 1 41 74
M  V30 80 1 41 75
M  V30 END BOND
M  V30 END CTAB
M  END
>  <Dataset>  (976) 
ChEMBL_Kinases

>  <Ligand_Instance>  (976) 
nan

>  <PDB_ID>  (976) 
nan

>  <Standardized_SMILES>  (976) 
CN1CCN(C(=O)N2Cc3c(NC(=O)c4cccc(Oc5ccccc5)c4)n[nH]c3C2(C)C)C(c2ccccc2)C1

>  <Name>  (976) 
nan

>  <Pocket>  (976) 
nan

>  <ATP_Site>  (976) 
nan

>  <Peripheral>  (976) 
nan

>  <Num_H_Atoms_ProtBoundConf>  (976) 
nan

>  <Num_Resolved_Atoms>  (976) 
nan

>  <Num_Not_Resolved_Atoms>  (976) 
nan

$$$$
CHEMBL3658629
     RDKit          3D

  0  0  0  0  0  0  0  0  0  0999 V3000
M  V30 BEGIN CTAB
M  V30 COUNTS 72 77 0 0 0
M  V30 BEGIN ATOM
M  V30 1 C 2.373010 -0.788592 5.079740 0
M  V30 2 N 2.036852 -1.222662 3.753252 0
M  V30 3 C 0.950299 -0.472852 3.202147 0
M  V30 4 C 0.407420 -1.226664 1.982253 0
M  V30 5 N 1.514750 -1.760931 1.213819 0
M  V30 6 C 1.264887 -2.675813 0.123104 0
M  V30 7 O 2.327212 -3.098806 -0.461845 0
M  V30 8 N 0.021706 -3.184713 -0.408168 0
M  V30 9 C -1.420373 -3.038242 -0.159758 0
M  V30 10 C -1.937088 -2.803455 -1.538077 0
M  V30 11 C -2.872069 -2.204222 -2.356116 0
M  V30 12 N -3.941199 -1.374492 -1.917937 0
M  V30 13 C -3.545498 -0.016806 -1.876142 0
M  V30 14 O -2.333063 0.139685 -2.238091 0
M  V30 15 C -4.414294 1.084574 -1.468414 0
M  V30 16 C -3.867171 2.351328 -1.487183 0
M  V30 17 C -4.559484 3.470028 -1.133720 0
M  V30 18 C -5.871443 3.357477 -0.734340 0
M  V30 19 C -6.632108 4.464779 -0.360705 0
M  V30 20 C -7.944691 4.236961 0.024820 0
M  V30 21 C -8.468324 2.960947 0.035014 0
M  V30 22 C -7.717573 1.841745 -0.336878 0
M  V30 23 C -6.411672 2.071993 -0.720030 0
M  V30 24 N -5.716829 0.974102 -1.071753 0
M  V30 25 N -2.587537 -2.543674 -3.608970 0
M  V30 26 N -1.521626 -3.328052 -3.644321 0
M  V30 27 C -1.115034 -3.492411 -2.368883 0
M  V30 28 C -0.109925 -4.136099 -1.485007 0
M  V30 29 C 1.177005 -4.381375 -2.248853 0
M  V30 30 C -0.635797 -5.436801 -0.915452 0
M  V30 31 C 2.919753 -1.417691 1.463548 0 CFG=1
M  V30 32 C 3.296280 -0.174942 0.693991 0
M  V30 33 C 4.677135 0.263673 0.867299 0
M  V30 34 C 5.234292 1.198591 1.735407 0
M  V30 35 C 6.579938 1.454302 1.750445 0
M  V30 36 C 7.457816 0.803904 0.909748 0
M  V30 37 C 6.963445 -0.141101 0.018561 0
M  V30 38 C 5.608313 -0.366040 0.037676 0
M  V30 39 C 3.189964 -1.281165 2.916565 0
M  V30 40 H 2.341341 0.305057 5.224510 0
M  V30 41 H 3.394462 -1.200453 5.313029 0
M  V30 42 H 1.705427 -1.291950 5.830766 0
M  V30 43 H 1.245804 0.544691 2.924507 0
M  V30 44 H 0.129983 -0.476890 3.961207 0
M  V30 45 H -0.249285 -2.073355 2.345122 0
M  V30 46 H -0.194167 -0.539672 1.385553 0
M  V30 47 H -1.651149 -2.174915 0.496143 0
M  V30 48 H -1.801104 -3.984663 0.259382 0
M  V30 49 H -4.938153 -1.611148 -1.633201 0
M  V30 50 H -2.824434 2.513402 -1.795732 0
M  V30 51 H -4.113916 4.458708 -1.154140 0
M  V30 52 H -6.103330 5.402095 -0.413596 0
M  V30 53 H -8.497666 5.118412 0.305669 0
M  V30 54 H -9.516915 2.835953 0.349867 0
M  V30 55 H -8.197381 0.886175 -0.301326 0
M  V30 56 H -1.025133 -3.776312 -4.453428 0
M  V30 57 H 0.879676 -5.034586 -3.106089 0
M  V30 58 H 1.574784 -3.423973 -2.596462 0
M  V30 59 H 1.833367 -5.002047 -1.631604 0
M  V30 60 H -1.722215 -5.470583 -1.113606 0
M  V30 61 H -0.112633 -6.318028 -1.365671 0
M  V30 62 H -0.458041 -5.495768 0.173294 0
M  V30 63 H 3.557919 -2.266938 1.038378 0
M  V30 64 H 2.608407 0.670781 0.983404 0
M  V30 65 H 3.105013 -0.323117 -0.398311 0
M  V30 66 H 4.521215 1.695572 2.368127 0
M  V30 67 H 6.946479 2.197782 2.456072 0
M  V30 68 H 8.499273 1.079369 1.002038 0
M  V30 69 H 7.644323 -0.639204 -0.627375 0
M  V30 70 H 5.301301 -1.126592 -0.696616 0
M  V30 71 H 3.805251 -0.373696 3.161544 0
M  V30 72 H 3.816485 -2.128726 3.312433 0
M  V30 END ATOM
M  V30 BEGIN BOND
M  V30 1 1 1 2
M  V30 2 1 2 3
M  V30 3 1 3 4
M  V30 4 1 4 5
M  V30 5 1 5 6
M  V30 6 2 6 7
M  V30 7 1 6 8
M  V30 8 1 8 9
M  V30 9 1 9 10
M  V30 10 1 10 11
M  V30 11 1 11 12
M  V30 12 1 12 13
M  V30 13 2 13 14
M  V30 14 1 13 15
M  V30 15 2 15 16
M  V30 16 1 16 17
M  V30 17 2 17 18
M  V30 18 1 18 19
M  V30 19 2 19 20
M  V30 20 1 20 21
M  V30 21 2 21 22
M  V30 22 1 22 23
M  V30 23 2 23 24
M  V30 24 2 11 25
M  V30 25 1 25 26
M  V30 26 1 26 27
M  V30 27 1 27 28
M  V30 28 1 28 29
M  V30 29 1 28 30
M  V30 30 1 5 31
M  V30 31 1 31 32
M  V30 32 1 32 33
M  V30 33 2 33 34
M  V30 34 1 34 35
M  V30 35 2 35 36
M  V30 36 1 36 37
M  V30 37 2 37 38
M  V30 38 1 31 39
M  V30 39 1 39 2
M  V30 40 1 28 8
M  V30 41 1 38 33
M  V30 42 2 27 10
M  V30 43 1 24 15
M  V30 44 1 23 18
M  V30 45 1 1 40
M  V30 46 1 1 41
M  V30 47 1 1 42
M  V30 48 1 3 43
M  V30 49 1 3 44
M  V30 50 1 4 45
M  V30 51 1 4 46
M  V30 52 1 9 47
M  V30 53 1 9 48
M  V30 54 1 12 49
M  V30 55 1 16 50
M  V30 56 1 17 51
M  V30 57 1 19 52
M  V30 58 1 20 53
M  V30 59 1 21 54
M  V30 60 1 22 55
M  V30 61 1 26 56
M  V30 62 1 29 57
M  V30 63 1 29 58
M  V30 64 1 29 59
M  V30 65 1 30 60
M  V30 66 1 30 61
M  V30 67 1 30 62
M  V30 68 1 31 63 CFG=3
M  V30 69 1 32 64
M  V30 70 1 32 65
M  V30 71 1 34 66
M  V30 72 1 35 67
M  V30 73 1 36 68
M  V30 74 1 37 69
M  V30 75 1 38 70
M  V30 76 1 39 71
M  V30 77 1 39 72
M  V30 END BOND
M  V30 END CTAB
M  END
>  <Dataset>  (977) 
ChEMBL_Kinases

>  <Ligand_Instance>  (977) 
nan

>  <PDB_ID>  (977) 
nan

>  <Standardized_SMILES>  (977) 
CN1CCN(C(=O)N2Cc3c(NC(=O)c4ccc5ccccc5n4)n[nH]c3C2(C)C)[C@@H](Cc2ccccc2)C1

>  <Name>  (977) 
nan

>  <Pocket>  (977) 
nan

>  <ATP_Site>  (977) 
nan

>  <Peripheral>  (977) 
nan

>  <Num_H_Atoms_ProtBoundConf>  (977) 
nan

>  <Num_Resolved_Atoms>  (977) 
nan

>  <Num_Not_Resolved_Atoms>  (977) 
nan

$$$$
CHEMBL3658628
     RDKit          3D

  0  0  0  0  0  0  0  0  0  0999 V3000
M  V30 BEGIN CTAB
M  V30 COUNTS 70 75 0 0 0
M  V30 BEGIN ATOM
M  V30 1 C 2.743435 -0.668083 4.900262 0
M  V30 2 N 2.183091 -0.176407 3.647729 0
M  V30 3 C 1.027574 -1.042366 3.359416 0
M  V30 4 C 0.514248 -0.575118 2.007232 0
M  V30 5 N 1.443663 -1.033174 1.005441 0
M  V30 6 C 1.422659 -1.987753 -0.069129 0
M  V30 7 O 2.515325 -2.050714 -0.707194 0
M  V30 8 N 0.462703 -2.894506 -0.601784 0
M  V30 9 C -0.920251 -3.262705 -0.301242 0
M  V30 10 C -1.613979 -3.150520 -1.608178 0
M  V30 11 C -2.759519 -2.855780 -2.345451 0
M  V30 12 N -3.975223 -2.430775 -1.699996 0
M  V30 13 C -3.961705 -1.011882 -1.598069 0
M  V30 14 O -2.954078 -0.417738 -2.060532 0
M  V30 15 C -5.031886 -0.217406 -0.997657 0
M  V30 16 C -4.956262 1.158969 -0.930831 0
M  V30 17 C -6.138757 1.571079 -0.302881 0
M  V30 18 C -6.609971 2.831077 0.030948 0
M  V30 19 C -7.836275 2.920803 0.656407 0
M  V30 20 C -8.556551 1.764944 0.931577 0
M  V30 21 C -8.094036 0.490645 0.601052 0
M  V30 22 C -6.864220 0.406046 -0.025786 0
M  V30 23 O -6.154524 -0.600662 -0.460586 0
M  V30 24 N -2.447288 -3.053424 -3.641463 0
M  V30 25 N -1.196790 -3.446681 -3.749893 0
M  V30 26 C -0.654393 -3.517014 -2.518090 0
M  V30 27 C 0.543355 -3.818924 -1.683773 0
M  V30 28 C 1.768113 -3.629108 -2.561083 0
M  V30 29 C 0.435696 -5.242906 -1.203726 0
M  V30 30 C 2.672020 -0.283408 1.221338 0 CFG=1
M  V30 31 C 2.513942 1.093096 0.631296 0
M  V30 32 C 3.757900 1.895290 0.828863 0
M  V30 33 C 4.062130 2.735882 1.878279 0
M  V30 34 C 5.264133 3.409717 1.913136 0
M  V30 35 C 6.218291 3.290990 0.925745 0
M  V30 36 C 5.965998 2.464521 -0.145450 0
M  V30 37 C 4.755898 1.806486 -0.148967 0
M  V30 38 C 3.180520 -0.309712 2.618959 0
M  V30 39 H 1.949589 -1.076946 5.580353 0
M  V30 40 H 3.393142 0.066842 5.405003 0
M  V30 41 H 3.373863 -1.556655 4.617028 0
M  V30 42 H 0.284167 -0.838911 4.130336 0
M  V30 43 H 1.286340 -2.101017 3.320511 0
M  V30 44 H 0.418872 0.531611 2.060949 0
M  V30 45 H -0.497102 -0.968375 1.892236 0
M  V30 46 H -0.922722 -4.300675 0.109968 0
M  V30 47 H -1.303652 -2.547627 0.425920 0
M  V30 48 H -4.801520 -2.945097 -1.322802 0
M  V30 49 H -4.200515 1.859044 -1.258608 0
M  V30 50 H -6.047699 3.728292 -0.184231 0
M  V30 51 H -8.200684 3.903393 0.915159 0
M  V30 52 H -9.529334 1.891432 1.432028 0
M  V30 53 H -8.688377 -0.379335 0.834533 0
M  V30 54 H -0.691144 -3.671911 -4.638936 0
M  V30 55 H 1.829002 -2.564872 -2.832941 0
M  V30 56 H 1.679005 -4.224343 -3.497646 0
M  V30 57 H 2.652958 -3.949823 -1.987737 0
M  V30 58 H 1.174031 -5.840609 -1.816438 0
M  V30 59 H -0.593254 -5.602028 -1.393364 0
M  V30 60 H 0.758754 -5.392334 -0.154416 0
M  V30 61 H 3.493346 -0.758480 0.584402 0
M  V30 62 H 1.672757 1.674381 1.019014 0
M  V30 63 H 2.393790 0.921742 -0.478470 0
M  V30 64 H 3.286577 2.804502 2.637612 0
M  V30 65 H 5.414452 4.056062 2.790482 0
M  V30 66 H 7.142643 3.831305 0.987042 0
M  V30 67 H 6.658610 2.317502 -0.956705 0
M  V30 68 H 4.563330 1.149794 -1.006847 0
M  V30 69 H 3.692368 -1.298030 2.836254 0
M  V30 70 H 3.915192 0.484064 2.772896 0
M  V30 END ATOM
M  V30 BEGIN BOND
M  V30 1 1 1 2
M  V30 2 1 2 3
M  V30 3 1 3 4
M  V30 4 1 4 5
M  V30 5 1 5 6
M  V30 6 2 6 7
M  V30 7 1 6 8
M  V30 8 1 8 9
M  V30 9 1 9 10
M  V30 10 1 10 11
M  V30 11 1 11 12
M  V30 12 1 12 13
M  V30 13 2 13 14
M  V30 14 1 13 15
M  V30 15 2 15 16
M  V30 16 1 16 17
M  V30 17 2 17 18
M  V30 18 1 18 19
M  V30 19 2 19 20
M  V30 20 1 20 21
M  V30 21 2 21 22
M  V30 22 1 22 23
M  V30 23 2 11 24
M  V30 24 1 24 25
M  V30 25 1 25 26
M  V30 26 1 26 27
M  V30 27 1 27 28
M  V30 28 1 27 29
M  V30 29 1 5 30
M  V30 30 1 30 31
M  V30 31 1 31 32
M  V30 32 2 32 33
M  V30 33 1 33 34
M  V30 34 2 34 35
M  V30 35 1 35 36
M  V30 36 2 36 37
M  V30 37 1 30 38
M  V30 38 1 38 2
M  V30 39 1 27 8
M  V30 40 1 37 32
M  V30 41 2 26 10
M  V30 42 1 23 15
M  V30 43 1 22 17
M  V30 44 1 1 39
M  V30 45 1 1 40
M  V30 46 1 1 41
M  V30 47 1 3 42
M  V30 48 1 3 43
M  V30 49 1 4 44
M  V30 50 1 4 45
M  V30 51 1 9 46
M  V30 52 1 9 47
M  V30 53 1 12 48
M  V30 54 1 16 49
M  V30 55 1 18 50
M  V30 56 1 19 51
M  V30 57 1 20 52
M  V30 58 1 21 53
M  V30 59 1 25 54
M  V30 60 1 28 55
M  V30 61 1 28 56
M  V30 62 1 28 57
M  V30 63 1 29 58
M  V30 64 1 29 59
M  V30 65 1 29 60
M  V30 66 1 30 61 CFG=3
M  V30 67 1 31 62
M  V30 68 1 31 63
M  V30 69 1 33 64
M  V30 70 1 34 65
M  V30 71 1 35 66
M  V30 72 1 36 67
M  V30 73 1 37 68
M  V30 74 1 38 69
M  V30 75 1 38 70
M  V30 END BOND
M  V30 END CTAB
M  END
>  <Dataset>  (978) 
ChEMBL_Kinases

>  <Ligand_Instance>  (978) 
nan

>  <PDB_ID>  (978) 
nan

>  <Standardized_SMILES>  (978) 
CN1CCN(C(=O)N2Cc3c(NC(=O)c4cc5ccccc5o4)n[nH]c3C2(C)C)[C@@H](Cc2ccccc2)C1

>  <Name>  (978) 
nan

>  <Pocket>  (978) 
nan

>  <ATP_Site>  (978) 
nan

>  <Peripheral>  (978) 
nan

>  <Num_H_Atoms_ProtBoundConf>  (978) 
nan

>  <Num_Resolved_Atoms>  (978) 
nan

>  <Num_Not_Resolved_Atoms>  (978) 
nan

$$$$
CHEMBL3658627
     RDKit          3D

  0  0  0  0  0  0  0  0  0  0999 V3000
M  V30 BEGIN CTAB
M  V30 COUNTS 64 68 0 0 0
M  V30 BEGIN ATOM
M  V30 1 C 4.430553 -2.169685 4.029069 0
M  V30 2 N 3.188604 -2.396662 3.356158 0
M  V30 3 C 3.197711 -3.466777 2.427575 0
M  V30 4 C 2.665401 -3.209207 1.072013 0
M  V30 5 N 1.736877 -2.107685 0.954085 0
M  V30 6 C 1.366127 -2.018625 -0.431256 0
M  V30 7 O 2.046397 -2.985740 -0.894071 0
M  V30 8 N 0.473455 -1.057830 -0.978171 0
M  V30 9 C -0.314047 0.054786 -0.478951 0
M  V30 10 C -1.094781 0.443660 -1.645184 0
M  V30 11 C -2.084049 1.284410 -2.109637 0
M  V30 12 N -2.772969 2.250573 -1.322200 0
M  V30 13 C -2.258202 3.571488 -1.223065 0
M  V30 14 O -1.197947 3.762381 -1.870276 0
M  V30 15 C -3.005788 4.521258 -0.401744 0
M  V30 16 C -2.727325 5.810674 -0.154305 0
M  V30 17 C -3.518025 6.576896 0.634367 0
M  V30 18 C -4.666011 5.870454 1.166781 0
M  V30 19 S -4.497557 4.177860 0.483648 0
M  V30 20 N -2.299169 1.052383 -3.418686 0
M  V30 21 N -1.478125 0.077186 -3.841171 0
M  V30 22 C -0.754898 -0.285148 -2.766738 0
M  V30 23 C 0.318160 -1.254825 -2.428192 0
M  V30 24 C 1.543563 -0.866586 -3.182440 0
M  V30 25 C -0.110788 -2.677388 -2.721082 0
M  V30 26 C 1.350152 -1.328619 2.129178 0 CFG=1
M  V30 27 C 0.388239 -2.059411 2.973106 0
M  V30 28 C -0.884943 -2.469782 2.447585 0
M  V30 29 C -0.945780 -3.731749 1.837286 0
M  V30 30 C -2.073317 -4.268694 1.293286 0
M  V30 31 C -3.244865 -3.515411 1.345855 0
M  V30 32 C -3.263880 -2.250692 1.936843 0
M  V30 33 C -2.077224 -1.789239 2.460526 0
M  V30 34 C 2.675227 -1.140339 2.885964 0
M  V30 35 H 4.723818 -2.975311 4.720378 0
M  V30 36 H 5.279926 -1.916846 3.359252 0
M  V30 37 H 4.284197 -1.252093 4.668520 0
M  V30 38 H 2.735216 -4.373716 2.915084 0
M  V30 39 H 4.280610 -3.781269 2.321090 0
M  V30 40 H 2.111358 -4.132058 0.753456 0
M  V30 41 H 3.512250 -3.118669 0.330428 0
M  V30 42 H -0.863090 -0.127407 0.431813 0
M  V30 43 H 0.454239 0.841605 -0.217428 0
M  V30 44 H -3.639627 1.882106 -0.864649 0
M  V30 45 H -1.828390 6.266009 -0.604206 0
M  V30 46 H -3.383171 7.617557 0.894321 0
M  V30 47 H -5.428031 6.424311 1.864744 0
M  V30 48 H -1.426345 -0.308963 -4.813333 0
M  V30 49 H 1.234898 -0.463622 -4.169475 0
M  V30 50 H 2.209544 -1.726289 -3.399358 0
M  V30 51 H 2.083606 -0.034490 -2.679591 0
M  V30 52 H -0.726004 -2.675612 -3.646577 0
M  V30 53 H -0.718842 -3.078381 -1.893341 0
M  V30 54 H 0.734832 -3.354539 -2.878539 0
M  V30 55 H 1.098301 -0.331561 1.793443 0
M  V30 56 H 0.889889 -2.942545 3.420119 0
M  V30 57 H 0.179660 -1.400745 3.870272 0
M  V30 58 H -0.075363 -4.376738 1.757958 0
M  V30 59 H -2.120446 -5.227044 0.829537 0
M  V30 60 H -4.186952 -3.860591 0.940117 0
M  V30 61 H -4.153306 -1.639535 1.995319 0
M  V30 62 H -2.061705 -0.816610 2.922841 0
M  V30 63 H 2.528161 -0.468971 3.753506 0
M  V30 64 H 3.370455 -0.637277 2.191856 0
M  V30 END ATOM
M  V30 BEGIN BOND
M  V30 1 1 1 2
M  V30 2 1 2 3
M  V30 3 1 3 4
M  V30 4 1 4 5
M  V30 5 1 5 6
M  V30 6 2 6 7
M  V30 7 1 6 8
M  V30 8 1 8 9
M  V30 9 1 9 10
M  V30 10 1 10 11
M  V30 11 1 11 12
M  V30 12 1 12 13
M  V30 13 2 13 14
M  V30 14 1 13 15
M  V30 15 2 15 16
M  V30 16 1 16 17
M  V30 17 2 17 18
M  V30 18 1 18 19
M  V30 19 2 11 20
M  V30 20 1 20 21
M  V30 21 1 21 22
M  V30 22 1 22 23
M  V30 23 1 23 24
M  V30 24 1 23 25
M  V30 25 1 5 26
M  V30 26 1 26 27
M  V30 27 1 27 28
M  V30 28 2 28 29
M  V30 29 1 29 30
M  V30 30 2 30 31
M  V30 31 1 31 32
M  V30 32 2 32 33
M  V30 33 1 26 34
M  V30 34 1 34 2
M  V30 35 1 23 8
M  V30 36 1 33 28
M  V30 37 2 22 10
M  V30 38 1 19 15
M  V30 39 1 1 35
M  V30 40 1 1 36
M  V30 41 1 1 37
M  V30 42 1 3 38
M  V30 43 1 3 39
M  V30 44 1 4 40
M  V30 45 1 4 41
M  V30 46 1 9 42
M  V30 47 1 9 43
M  V30 48 1 12 44
M  V30 49 1 16 45
M  V30 50 1 17 46
M  V30 51 1 18 47
M  V30 52 1 21 48
M  V30 53 1 24 49
M  V30 54 1 24 50
M  V30 55 1 24 51
M  V30 56 1 25 52
M  V30 57 1 25 53
M  V30 58 1 25 54
M  V30 59 1 26 55 CFG=3
M  V30 60 1 27 56
M  V30 61 1 27 57
M  V30 62 1 29 58
M  V30 63 1 30 59
M  V30 64 1 31 60
M  V30 65 1 32 61
M  V30 66 1 33 62
M  V30 67 1 34 63
M  V30 68 1 34 64
M  V30 END BOND
M  V30 END CTAB
M  END
>  <Dataset>  (979) 
ChEMBL_Kinases

>  <Ligand_Instance>  (979) 
nan

>  <PDB_ID>  (979) 
nan

>  <Standardized_SMILES>  (979) 
CN1CCN(C(=O)N2Cc3c(NC(=O)c4cccs4)n[nH]c3C2(C)C)[C@@H](Cc2ccccc2)C1

>  <Name>  (979) 
nan

>  <Pocket>  (979) 
nan

>  <ATP_Site>  (979) 
nan

>  <Peripheral>  (979) 
nan

>  <Num_H_Atoms_ProtBoundConf>  (979) 
nan

>  <Num_Resolved_Atoms>  (979) 
nan

>  <Num_Not_Resolved_Atoms>  (979) 
nan

$$$$
CHEMBL3658625
     RDKit          3D

  0  0  0  0  0  0  0  0  0  0999 V3000
M  V30 BEGIN CTAB
M  V30 COUNTS 70 75 0 0 0
M  V30 BEGIN ATOM
M  V30 1 C -2.594434 0.783506 3.953345 0
M  V30 2 N -1.419674 0.766684 3.104306 0
M  V30 3 C -1.898985 0.840355 1.725619 0
M  V30 4 C -0.816798 1.449680 0.839715 0
M  V30 5 N 0.497842 1.221556 1.419407 0
M  V30 6 C 1.664814 0.404411 1.162085 0
M  V30 7 O 2.654269 0.554409 1.970701 0
M  V30 8 N 1.892279 -0.560593 0.130352 0
M  V30 9 C 1.173158 -1.133255 -0.997723 0
M  V30 10 C 1.396884 -2.606189 -0.774253 0
M  V30 11 C 2.631138 -2.708233 -0.180294 0
M  V30 12 N 2.809494 -4.029355 0.010832 0
M  V30 13 N 1.774658 -4.716239 -0.425006 0
M  V30 14 C 0.859486 -3.882681 -0.926539 0
M  V30 15 N -0.433675 -4.102669 -1.522777 0
M  V30 16 C -1.548269 -4.107932 -0.641214 0
M  V30 17 O -1.186054 -3.911483 0.547917 0
M  V30 18 C -2.869823 -4.315805 -1.124637 0
M  V30 19 C -4.097725 -4.373323 -0.551494 0
M  V30 20 C -5.207778 -4.596183 -1.326947 0
M  V30 21 C -6.514264 -4.680522 -0.891764 0
M  V30 22 C -7.496719 -4.908595 -1.811364 0
M  V30 23 C -7.321313 -5.068570 -3.166274 0
M  V30 24 C -6.016496 -4.984423 -3.601120 0
M  V30 25 C -5.020639 -4.754291 -2.677348 0
M  V30 26 S -3.222083 -4.590348 -2.913262 0
M  V30 27 C 3.090472 -1.307877 -0.076224 0
M  V30 28 C 4.099426 -1.199693 1.051426 0
M  V30 29 C 3.764455 -0.940704 -1.381784 0
M  V30 30 C 0.592168 2.085525 2.585690 0 CFG=1
M  V30 31 C 0.836747 3.528832 2.238714 0
M  V30 32 C 2.089278 3.733441 1.489306 0
M  V30 33 C 3.330191 3.988180 2.059289 0
M  V30 34 C 4.440512 4.163649 1.259297 0
M  V30 35 C 4.373763 4.095938 -0.120805 0
M  V30 36 C 3.142533 3.843299 -0.685014 0
M  V30 37 C 2.028963 3.666969 0.109444 0
M  V30 38 C -0.703361 1.989202 3.346039 0
M  V30 39 H -3.294816 -0.024996 3.613482 0
M  V30 40 H -3.090708 1.765387 3.955768 0
M  V30 41 H -2.273019 0.511972 4.984536 0
M  V30 42 H -2.181458 -0.184591 1.413402 0
M  V30 43 H -2.771520 1.522177 1.664597 0
M  V30 44 H -0.988181 2.536971 0.728211 0
M  V30 45 H -0.942864 1.031422 -0.170624 0
M  V30 46 H 0.087822 -0.904127 -0.932744 0
M  V30 47 H 1.632295 -0.771139 -1.923143 0
M  V30 48 H 1.620389 -5.749019 -0.414990 0
M  V30 49 H -0.560499 -4.254471 -2.566683 0
M  V30 50 H -4.080856 -4.230002 0.520663 0
M  V30 51 H -6.803898 -4.574471 0.149487 0
M  V30 52 H -8.532250 -4.974170 -1.458393 0
M  V30 53 H -8.109625 -5.248734 -3.881443 0
M  V30 54 H -5.709031 -5.087611 -4.635548 0
M  V30 55 H 4.885513 -1.974434 0.793786 0
M  V30 56 H 3.665616 -1.530664 1.992525 0
M  V30 57 H 4.619882 -0.244796 1.040197 0
M  V30 58 H 3.455353 0.071416 -1.671816 0
M  V30 59 H 4.869785 -1.040538 -1.288384 0
M  V30 60 H 3.445037 -1.637070 -2.180717 0
M  V30 61 H 1.396782 1.755689 3.284178 0
M  V30 62 H 0.978861 4.059530 3.225800 0
M  V30 63 H -0.054528 3.990000 1.797548 0
M  V30 64 H 3.308537 4.027415 3.139041 0
M  V30 65 H 5.361770 4.357435 1.792219 0
M  V30 66 H 5.281211 4.242470 -0.694047 0
M  V30 67 H 3.129583 3.796839 -1.777047 0
M  V30 68 H 1.106225 3.471795 -0.456783 0
M  V30 69 H -0.579398 2.208385 4.426677 0
M  V30 70 H -1.364676 2.810930 2.941110 0
M  V30 END ATOM
M  V30 BEGIN BOND
M  V30 1 1 1 2
M  V30 2 1 2 3
M  V30 3 1 3 4
M  V30 4 1 4 5
M  V30 5 1 5 6
M  V30 6 2 6 7
M  V30 7 1 6 8
M  V30 8 1 8 9
M  V30 9 1 9 10
M  V30 10 1 10 11
M  V30 11 2 11 12
M  V30 12 1 12 13
M  V30 13 1 13 14
M  V30 14 1 14 15
M  V30 15 1 15 16
M  V30 16 2 16 17
M  V30 17 1 16 18
M  V30 18 2 18 19
M  V30 19 1 19 20
M  V30 20 2 20 21
M  V30 21 1 21 22
M  V30 22 2 22 23
M  V30 23 1 23 24
M  V30 24 2 24 25
M  V30 25 1 25 26
M  V30 26 1 11 27
M  V30 27 1 27 28
M  V30 28 1 27 29
M  V30 29 1 5 30
M  V30 30 1 30 31
M  V30 31 1 31 32
M  V30 32 2 32 33
M  V30 33 1 33 34
M  V30 34 2 34 35
M  V30 35 1 35 36
M  V30 36 2 36 37
M  V30 37 1 30 38
M  V30 38 1 38 2
M  V30 39 1 27 8
M  V30 40 1 37 32
M  V30 41 2 14 10
M  V30 42 1 26 18
M  V30 43 1 25 20
M  V30 44 1 1 39
M  V30 45 1 1 40
M  V30 46 1 1 41
M  V30 47 1 3 42
M  V30 48 1 3 43
M  V30 49 1 4 44
M  V30 50 1 4 45
M  V30 51 1 9 46
M  V30 52 1 9 47
M  V30 53 1 13 48
M  V30 54 1 15 49
M  V30 55 1 19 50
M  V30 56 1 21 51
M  V30 57 1 22 52
M  V30 58 1 23 53
M  V30 59 1 24 54
M  V30 60 1 28 55
M  V30 61 1 28 56
M  V30 62 1 28 57
M  V30 63 1 29 58
M  V30 64 1 29 59
M  V30 65 1 29 60
M  V30 66 1 30 61 CFG=1
M  V30 67 1 31 62
M  V30 68 1 31 63
M  V30 69 1 33 64
M  V30 70 1 34 65
M  V30 71 1 35 66
M  V30 72 1 36 67
M  V30 73 1 37 68
M  V30 74 1 38 69
M  V30 75 1 38 70
M  V30 END BOND
M  V30 END CTAB
M  END
>  <Dataset>  (980) 
ChEMBL_Kinases

>  <Ligand_Instance>  (980) 
nan

>  <PDB_ID>  (980) 
nan

>  <Standardized_SMILES>  (980) 
CN1CCN(C(=O)N2Cc3c(n[nH]c3NC(=O)c3cc4ccccc4s3)C2(C)C)[C@@H](Cc2ccccc2)C1

>  <Name>  (980) 
nan

>  <Pocket>  (980) 
nan

>  <ATP_Site>  (980) 
nan

>  <Peripheral>  (980) 
nan

>  <Num_H_Atoms_ProtBoundConf>  (980) 
nan

>  <Num_Resolved_Atoms>  (980) 
nan

>  <Num_Not_Resolved_Atoms>  (980) 
nan

$$$$
CHEMBL3658624
     RDKit          3D

  0  0  0  0  0  0  0  0  0  0999 V3000
M  V30 BEGIN CTAB
M  V30 COUNTS 82 88 0 0 0
M  V30 BEGIN ATOM
M  V30 1 C -0.372784 -3.878706 3.051825 0
M  V30 2 C -0.386740 -3.574988 1.565660 0
M  V30 3 C -0.397472 -4.815633 0.787227 0
M  V30 4 C -1.597532 -2.712103 1.344391 0
M  V30 5 N -2.861685 -2.717301 0.933324 0
M  V30 6 N -3.350875 -1.503555 1.031801 0
M  V30 7 C -2.391864 -0.697358 1.512464 0
M  V30 8 N -2.644471 0.675290 1.713593 0
M  V30 9 C -1.888475 1.698522 2.332453 0
M  V30 10 O -0.776872 1.387994 2.822358 0
M  V30 11 C -2.267894 3.095755 2.466360 0
M  V30 12 C -1.485934 3.924374 3.225063 0
M  V30 13 C -1.807619 5.274149 3.375828 0
M  V30 14 C -2.915506 5.819024 2.769166 0
M  V30 15 C -3.714597 4.988311 1.996482 0
M  V30 16 O -4.822208 5.572456 1.399377 0
M  V30 17 C -5.645090 4.831331 0.577986 0
M  V30 18 C -5.428007 4.738856 -0.802590 0
M  V30 19 C -6.225271 4.011185 -1.667864 0
M  V30 20 C -7.286619 3.341748 -1.145825 0
M  V30 21 C -7.518144 3.420916 0.216029 0
M  V30 22 C -6.733787 4.142294 1.093647 0
M  V30 23 C -3.371753 3.658978 1.866521 0
M  V30 24 C -1.249504 -1.429030 1.726756 0
M  V30 25 C 0.166868 -1.499354 2.150588 0
M  V30 26 N 0.623762 -2.587825 1.243113 0
M  V30 27 C 1.574306 -2.946409 0.286170 0
M  V30 28 O 1.670179 -1.788516 0.758172 0
M  V30 29 N 2.701908 -2.718420 -0.544796 0
M  V30 30 C 2.721843 -4.041221 -1.173692 0
M  V30 31 C 3.937513 -4.175968 -2.088398 0 CFG=2
M  V30 32 C 4.104652 -5.675431 -2.324475 0
M  V30 33 C 5.358358 -6.079122 -1.598848 0
M  V30 34 C 5.658372 -4.856401 -0.735617 0
M  V30 35 N 5.162132 -3.750386 -1.507118 0
M  V30 36 C 5.116407 -2.551264 -0.723710 0
M  V30 37 C 3.764804 -1.902203 -1.022940 0 CFG=2
M  V30 38 C 3.775081 -0.443000 -0.808325 0
M  V30 39 C 2.691156 0.344177 -1.405016 0
M  V30 40 C 2.893141 0.636647 -2.763918 0
M  V30 41 C 2.075651 1.370596 -3.580191 0
M  V30 42 C 0.910966 1.905327 -3.045169 0
M  V30 43 C 0.647310 1.663477 -1.720095 0
M  V30 44 C 1.515034 0.918653 -0.975838 0
M  V30 45 H -0.775579 -4.908812 3.171626 0
M  V30 46 H -1.070730 -3.232900 3.627520 0
M  V30 47 H 0.647392 -3.879477 3.481349 0
M  V30 48 H -1.092114 -5.533742 1.290252 0
M  V30 49 H -0.862795 -4.644758 -0.209597 0
M  V30 50 H 0.576775 -5.314310 0.739177 0
M  V30 51 H -3.419566 -3.540977 0.578592 0
M  V30 52 H -3.545916 1.105799 1.363933 0
M  V30 53 H -0.604375 3.588395 3.733861 0
M  V30 54 H -1.189542 5.922222 3.975393 0
M  V30 55 H -3.129595 6.870688 2.912829 0
M  V30 56 H -4.560886 5.300039 -1.137068 0
M  V30 57 H -5.954973 4.018067 -2.723238 0
M  V30 58 H -7.929764 2.761868 -1.800197 0
M  V30 59 H -8.375282 2.875531 0.628410 0
M  V30 60 H -6.915786 4.202630 2.160997 0
M  V30 61 H -4.027848 3.057347 1.252973 0
M  V30 62 H 0.760065 -0.599796 1.957900 0
M  V30 63 H 0.298897 -1.790583 3.214095 0
M  V30 64 H 1.845067 -4.267379 -1.789809 0
M  V30 65 H 2.870301 -4.867839 -0.423054 0
M  V30 66 H 3.713415 -3.762151 -3.099418 0
M  V30 67 H 4.180974 -5.902324 -3.408190 0
M  V30 68 H 3.218099 -6.245731 -1.946295 0
M  V30 69 H 5.249987 -6.998923 -1.016862 0
M  V30 70 H 6.185937 -6.154168 -2.340525 0
M  V30 71 H 5.232177 -4.933838 0.274834 0
M  V30 72 H 6.766315 -4.759941 -0.620508 0
M  V30 73 H 5.883676 -1.848212 -1.098698 0
M  V30 74 H 5.265217 -2.721902 0.355389 0
M  V30 75 H 3.696355 -2.004427 -2.174874 0
M  V30 76 H 3.778253 -0.178982 0.287031 0
M  V30 77 H 4.752078 -0.063733 -1.247431 0
M  V30 78 H 3.761460 0.278700 -3.306594 0
M  V30 79 H 2.248609 1.578073 -4.621805 0
M  V30 80 H 0.174344 2.501138 -3.551680 0
M  V30 81 H -0.226275 2.025172 -1.192572 0
M  V30 82 H 1.340511 0.734208 0.064042 0
M  V30 END ATOM
M  V30 BEGIN BOND
M  V30 1 1 1 2
M  V30 2 1 2 3
M  V30 3 1 2 4
M  V30 4 1 4 5
M  V30 5 1 5 6
M  V30 6 2 6 7
M  V30 7 1 7 8
M  V30 8 1 8 9
M  V30 9 2 9 10
M  V30 10 1 9 11
M  V30 11 2 11 12
M  V30 12 1 12 13
M  V30 13 2 13 14
M  V30 14 1 14 15
M  V30 15 1 15 16
M  V30 16 1 16 17
M  V30 17 2 17 18
M  V30 18 1 18 19
M  V30 19 2 19 20
M  V30 20 1 20 21
M  V30 21 2 21 22
M  V30 22 2 15 23
M  V30 23 1 7 24
M  V30 24 1 24 25
M  V30 25 1 25 26
M  V30 26 1 26 27
M  V30 27 2 27 28
M  V30 28 1 27 29
M  V30 29 1 29 30
M  V30 30 1 30 31
M  V30 31 1 31 32
M  V30 32 1 32 33
M  V30 33 1 33 34
M  V30 34 1 34 35
M  V30 35 1 35 36
M  V30 36 1 36 37
M  V30 37 1 37 38
M  V30 38 1 38 39
M  V30 39 2 39 40
M  V30 40 1 40 41
M  V30 41 2 41 42
M  V30 42 1 42 43
M  V30 43 2 43 44
M  V30 44 1 26 2
M  V30 45 1 37 29
M  V30 46 1 44 39
M  V30 47 2 24 4
M  V30 48 1 35 31
M  V30 49 1 23 11
M  V30 50 1 22 17
M  V30 51 1 1 45
M  V30 52 1 1 46
M  V30 53 1 1 47
M  V30 54 1 3 48
M  V30 55 1 3 49
M  V30 56 1 3 50
M  V30 57 1 5 51
M  V30 58 1 8 52
M  V30 59 1 12 53
M  V30 60 1 13 54
M  V30 61 1 14 55
M  V30 62 1 18 56
M  V30 63 1 19 57
M  V30 64 1 20 58
M  V30 65 1 21 59
M  V30 66 1 22 60
M  V30 67 1 23 61
M  V30 68 1 25 62
M  V30 69 1 25 63
M  V30 70 1 30 64
M  V30 71 1 30 65
M  V30 72 1 31 66 CFG=3
M  V30 73 1 32 67
M  V30 74 1 32 68
M  V30 75 1 33 69
M  V30 76 1 33 70
M  V30 77 1 34 71
M  V30 78 1 34 72
M  V30 79 1 36 73
M  V30 80 1 36 74
M  V30 81 1 37 75 CFG=3
M  V30 82 1 38 76
M  V30 83 1 38 77
M  V30 84 1 40 78
M  V30 85 1 41 79
M  V30 86 1 42 80
M  V30 87 1 43 81
M  V30 88 1 44 82
M  V30 END BOND
M  V30 END CTAB
M  END
>  <Dataset>  (981) 
ChEMBL_Kinases

>  <Ligand_Instance>  (981) 
nan

>  <PDB_ID>  (981) 
nan

>  <Standardized_SMILES>  (981) 
CC1(C)c2[nH]nc(NC(=O)c3cccc(Oc4ccccc4)c3)c2CN1C(=O)N1C[C@@H]2CCCN2C[C@@H]1Cc1ccccc1

>  <Name>  (981) 
nan

>  <Pocket>  (981) 
nan

>  <ATP_Site>  (981) 
nan

>  <Peripheral>  (981) 
nan

>  <Num_H_Atoms_ProtBoundConf>  (981) 
nan

>  <Num_Resolved_Atoms>  (981) 
nan

>  <Num_Not_Resolved_Atoms>  (981) 
nan

$$$$
CHEMBL3658623
     RDKit          3D

  0  0  0  0  0  0  0  0  0  0999 V3000
M  V30 BEGIN CTAB
M  V30 COUNTS 66 70 0 0 0
M  V30 BEGIN ATOM
M  V30 1 C 2.367479 2.198451 3.386435 0
M  V30 2 C 2.089443 2.134787 1.892253 0 CFG=1
M  V30 3 C 3.164714 1.357556 1.165169 0
M  V30 4 N 3.346466 0.110239 1.864006 0
M  V30 5 C 4.328528 -0.633517 1.102372 0
M  V30 6 C 2.132721 -0.621625 2.064133 0
M  V30 7 C 2.343572 -1.558899 3.234042 0
M  V30 8 C 1.064786 -2.398132 3.131637 0
M  V30 9 C 0.771804 -2.481763 1.658907 0
M  V30 10 C 1.806215 -1.600045 0.955182 0
M  V30 11 C 0.938679 0.222091 2.366640 0
M  V30 12 N 0.849196 1.433760 1.586876 0
M  V30 13 C -0.055924 2.082750 0.664477 0
M  V30 14 O 0.338431 3.219510 0.216997 0
M  V30 15 N -1.338605 1.623122 0.182702 0
M  V30 16 C -2.269385 0.517087 0.297002 0
M  V30 17 C -2.522533 0.127715 -1.090874 0
M  V30 18 C -2.786380 -0.835410 -2.046144 0
M  V30 19 N -2.916880 -2.225486 -1.731672 0
M  V30 20 C -1.756387 -3.055486 -1.760042 0
M  V30 21 O -0.666226 -2.499589 -2.066967 0
M  V30 22 C -1.894379 -4.464710 -1.440228 0
M  V30 23 C -0.735974 -5.218547 -1.484341 0
M  V30 24 C -0.833028 -6.571459 -1.183523 0
M  V30 25 C -2.079581 -7.098914 -0.855177 0
M  V30 26 C -3.213970 -6.313222 -0.821939 0
M  V30 27 N -3.082776 -5.011869 -1.117896 0
M  V30 28 N -2.883172 -0.219029 -3.231956 0
M  V30 29 N -2.698623 1.078760 -3.101719 0
M  V30 30 C -2.473943 1.313146 -1.784141 0
M  V30 31 C -2.187556 2.338866 -0.744410 0
M  V30 32 C -3.454675 2.824543 -0.092452 0
M  V30 33 C -1.500127 3.520977 -1.402756 0
M  V30 34 H 1.444290 2.406299 3.962223 0
M  V30 35 H 2.805356 1.252458 3.742133 0
M  V30 36 H 3.138061 2.990722 3.603411 0
M  V30 37 H 2.036669 3.193458 1.491113 0
M  V30 38 H 2.781047 1.166534 0.133837 0
M  V30 39 H 4.142044 1.876941 1.157745 0
M  V30 40 H 5.226271 0.016497 1.038722 0
M  V30 41 H 4.619095 -1.545469 1.633790 0
M  V30 42 H 4.005508 -0.805989 0.059573 0
M  V30 43 H 2.428793 -1.069911 4.202568 0
M  V30 44 H 3.169007 -2.265049 3.050243 0
M  V30 45 H 1.212431 -3.392884 3.607020 0
M  V30 46 H 0.244338 -1.895577 3.696935 0
M  V30 47 H -0.266670 -2.224770 1.382938 0
M  V30 48 H 0.891107 -3.558092 1.346534 0
M  V30 49 H 2.647555 -2.277942 0.734304 0
M  V30 50 H 1.389258 -1.123749 0.049742 0
M  V30 51 H 0.887114 0.526730 3.440181 0
M  V30 52 H 0.023103 -0.367625 2.200745 0
M  V30 53 H -1.922456 -0.312232 0.933614 0
M  V30 54 H -3.199284 0.917494 0.791131 0
M  V30 55 H -3.869744 -2.556050 -1.495995 0
M  V30 56 H 0.236490 -4.833111 -1.735022 0
M  V30 57 H -0.021848 -7.269559 -1.178692 0
M  V30 58 H -2.249990 -8.153478 -0.604143 0
M  V30 59 H -4.179257 -6.719901 -0.568016 0
M  V30 60 H -2.715968 1.817648 -3.855275 0
M  V30 61 H -4.297452 2.158009 -0.360252 0
M  V30 62 H -3.307834 2.925461 0.993374 0
M  V30 63 H -3.717068 3.819097 -0.525805 0
M  V30 64 H -2.209173 3.844366 -2.220863 0
M  V30 65 H -1.430962 4.367554 -0.707274 0
M  V30 66 H -0.574959 3.222161 -1.895894 0
M  V30 END ATOM
M  V30 BEGIN BOND
M  V30 1 1 1 2
M  V30 2 1 2 3
M  V30 3 1 3 4
M  V30 4 1 4 5
M  V30 5 1 4 6
M  V30 6 1 6 7
M  V30 7 1 7 8
M  V30 8 1 8 9
M  V30 9 1 9 10
M  V30 10 1 6 11
M  V30 11 1 11 12
M  V30 12 1 12 13
M  V30 13 2 13 14
M  V30 14 1 13 15
M  V30 15 1 15 16
M  V30 16 1 16 17
M  V30 17 1 17 18
M  V30 18 1 18 19
M  V30 19 1 19 20
M  V30 20 2 20 21
M  V30 21 1 20 22
M  V30 22 2 22 23
M  V30 23 1 23 24
M  V30 24 2 24 25
M  V30 25 1 25 26
M  V30 26 2 26 27
M  V30 27 2 18 28
M  V30 28 1 28 29
M  V30 29 1 29 30
M  V30 30 1 30 31
M  V30 31 1 31 32
M  V30 32 1 31 33
M  V30 33 1 12 2
M  V30 34 1 31 15
M  V30 35 1 10 6
M  V30 36 2 30 17
M  V30 37 1 27 22
M  V30 38 1 1 34
M  V30 39 1 1 35
M  V30 40 1 1 36
M  V30 41 1 2 37 CFG=3
M  V30 42 1 3 38
M  V30 43 1 3 39
M  V30 44 1 5 40
M  V30 45 1 5 41
M  V30 46 1 5 42
M  V30 47 1 7 43
M  V30 48 1 7 44
M  V30 49 1 8 45
M  V30 50 1 8 46
M  V30 51 1 9 47
M  V30 52 1 9 48
M  V30 53 1 10 49
M  V30 54 1 10 50
M  V30 55 1 11 51
M  V30 56 1 11 52
M  V30 57 1 16 53
M  V30 58 1 16 54
M  V30 59 1 19 55
M  V30 60 1 23 56
M  V30 61 1 24 57
M  V30 62 1 25 58
M  V30 63 1 26 59
M  V30 64 1 29 60
M  V30 65 1 32 61
M  V30 66 1 32 62
M  V30 67 1 32 63
M  V30 68 1 33 64
M  V30 69 1 33 65
M  V30 70 1 33 66
M  V30 END BOND
M  V30 END CTAB
M  END
>  <Dataset>  (982) 
ChEMBL_Kinases

>  <Ligand_Instance>  (982) 
nan

>  <PDB_ID>  (982) 
nan

>  <Standardized_SMILES>  (982) 
C[C@H]1CN(C)C2(CCCC2)CN1C(=O)N1Cc2c(NC(=O)c3ccccn3)n[nH]c2C1(C)C

>  <Name>  (982) 
nan

>  <Pocket>  (982) 
nan

>  <ATP_Site>  (982) 
nan

>  <Peripheral>  (982) 
nan

>  <Num_H_Atoms_ProtBoundConf>  (982) 
nan

>  <Num_Resolved_Atoms>  (982) 
nan

>  <Num_Not_Resolved_Atoms>  (982) 
nan

$$$$
CHEMBL3658622
     RDKit          3D

  0  0  0  0  0  0  0  0  0  0999 V3000
M  V30 BEGIN CTAB
M  V30 COUNTS 61 65 0 0 0
M  V30 BEGIN ATOM
M  V30 1 C -0.566146 3.006883 1.781869 0
M  V30 2 C 0.869138 2.656760 1.993886 0 CFG=1
M  V30 3 C 1.143714 2.170092 3.382660 0
M  V30 4 N 2.446104 1.699140 3.619392 0
M  V30 5 C 2.434621 0.573761 4.507692 0
M  V30 6 C 3.636446 -0.281548 4.180344 0
M  V30 7 C 4.054381 0.162935 2.814982 0
M  V30 8 C 3.345208 1.491906 2.567128 0 CFG=1
M  V30 9 C 2.845620 1.609374 1.169460 0
M  V30 10 N 1.371506 1.613573 1.109934 0
M  V30 11 C 0.357612 0.904198 0.447531 0
M  V30 12 O -0.899374 0.892197 0.394724 0
M  V30 13 N 0.424267 -0.154063 -0.488151 0
M  V30 14 C -0.915952 -0.585189 -0.890359 0
M  V30 15 C -0.688171 -1.720732 -1.801667 0
M  V30 16 C -1.270663 -2.671914 -2.566184 0
M  V30 17 C -2.748995 -2.872924 -2.731017 0
M  V30 18 C -3.199172 -3.536877 -1.467726 0
M  V30 19 O -2.229007 -3.710482 -0.693711 0
M  V30 20 C -4.604490 -3.888051 -1.275566 0
M  V30 21 C -4.808011 -4.501933 -0.037844 0
M  V30 22 C -6.068253 -4.918741 0.353689 0
M  V30 23 C -7.127461 -4.721321 -0.494555 0
M  V30 24 C -6.867906 -4.104199 -1.717033 0
M  V30 25 N -5.639217 -3.697743 -2.098656 0
M  V30 26 N -0.348592 -3.437788 -3.177656 0
M  V30 27 N 0.820099 -2.955472 -2.787488 0
M  V30 28 C 0.643724 -1.915628 -1.954149 0
M  V30 29 C 1.452106 -0.921609 -1.157235 0
M  V30 30 C 2.235419 -0.143686 -2.165724 0
M  V30 31 C 2.286852 -1.748121 -0.217791 0
M  V30 32 H -0.742169 3.199204 0.695698 0
M  V30 33 H -1.299368 2.348806 2.248233 0
M  V30 34 H -0.712180 4.012948 2.272913 0
M  V30 35 H 1.481376 3.600214 1.880792 0
M  V30 36 H 0.346791 1.435834 3.703242 0
M  V30 37 H 0.962169 3.040798 4.071297 0
M  V30 38 H 2.564145 0.899495 5.567044 0
M  V30 39 H 1.510749 -0.043240 4.447369 0
M  V30 40 H 4.486030 -0.128713 4.896295 0
M  V30 41 H 3.381001 -1.350187 4.253076 0
M  V30 42 H 3.712993 -0.614459 2.103664 0
M  V30 43 H 5.152912 0.234106 2.701916 0
M  V30 44 H 4.174783 2.251510 2.690006 0
M  V30 45 H 3.128589 2.601220 0.764083 0
M  V30 46 H 3.300952 0.861562 0.521928 0
M  V30 47 H -1.526108 -0.877959 0.001724 0
M  V30 48 H -1.430668 0.252213 -1.401220 0
M  V30 49 H -2.962146 -3.594906 -3.543500 0
M  V30 50 H -3.247909 -1.921435 -2.921051 0
M  V30 51 H -4.043758 -4.705926 0.706097 0
M  V30 52 H -6.292747 -5.400694 1.299537 0
M  V30 53 H -8.148578 -5.022958 -0.255481 0
M  V30 54 H -7.658117 -3.925520 -2.417343 0
M  V30 55 H 1.762460 -3.329511 -3.084594 0
M  V30 56 H 1.520274 0.577564 -2.631641 0
M  V30 57 H 3.100475 0.400136 -1.806898 0
M  V30 58 H 2.503146 -0.844136 -3.007563 0
M  V30 59 H 3.333642 -1.399557 -0.307810 0
M  V30 60 H 2.284553 -2.835728 -0.447883 0
M  V30 61 H 1.943484 -1.674100 0.834719 0
M  V30 END ATOM
M  V30 BEGIN BOND
M  V30 1 1 1 2
M  V30 2 1 2 3
M  V30 3 1 3 4
M  V30 4 1 4 5
M  V30 5 1 5 6
M  V30 6 1 6 7
M  V30 7 1 7 8
M  V30 8 1 8 9
M  V30 9 1 9 10
M  V30 10 1 10 11
M  V30 11 2 11 12
M  V30 12 1 11 13
M  V30 13 1 13 14
M  V30 14 1 14 15
M  V30 15 1 15 16
M  V30 16 1 16 17
M  V30 17 1 17 18
M  V30 18 2 18 19
M  V30 19 1 18 20
M  V30 20 2 20 21
M  V30 21 1 21 22
M  V30 22 2 22 23
M  V30 23 1 23 24
M  V30 24 2 24 25
M  V30 25 2 16 26
M  V30 26 1 26 27
M  V30 27 1 27 28
M  V30 28 1 28 29
M  V30 29 1 29 30
M  V30 30 1 29 31
M  V30 31 1 10 2
M  V30 32 1 29 13
M  V30 33 1 8 4
M  V30 34 2 28 15
M  V30 35 1 25 20
M  V30 36 1 1 32
M  V30 37 1 1 33
M  V30 38 1 1 34
M  V30 39 1 2 35 CFG=3
M  V30 40 1 3 36
M  V30 41 1 3 37
M  V30 42 1 5 38
M  V30 43 1 5 39
M  V30 44 1 6 40
M  V30 45 1 6 41
M  V30 46 1 7 42
M  V30 47 1 7 43
M  V30 48 1 8 44 CFG=1
M  V30 49 1 9 45
M  V30 50 1 9 46
M  V30 51 1 14 47
M  V30 52 1 14 48
M  V30 53 1 17 49
M  V30 54 1 17 50
M  V30 55 1 21 51
M  V30 56 1 22 52
M  V30 57 1 23 53
M  V30 58 1 24 54
M  V30 59 1 27 55
M  V30 60 1 30 56
M  V30 61 1 30 57
M  V30 62 1 30 58
M  V30 63 1 31 59
M  V30 64 1 31 60
M  V30 65 1 31 61
M  V30 END BOND
M  V30 END CTAB
M  END
>  <Dataset>  (983) 
ChEMBL_Kinases

>  <Ligand_Instance>  (983) 
nan

>  <PDB_ID>  (983) 
nan

>  <Standardized_SMILES>  (983) 
C[C@H]1CN2CCC[C@H]2CN1C(=O)N1Cc2c(CC(=O)c3ccccn3)n[nH]c2C1(C)C

>  <Name>  (983) 
nan

>  <Pocket>  (983) 
nan

>  <ATP_Site>  (983) 
nan

>  <Peripheral>  (983) 
nan

>  <Num_H_Atoms_ProtBoundConf>  (983) 
nan

>  <Num_Resolved_Atoms>  (983) 
nan

>  <Num_Not_Resolved_Atoms>  (983) 
nan

$$$$
CHEMBL3658470
     RDKit          3D

  0  0  0  0  0  0  0  0  0  0999 V3000
M  V30 BEGIN CTAB
M  V30 COUNTS 62 66 0 0 0
M  V30 BEGIN ATOM
M  V30 1 C 2.254650 0.977706 6.535747 0
M  V30 2 O 1.715070 1.394011 5.294668 0
M  V30 3 C 0.535576 0.885376 4.758270 0
M  V30 4 O -0.211470 0.009320 5.267828 0
M  V30 5 C 0.239874 1.525268 3.446771 0 CFG=1
M  V30 6 C 1.416816 1.545586 2.544111 0
M  V30 7 C 2.270488 0.481822 2.346918 0
M  V30 8 F 2.052696 -0.670928 3.018267 0
M  V30 9 C 3.363178 0.486674 1.506872 0
M  V30 10 C 3.646050 1.631849 0.797878 0
M  V30 11 C 2.840461 2.727065 0.944818 0
M  V30 12 C 1.756856 2.678423 1.796550 0
M  V30 13 F 0.949008 3.776108 1.943568 0
M  V30 14 N -0.952590 1.068444 2.819749 0
M  V30 15 C -2.143068 1.278086 3.580786 0
M  V30 16 C -3.312339 1.348231 2.603391 0
M  V30 17 C -3.017050 0.542968 1.353592 0
M  V30 18 C -2.271348 -0.681644 1.815583 0 CFG=1
M  V30 19 N -1.988526 -1.594189 0.716051 0
M  V30 20 C -2.299697 -2.951698 0.556297 0
M  V30 21 O -2.917813 -3.605917 1.424196 0
M  V30 22 C -1.906263 -3.665466 -0.652382 0
M  V30 23 C -2.232687 -4.994983 -0.757093 0
M  V30 24 C -1.893065 -5.753447 -1.883982 0
M  V30 25 C -1.210686 -5.163436 -2.928101 0
M  V30 26 N -0.730548 -5.553439 -4.127512 0
M  V30 27 N -0.144623 -4.539126 -4.731037 0
M  V30 28 C -0.199159 -3.414227 -3.971132 0
M  V30 29 C 0.353992 -2.116172 -4.345018 0
M  V30 30 C 0.146151 -1.621758 -5.617787 0
M  V30 31 C 0.702509 -0.375766 -5.908266 0
M  V30 32 N 1.416307 0.340476 -5.010798 0
M  V30 33 C 1.618498 -0.130055 -3.787293 0
M  V30 34 C 1.087679 -1.360075 -3.451147 0
M  V30 35 C -0.874968 -3.828351 -2.838779 0
M  V30 36 C -1.224531 -3.110262 -1.715189 0
M  V30 37 C -0.893787 -0.279040 2.363459 0
M  V30 38 H 3.096062 0.320097 6.319559 0
M  V30 39 H 1.506039 0.460840 7.172395 0
M  V30 40 H 2.570291 1.915453 7.075056 0
M  V30 41 H 0.063831 2.619604 3.697044 0
M  V30 42 H 4.001724 -0.378006 1.388781 0
M  V30 43 H 4.497646 1.657152 0.134501 0
M  V30 44 H 3.093567 3.607444 0.372799 0
M  V30 45 H -2.079395 2.200897 4.193000 0
M  V30 46 H -2.301656 0.377153 4.232325 0
M  V30 47 H -4.276828 1.070718 3.065754 0
M  V30 48 H -3.397524 2.435202 2.314384 0
M  V30 49 H -2.437153 1.190785 0.682452 0
M  V30 50 H -3.988886 0.221989 0.943277 0
M  V30 51 H -2.816686 -1.161208 2.628949 0
M  V30 52 H -1.474493 -1.018946 0.013425 0
M  V30 53 H -2.764531 -5.568679 -0.008762 0
M  V30 54 H -2.146765 -6.800497 -1.973053 0
M  V30 55 H -0.824548 -6.535628 -4.503685 0
M  V30 56 H -0.416372 -2.155338 -6.368861 0
M  V30 57 H 0.591321 0.093082 -6.882063 0
M  V30 58 H 2.192140 0.429893 -3.043175 0
M  V30 59 H 1.278730 -1.702065 -2.443225 0
M  V30 60 H -0.957387 -2.064179 -1.653529 0
M  V30 61 H -0.143908 -0.288702 1.519270 0
M  V30 62 H -0.608043 -1.036733 3.097233 0
M  V30 END ATOM
M  V30 BEGIN BOND
M  V30 1 1 1 2
M  V30 2 1 2 3
M  V30 3 2 3 4
M  V30 4 1 3 5
M  V30 5 1 5 6
M  V30 6 2 6 7
M  V30 7 1 7 8
M  V30 8 1 7 9
M  V30 9 2 9 10
M  V30 10 1 10 11
M  V30 11 2 11 12
M  V30 12 1 12 13
M  V30 13 1 5 14
M  V30 14 1 14 15
M  V30 15 1 15 16
M  V30 16 1 16 17
M  V30 17 1 17 18
M  V30 18 1 18 19
M  V30 19 1 19 20
M  V30 20 2 20 21
M  V30 21 1 20 22
M  V30 22 2 22 23
M  V30 23 1 23 24
M  V30 24 2 24 25
M  V30 25 1 25 26
M  V30 26 1 26 27
M  V30 27 2 27 28
M  V30 28 1 28 29
M  V30 29 2 29 30
M  V30 30 1 30 31
M  V30 31 2 31 32
M  V30 32 1 32 33
M  V30 33 2 33 34
M  V30 34 1 28 35
M  V30 35 2 35 36
M  V30 36 1 18 37
M  V30 37 1 12 6
M  V30 38 1 37 14
M  V30 39 1 36 22
M  V30 40 1 35 25
M  V30 41 1 34 29
M  V30 42 1 1 38
M  V30 43 1 1 39
M  V30 44 1 1 40
M  V30 45 1 5 41 CFG=1
M  V30 46 1 9 42
M  V30 47 1 10 43
M  V30 48 1 11 44
M  V30 49 1 15 45
M  V30 50 1 15 46
M  V30 51 1 16 47
M  V30 52 1 16 48
M  V30 53 1 17 49
M  V30 54 1 17 50
M  V30 55 1 18 51 CFG=1
M  V30 56 1 19 52
M  V30 57 1 23 53
M  V30 58 1 24 54
M  V30 59 1 26 55
M  V30 60 1 30 56
M  V30 61 1 31 57
M  V30 62 1 33 58
M  V30 63 1 34 59
M  V30 64 1 36 60
M  V30 65 1 37 61
M  V30 66 1 37 62
M  V30 END BOND
M  V30 END CTAB
M  END
>  <Dataset>  (984) 
ChEMBL_Kinases

>  <Ligand_Instance>  (984) 
nan

>  <PDB_ID>  (984) 
nan

>  <Standardized_SMILES>  (984) 
COC(=O)[C@@H](c1c(F)cccc1F)N1CCC[C@@H](NC(=O)c2ccc3[nH]nc(-c4ccncc4)c3c2)C1

>  <Name>  (984) 
nan

>  <Pocket>  (984) 
nan

>  <ATP_Site>  (984) 
nan

>  <Peripheral>  (984) 
nan

>  <Num_H_Atoms_ProtBoundConf>  (984) 
nan

>  <Num_Resolved_Atoms>  (984) 
nan

>  <Num_Not_Resolved_Atoms>  (984) 
nan

$$$$
CHEMBL3658469
     RDKit          3D

  0  0  0  0  0  0  0  0  0  0999 V3000
M  V30 BEGIN CTAB
M  V30 COUNTS 66 70 0 0 0
M  V30 BEGIN ATOM
M  V30 1 C 2.012806 2.329308 2.911179 0
M  V30 2 N 1.439763 1.462621 1.898449 0
M  V30 3 C 0.637025 0.310931 2.251801 0
M  V30 4 C 1.841173 1.996418 0.647513 0
M  V30 5 O 2.506103 2.969895 1.145819 0
M  V30 6 C 1.957230 2.112761 -0.803569 0
M  V30 7 C 1.503964 3.469524 -1.211878 0
M  V30 8 C 0.326633 4.026693 -0.700698 0
M  V30 9 C -0.142417 5.276855 -1.045315 0
M  V30 10 C 0.572923 6.040570 -1.943471 0
M  V30 11 C 1.739964 5.529798 -2.472257 0
M  V30 12 C 2.162565 4.276755 -2.094234 0
M  V30 13 F 3.314462 3.806745 -2.628538 0
M  V30 14 N 1.256343 1.073533 -1.527782 0
M  V30 15 C 1.455906 1.283775 -2.927612 0
M  V30 16 C 0.781919 0.295604 -3.826671 0
M  V30 17 C -0.438752 -0.367238 -3.284458 0
M  V30 18 C -0.648468 -0.286997 -1.835061 0 CFG=1
M  V30 19 N -0.136769 -1.315377 -1.013700 0
M  V30 20 C -0.942200 -2.089582 -0.138436 0
M  V30 21 O -2.164441 -1.826844 -0.112673 0
M  V30 22 C -0.359306 -3.140482 0.687953 0
M  V30 23 C 0.973139 -3.495978 0.717734 0
M  V30 24 C 1.445057 -4.505602 1.531178 0
M  V30 25 C 0.565067 -5.193059 2.349380 0
M  V30 26 N 0.663157 -6.201002 3.243659 0
M  V30 27 N -0.511790 -6.490357 3.765256 0
M  V30 28 C -1.465014 -5.696796 3.253998 0
M  V30 29 C -2.892882 -5.686637 3.559660 0
M  V30 30 C -3.933765 -5.615663 2.656089 0
M  V30 31 C -5.245606 -5.614764 3.089946 0
M  V30 32 N -5.491657 -5.684234 4.407332 0
M  V30 33 C -4.502074 -5.753683 5.300710 0
M  V30 34 C -3.162457 -5.757938 4.917500 0
M  V30 35 C -0.777444 -4.887810 2.367505 0
M  V30 36 C -1.208414 -3.856881 1.525734 0
M  V30 37 C -0.163994 1.054394 -1.312414 0
M  V30 38 H 1.647531 3.392885 2.804037 0
M  V30 39 H 1.662535 2.032260 3.924671 0
M  V30 40 H 3.119380 2.391089 2.867875 0
M  V30 41 H -0.424354 0.623640 2.277013 0
M  V30 42 H 0.828319 -0.522684 1.536855 0
M  V30 43 H 0.916432 0.029418 3.287095 0
M  V30 44 H 3.023970 2.025150 -1.094018 0
M  V30 45 H -0.279138 3.495698 -0.000933 0
M  V30 46 H -1.051463 5.685468 -0.639312 0
M  V30 47 H 0.208098 7.021152 -2.215837 0
M  V30 48 H 2.260643 6.158310 -3.164976 0
M  V30 49 H 1.133159 2.317257 -3.171517 0
M  V30 50 H 2.561871 1.263166 -3.088207 0
M  V30 51 H 1.544852 -0.444640 -4.150956 0
M  V30 52 H 0.572960 0.850353 -4.789818 0
M  V30 53 H -1.308099 0.108671 -3.793833 0
M  V30 54 H -0.456896 -1.405424 -3.698201 0
M  V30 55 H -1.759898 -0.259333 -1.618555 0
M  V30 56 H 0.893983 -1.461185 -1.104284 0
M  V30 57 H 1.638840 -2.949339 0.074605 0
M  V30 58 H 2.494059 -4.769850 1.540571 0
M  V30 59 H 1.600970 -6.656486 3.450996 0
M  V30 60 H -3.642051 -5.562729 1.615598 0
M  V30 61 H -6.000646 -5.556486 2.313987 0
M  V30 62 H -4.774279 -5.807687 6.353540 0
M  V30 63 H -2.400670 -5.816862 5.704587 0
M  V30 64 H -2.266072 -3.600177 1.525584 0
M  V30 65 H -0.497623 1.127269 -0.282266 0
M  V30 66 H -0.657380 1.867533 -1.896688 0
M  V30 END ATOM
M  V30 BEGIN BOND
M  V30 1 1 1 2
M  V30 2 1 2 3
M  V30 3 1 2 4
M  V30 4 2 4 5
M  V30 5 1 4 6
M  V30 6 1 6 7
M  V30 7 2 7 8
M  V30 8 1 8 9
M  V30 9 2 9 10
M  V30 10 1 10 11
M  V30 11 2 11 12
M  V30 12 1 12 13
M  V30 13 1 6 14
M  V30 14 1 14 15
M  V30 15 1 15 16
M  V30 16 1 16 17
M  V30 17 1 17 18
M  V30 18 1 18 19
M  V30 19 1 19 20
M  V30 20 2 20 21
M  V30 21 1 20 22
M  V30 22 2 22 23
M  V30 23 1 23 24
M  V30 24 2 24 25
M  V30 25 1 25 26
M  V30 26 1 26 27
M  V30 27 2 27 28
M  V30 28 1 28 29
M  V30 29 2 29 30
M  V30 30 1 30 31
M  V30 31 2 31 32
M  V30 32 1 32 33
M  V30 33 2 33 34
M  V30 34 1 28 35
M  V30 35 2 35 36
M  V30 36 1 18 37
M  V30 37 1 12 7
M  V30 38 1 37 14
M  V30 39 1 36 22
M  V30 40 1 35 25
M  V30 41 1 34 29
M  V30 42 1 1 38
M  V30 43 1 1 39
M  V30 44 1 1 40
M  V30 45 1 3 41
M  V30 46 1 3 42
M  V30 47 1 3 43
M  V30 48 1 6 44
M  V30 49 1 8 45
M  V30 50 1 9 46
M  V30 51 1 10 47
M  V30 52 1 11 48
M  V30 53 1 15 49
M  V30 54 1 15 50
M  V30 55 1 16 51
M  V30 56 1 16 52
M  V30 57 1 17 53
M  V30 58 1 17 54
M  V30 59 1 18 55 CFG=3
M  V30 60 1 19 56
M  V30 61 1 23 57
M  V30 62 1 24 58
M  V30 63 1 26 59
M  V30 64 1 30 60
M  V30 65 1 31 61
M  V30 66 1 33 62
M  V30 67 1 34 63
M  V30 68 1 36 64
M  V30 69 1 37 65
M  V30 70 1 37 66
M  V30 END BOND
M  V30 END CTAB
M  END
>  <Dataset>  (985) 
ChEMBL_Kinases

>  <Ligand_Instance>  (985) 
nan

>  <PDB_ID>  (985) 
nan

>  <Standardized_SMILES>  (985) 
CN(C)C(=O)C(c1ccccc1F)N1CCC[C@@H](NC(=O)c2ccc3[nH]nc(-c4ccncc4)c3c2)C1

>  <Name>  (985) 
nan

>  <Pocket>  (985) 
nan

>  <ATP_Site>  (985) 
nan

>  <Peripheral>  (985) 
nan

>  <Num_H_Atoms_ProtBoundConf>  (985) 
nan

>  <Num_Resolved_Atoms>  (985) 
nan

>  <Num_Not_Resolved_Atoms>  (985) 
nan

$$$$
CHEMBL3658468
     RDKit          3D

  0  0  0  0  0  0  0  0  0  0999 V3000
M  V30 BEGIN CTAB
M  V30 COUNTS 66 70 0 0 0
M  V30 BEGIN ATOM
M  V30 1 C 1.920215 0.505132 2.223737 0
M  V30 2 N 1.474703 1.873482 2.052601 0
M  V30 3 C 1.839500 2.749464 3.138261 0
M  V30 4 C 0.743740 2.328750 0.919931 0
M  V30 5 O 0.472723 3.586485 1.042870 0
M  V30 6 C 0.140017 1.964900 -0.383040 0
M  V30 7 C 0.326723 3.001214 -1.418161 0
M  V30 8 C 1.525163 3.640787 -1.697857 0
M  V30 9 F 2.631650 3.323949 -0.999570 0
M  V30 10 C 1.723435 4.606082 -2.635501 0
M  V30 11 C 0.647366 5.017449 -3.405546 0
M  V30 12 C -0.596947 4.434334 -3.197814 0
M  V30 13 C -0.695480 3.468544 -2.227301 0
M  V30 14 F -1.945128 2.974271 -2.072081 0
M  V30 15 N 0.316238 0.617878 -0.794087 0
M  V30 16 C 1.597215 0.082707 -0.964922 0
M  V30 17 C 1.894032 -0.448933 -2.344131 0
M  V30 18 C 0.857074 -1.449246 -2.812945 0
M  V30 19 C -0.496102 -1.201125 -2.240896 0 CFG=1
M  V30 20 N -0.982691 -2.098401 -1.257749 0
M  V30 21 C -2.070227 -3.041609 -1.297166 0
M  V30 22 O -2.649828 -3.046446 -2.387326 0
M  V30 23 C -2.399226 -3.869029 -0.146729 0
M  V30 24 C -3.388022 -4.820142 -0.309097 0
M  V30 25 C -3.745325 -5.625098 0.762523 0
M  V30 26 C -3.119894 -5.475869 1.973983 0
M  V30 27 N -3.243611 -6.087583 3.166033 0
M  V30 28 N -2.394298 -5.556619 4.012280 0
M  V30 29 C -1.675087 -4.575866 3.421386 0
M  V30 30 C -0.649944 -3.789801 4.097196 0
M  V30 31 C -0.760111 -2.419404 3.856582 0
M  V30 32 C 0.161064 -1.566101 4.447800 0
M  V30 33 N 1.169733 -1.986968 5.251769 0
M  V30 34 C 1.249053 -3.314084 5.464422 0
M  V30 35 C 0.371191 -4.230615 4.912743 0
M  V30 36 C -2.130770 -4.518599 2.121929 0
M  V30 37 C -1.768264 -3.714572 1.064689 0
M  V30 38 C -0.627575 0.261708 -1.828009 0
M  V30 39 H 1.122065 -0.223886 1.965258 0
M  V30 40 H 2.171193 0.303565 3.281067 0
M  V30 41 H 2.859625 0.303616 1.662032 0
M  V30 42 H 1.375999 2.339511 4.078005 0
M  V30 43 H 2.937468 2.846311 3.253094 0
M  V30 44 H 1.376405 3.737022 2.947289 0
M  V30 45 H -0.978347 2.024695 -0.153271 0
M  V30 46 H 2.646346 5.088290 -2.841448 0
M  V30 47 H 0.757465 5.774951 -4.156095 0
M  V30 48 H -1.423092 4.762242 -3.801454 0
M  V30 49 H 2.440550 0.710969 -0.658166 0
M  V30 50 H 1.688215 -0.816695 -0.276835 0
M  V30 51 H 2.029574 0.412010 -3.023286 0
M  V30 52 H 2.864987 -0.976382 -2.294256 0
M  V30 53 H 0.819761 -1.298765 -3.913661 0
M  V30 54 H 1.203544 -2.497846 -2.698077 0
M  V30 55 H -1.240362 -1.294160 -3.093988 0
M  V30 56 H -0.389784 -1.977201 -0.408899 0
M  V30 57 H -3.938984 -5.013036 -1.231423 0
M  V30 58 H -4.523898 -6.382874 0.658945 0
M  V30 59 H -3.940012 -6.863026 3.311307 0
M  V30 60 H -1.474643 -1.855930 3.259518 0
M  V30 61 H 0.167226 -0.470713 4.327118 0
M  V30 62 H 2.005626 -3.807607 6.087001 0
M  V30 63 H 0.390495 -5.289543 5.052518 0
M  V30 64 H -0.999521 -2.992487 1.221701 0
M  V30 65 H -1.630527 0.417502 -1.413879 0
M  V30 66 H -0.482899 0.864141 -2.733687 0
M  V30 END ATOM
M  V30 BEGIN BOND
M  V30 1 1 1 2
M  V30 2 1 2 3
M  V30 3 1 2 4
M  V30 4 2 4 5
M  V30 5 1 4 6
M  V30 6 1 6 7
M  V30 7 2 7 8
M  V30 8 1 8 9
M  V30 9 1 8 10
M  V30 10 2 10 11
M  V30 11 1 11 12
M  V30 12 2 12 13
M  V30 13 1 13 14
M  V30 14 1 6 15
M  V30 15 1 15 16
M  V30 16 1 16 17
M  V30 17 1 17 18
M  V30 18 1 18 19
M  V30 19 1 19 20
M  V30 20 1 20 21
M  V30 21 2 21 22
M  V30 22 1 21 23
M  V30 23 2 23 24
M  V30 24 1 24 25
M  V30 25 2 25 26
M  V30 26 1 26 27
M  V30 27 1 27 28
M  V30 28 2 28 29
M  V30 29 1 29 30
M  V30 30 2 30 31
M  V30 31 1 31 32
M  V30 32 2 32 33
M  V30 33 1 33 34
M  V30 34 2 34 35
M  V30 35 1 29 36
M  V30 36 2 36 37
M  V30 37 1 19 38
M  V30 38 1 13 7
M  V30 39 1 38 15
M  V30 40 1 37 23
M  V30 41 1 36 26
M  V30 42 1 35 30
M  V30 43 1 1 39
M  V30 44 1 1 40
M  V30 45 1 1 41
M  V30 46 1 3 42
M  V30 47 1 3 43
M  V30 48 1 3 44
M  V30 49 1 6 45
M  V30 50 1 10 46
M  V30 51 1 11 47
M  V30 52 1 12 48
M  V30 53 1 16 49
M  V30 54 1 16 50
M  V30 55 1 17 51
M  V30 56 1 17 52
M  V30 57 1 18 53
M  V30 58 1 18 54
M  V30 59 1 19 55 CFG=3
M  V30 60 1 20 56
M  V30 61 1 24 57
M  V30 62 1 25 58
M  V30 63 1 27 59
M  V30 64 1 31 60
M  V30 65 1 32 61
M  V30 66 1 34 62
M  V30 67 1 35 63
M  V30 68 1 37 64
M  V30 69 1 38 65
M  V30 70 1 38 66
M  V30 END BOND
M  V30 END CTAB
M  END
>  <Dataset>  (986) 
ChEMBL_Kinases

>  <Ligand_Instance>  (986) 
nan

>  <PDB_ID>  (986) 
nan

>  <Standardized_SMILES>  (986) 
CN(C)C(=O)C(c1c(F)cccc1F)N1CCC[C@@H](NC(=O)c2ccc3[nH]nc(-c4ccncc4)c3c2)C1

>  <Name>  (986) 
nan

>  <Pocket>  (986) 
nan

>  <ATP_Site>  (986) 
nan

>  <Peripheral>  (986) 
nan

>  <Num_H_Atoms_ProtBoundConf>  (986) 
nan

>  <Num_Resolved_Atoms>  (986) 
nan

>  <Num_Not_Resolved_Atoms>  (986) 
nan

$$$$
CHEMBL3658668
     RDKit          3D

  0  0  0  0  0  0  0  0  0  0999 V3000
M  V30 BEGIN CTAB
M  V30 COUNTS 52 56 0 0 0
M  V30 BEGIN ATOM
M  V30 1 C 2.445404 -4.027659 5.395498 0
M  V30 2 O 3.138502 -4.761179 4.450087 0
M  V30 3 C 3.262950 -4.110733 3.232168 0
M  V30 4 C 1.940357 -3.813399 2.590002 0 CFG=1
M  V30 5 N 2.126160 -3.116421 1.300496 0
M  V30 6 C 1.580701 -1.816691 1.151186 0
M  V30 7 O 0.950892 -1.249436 2.076785 0
M  V30 8 N 1.710233 -1.063320 -0.062620 0
M  V30 9 C 1.176495 0.247561 -0.256556 0
M  V30 10 C 1.769458 1.471329 -0.010806 0
M  V30 11 C 1.022743 2.600781 -0.290687 0
M  V30 12 N 1.396744 3.884320 -0.130013 0
M  V30 13 N 0.355212 4.597339 -0.529975 0
M  V30 14 C -0.664278 3.813782 -0.937893 0
M  V30 15 C -1.968456 4.246925 -1.443782 0
M  V30 16 C -2.681365 5.248952 -0.810646 0
M  V30 17 C -3.923472 5.682594 -1.267707 0
M  V30 18 N -4.470174 5.114059 -2.371767 0
M  V30 19 N -5.598402 5.323073 -3.006658 0
M  V30 20 C -5.663467 4.487181 -4.051407 0
M  V30 21 N -4.547503 3.769292 -4.031145 0
M  V30 22 C -3.779016 4.144598 -2.983226 0
M  V30 23 C -2.546524 3.684445 -2.565235 0
M  V30 24 C -0.260266 2.500769 -0.794205 0
M  V30 25 C -0.824877 1.262011 -1.028997 0
M  V30 26 N -0.093961 0.161882 -0.754968 0
M  V30 27 C 1.135172 -5.044521 2.368624 0
M  V30 28 C 1.626041 -5.746248 1.259995 0
M  V30 29 C 1.056911 -6.930936 0.830502 0
M  V30 30 C -0.034449 -7.438904 1.520571 0
M  V30 31 F -0.727501 -8.565743 1.268673 0
M  V30 32 C -0.515781 -6.747940 2.610070 0
M  V30 33 C 0.050407 -5.567340 3.039000 0
M  V30 34 H 1.418880 -3.769424 5.124879 0
M  V30 35 H 2.379602 -4.583396 6.360823 0
M  V30 36 H 3.068522 -3.100223 5.565245 0
M  V30 37 H 3.879555 -3.227527 3.403020 0
M  V30 38 H 3.797379 -4.850972 2.565238 0
M  V30 39 H 1.368106 -3.103915 3.215782 0
M  V30 40 H 2.617344 -3.456664 0.459333 0
M  V30 41 H 2.227742 -1.500995 -0.856511 0
M  V30 42 H 2.757468 1.395470 0.375240 0
M  V30 43 H 2.303799 4.249608 0.229210 0
M  V30 44 H -2.249513 5.715675 0.082473 0
M  V30 45 H -4.490807 6.459704 -0.788076 0
M  V30 46 H -6.515344 4.489528 -4.715632 0
M  V30 47 H -2.056707 2.908857 -3.104235 0
M  V30 48 H -1.830805 1.212280 -1.423310 0
M  V30 49 H 2.473732 -5.482584 0.612287 0
M  V30 50 H 1.367746 -7.521830 0.002686 0
M  V30 51 H -1.362785 -7.031658 3.240418 0
M  V30 52 H -0.234464 -4.938901 3.869455 0
M  V30 END ATOM
M  V30 BEGIN BOND
M  V30 1 1 1 2
M  V30 2 1 2 3
M  V30 3 1 3 4
M  V30 4 1 4 5
M  V30 5 1 5 6
M  V30 6 2 6 7
M  V30 7 1 6 8
M  V30 8 1 8 9
M  V30 9 2 9 10
M  V30 10 1 10 11
M  V30 11 1 11 12
M  V30 12 1 12 13
M  V30 13 2 13 14
M  V30 14 1 14 15
M  V30 15 1 15 16
M  V30 16 2 16 17
M  V30 17 1 17 18
M  V30 18 1 18 19
M  V30 19 2 19 20
M  V30 20 1 20 21
M  V30 21 2 21 22
M  V30 22 1 22 23
M  V30 23 1 14 24
M  V30 24 1 24 25
M  V30 25 2 25 26
M  V30 26 1 4 27
M  V30 27 2 27 28
M  V30 28 1 28 29
M  V30 29 2 29 30
M  V30 30 1 30 31
M  V30 31 1 30 32
M  V30 32 2 32 33
M  V30 33 1 26 9
M  V30 34 1 33 27
M  V30 35 2 24 11
M  V30 36 2 23 15
M  V30 37 1 22 18
M  V30 38 1 1 34
M  V30 39 1 1 35
M  V30 40 1 1 36
M  V30 41 1 3 37
M  V30 42 1 3 38
M  V30 43 1 4 39 CFG=1
M  V30 44 1 5 40
M  V30 45 1 8 41
M  V30 46 1 10 42
M  V30 47 1 12 43
M  V30 48 1 16 44
M  V30 49 1 17 45
M  V30 50 1 20 46
M  V30 51 1 23 47
M  V30 52 1 25 48
M  V30 53 1 28 49
M  V30 54 1 29 50
M  V30 55 1 32 51
M  V30 56 1 33 52
M  V30 END BOND
M  V30 END CTAB
M  END
>  <Dataset>  (987) 
ChEMBL_Kinases

>  <Ligand_Instance>  (987) 
nan

>  <PDB_ID>  (987) 
nan

>  <Standardized_SMILES>  (987) 
COC[C@@H](NC(=O)Nc1cc2[nH]nc(-c3ccn4ncnc4c3)c2cn1)c1ccc(F)cc1

>  <Name>  (987) 
nan

>  <Pocket>  (987) 
nan

>  <ATP_Site>  (987) 
nan

>  <Peripheral>  (987) 
nan

>  <Num_H_Atoms_ProtBoundConf>  (987) 
nan

>  <Num_Resolved_Atoms>  (987) 
nan

>  <Num_Not_Resolved_Atoms>  (987) 
nan

$$$$
CHEMBL3658451
     RDKit          3D

  0  0  0  0  0  0  0  0  0  0999 V3000
M  V30 BEGIN CTAB
M  V30 COUNTS 69 74 0 0 0
M  V30 BEGIN ATOM
M  V30 1 C -0.104162 3.798798 0.632116 0
M  V30 2 C -0.387830 2.369960 0.229923 0
M  V30 3 N -0.835809 2.208798 -1.086804 0
M  V30 4 C -2.091933 2.672535 -1.487549 0
M  V30 5 C -3.069828 1.493792 -1.542979 0
M  V30 6 C -3.790673 1.591609 -2.830803 0
M  V30 7 C -4.794799 0.582541 -3.138780 0
M  V30 8 C -4.736289 -0.686609 -3.656741 0
M  V30 9 F -3.500859 -1.096418 -4.023198 0
M  V30 10 C -5.829396 -1.487542 -3.829914 0
M  V30 11 C -7.100077 -1.087926 -3.498116 0
M  V30 12 C -7.218215 0.180417 -2.973656 0
M  V30 13 C -6.102518 0.969470 -2.807623 0
M  V30 14 F -6.392015 2.203166 -2.273542 0
M  V30 15 C -2.433153 0.203539 -1.190976 0
M  V30 16 C -1.076930 -0.042143 -1.810466 0
M  V30 17 N -0.285230 -0.936761 -0.987146 0
M  V30 18 C 0.088251 -2.158666 -1.598387 0
M  V30 19 O -0.263728 -2.421951 -2.775751 0
M  V30 20 C 0.894224 -3.150565 -0.883112 0
M  V30 21 C 1.176244 -4.349861 -1.509731 0
M  V30 22 C 1.933971 -5.356703 -0.942059 0
M  V30 23 C 2.418701 -5.095970 0.340478 0
M  V30 24 N 3.186175 -5.831081 1.193445 0
M  V30 25 N 3.390643 -5.147851 2.309136 0
M  V30 26 C 2.775952 -3.962183 2.230567 0
M  V30 27 C 2.763010 -2.919450 3.245642 0
M  V30 28 C 1.682098 -2.193484 3.697313 0
M  V30 29 C 1.790567 -1.220060 4.665618 0
M  V30 30 C 2.997067 -0.905606 5.250532 0
M  V30 31 N 3.444911 -0.051857 6.180344 0
M  V30 32 N 4.743373 -0.197637 6.340333 0
M  V30 33 C 5.678401 0.499687 7.230970 0
M  V30 34 C 5.178734 -1.174050 5.496622 0
M  V30 35 C 4.082246 -1.621671 4.809174 0
M  V30 36 C 3.974893 -2.593857 3.842748 0
M  V30 37 C 2.150555 -3.900230 0.992312 0
M  V30 38 C 1.386998 -2.921393 0.384398 0
M  V30 39 C -0.262729 1.230854 -1.920570 0
M  V30 40 H 0.896753 4.138722 0.318726 0
M  V30 41 H -0.876615 4.497254 0.281993 0
M  V30 42 H -0.111698 3.810029 1.741054 0
M  V30 43 H 0.456072 1.721894 0.491201 0
M  V30 44 H -1.224451 2.042511 0.915773 0
M  V30 45 H -2.430483 3.454794 -0.768863 0
M  V30 46 H -1.978468 3.146006 -2.506045 0
M  V30 47 H -3.814461 1.705927 -0.714742 0
M  V30 48 H -4.217494 2.639799 -2.872607 0
M  V30 49 H -2.990206 1.645989 -3.639669 0
M  V30 50 H -5.647402 -2.473187 -4.248415 0
M  V30 51 H -7.883037 -1.806004 -3.680053 0
M  V30 52 H -8.218150 0.498148 -2.711675 0
M  V30 53 H -3.105470 -0.628446 -1.489296 0
M  V30 54 H -2.308599 0.159596 -0.071399 0
M  V30 55 H -1.233983 -0.409087 -2.820102 0
M  V30 56 H -0.020667 -0.678426 -0.014703 0
M  V30 57 H 0.798781 -4.561824 -2.516768 0
M  V30 58 H 2.138244 -6.286377 -1.459595 0
M  V30 59 H 3.535737 -6.780719 0.957327 0
M  V30 60 H 0.730908 -2.460671 3.217750 0
M  V30 61 H 0.916369 -0.678993 4.987243 0
M  V30 62 H 6.106051 1.368379 6.670157 0
M  V30 63 H 6.504053 -0.187768 7.509098 0
M  V30 64 H 5.194868 0.863856 8.154858 0
M  V30 65 H 6.201577 -1.533803 5.384664 0
M  V30 66 H 4.869055 -3.123678 3.535424 0
M  V30 67 H 1.193835 -2.011585 0.904164 0
M  V30 68 H 0.804228 1.086511 -1.570777 0
M  V30 69 H -0.137346 1.541733 -2.984164 0
M  V30 END ATOM
M  V30 BEGIN BOND
M  V30 1 1 1 2
M  V30 2 1 2 3
M  V30 3 1 3 4
M  V30 4 1 4 5
M  V30 5 1 5 6
M  V30 6 1 6 7
M  V30 7 2 7 8
M  V30 8 1 8 9
M  V30 9 1 8 10
M  V30 10 2 10 11
M  V30 11 1 11 12
M  V30 12 2 12 13
M  V30 13 1 13 14
M  V30 14 1 5 15
M  V30 15 1 15 16
M  V30 16 1 16 17
M  V30 17 1 17 18
M  V30 18 2 18 19
M  V30 19 1 18 20
M  V30 20 2 20 21
M  V30 21 1 21 22
M  V30 22 2 22 23
M  V30 23 1 23 24
M  V30 24 1 24 25
M  V30 25 2 25 26
M  V30 26 1 26 27
M  V30 27 1 27 28
M  V30 28 2 28 29
M  V30 29 1 29 30
M  V30 30 2 30 31
M  V30 31 1 31 32
M  V30 32 1 32 33
M  V30 33 1 32 34
M  V30 34 2 34 35
M  V30 35 1 35 36
M  V30 36 1 26 37
M  V30 37 2 37 38
M  V30 38 1 16 39
M  V30 39 1 39 3
M  V30 40 1 13 7
M  V30 41 1 38 20
M  V30 42 1 37 23
M  V30 43 2 36 27
M  V30 44 1 35 30
M  V30 45 1 1 40
M  V30 46 1 1 41
M  V30 47 1 1 42
M  V30 48 1 2 43
M  V30 49 1 2 44
M  V30 50 1 4 45
M  V30 51 1 4 46
M  V30 52 1 5 47
M  V30 53 1 6 48
M  V30 54 1 6 49
M  V30 55 1 10 50
M  V30 56 1 11 51
M  V30 57 1 12 52
M  V30 58 1 15 53
M  V30 59 1 15 54
M  V30 60 1 16 55
M  V30 61 1 17 56
M  V30 62 1 21 57
M  V30 63 1 22 58
M  V30 64 1 24 59
M  V30 65 1 28 60
M  V30 66 1 29 61
M  V30 67 1 33 62
M  V30 68 1 33 63
M  V30 69 1 33 64
M  V30 70 1 34 65
M  V30 71 1 36 66
M  V30 72 1 38 67
M  V30 73 1 39 68
M  V30 74 1 39 69
M  V30 END BOND
M  V30 END CTAB
M  END
>  <Dataset>  (988) 
ChEMBL_Kinases

>  <Ligand_Instance>  (988) 
nan

>  <PDB_ID>  (988) 
nan

>  <Standardized_SMILES>  (988) 
CCN1CC(Cc2c(F)cccc2F)CC(NC(=O)c2ccc3[nH]nc(-c4ccc5nn(C)cc5c4)c3c2)C1

>  <Name>  (988) 
nan

>  <Pocket>  (988) 
nan

>  <ATP_Site>  (988) 
nan

>  <Peripheral>  (988) 
nan

>  <Num_H_Atoms_ProtBoundConf>  (988) 
nan

>  <Num_Resolved_Atoms>  (988) 
nan

>  <Num_Not_Resolved_Atoms>  (988) 
nan

$$$$
CHEMBL3658452
     RDKit          3D

  0  0  0  0  0  0  0  0  0  0999 V3000
M  V30 BEGIN CTAB
M  V30 COUNTS 62 66 0 0 0
M  V30 BEGIN ATOM
M  V30 1 C 3.499730 0.587627 6.975639 0
M  V30 2 C 3.557790 1.820930 6.137767 0
M  V30 3 C 3.702059 1.689680 4.769632 0
M  V30 4 C 3.754756 2.837361 4.004722 0
M  V30 5 C 3.903136 2.887037 2.553144 0
M  V30 6 N 4.734586 3.701465 1.853683 0
M  V30 7 N 4.599903 3.467445 0.542234 0
M  V30 8 C 3.691368 2.507487 0.329374 0
M  V30 9 C 3.168877 1.884866 -0.780197 0
M  V30 10 C 2.210455 0.895979 -0.675331 0
M  V30 11 C 1.751294 0.507911 0.567780 0
M  V30 12 C 0.743899 -0.519389 0.857515 0
M  V30 13 O 0.375042 -0.816485 2.028796 0
M  V30 14 N 0.111442 -1.256930 -0.206787 0
M  V30 15 C -0.865818 -2.255688 0.050749 0
M  V30 16 C -2.261215 -1.918825 -0.464715 0
M  V30 17 C -2.992441 -3.233565 -0.582162 0
M  V30 18 C -4.487651 -3.095359 -0.737429 0
M  V30 19 C -4.944559 -2.377513 -1.913981 0
M  V30 20 C -5.014525 -1.048526 -2.231701 0
M  V30 21 F -4.598720 -0.196370 -1.270250 0
M  V30 22 C -5.470721 -0.516262 -3.409944 0
M  V30 23 C -5.909124 -1.366665 -4.390938 0
M  V30 24 C -5.886012 -2.727395 -4.182954 0
M  V30 25 C -5.411594 -3.174690 -2.970343 0
M  V30 26 F -5.433306 -4.546260 -2.859705 0
M  V30 27 C -2.413782 -4.072729 -1.709804 0
M  V30 28 N -0.974986 -3.923613 -1.738982 0
M  V30 29 C -0.285518 -5.072486 -2.245104 0
M  V30 30 C -0.529956 -3.635201 -0.389736 0
M  V30 31 C 2.294977 1.152334 1.673299 0
M  V30 32 C 3.253367 2.142175 1.585028 0
M  V30 33 C 3.661246 4.059170 4.639833 0
M  V30 34 C 3.515806 4.156535 6.027594 0
M  V30 35 N 3.466373 3.011018 6.760179 0
M  V30 36 H 4.348552 0.685612 7.711883 0
M  V30 37 H 3.573547 -0.327512 6.388201 0
M  V30 38 H 2.551468 0.547235 7.545420 0
M  V30 39 H 3.777670 0.749581 4.248028 0
M  V30 40 H 5.148132 3.984151 -0.203896 0
M  V30 41 H 3.515211 2.174423 -1.768308 0
M  V30 42 H 1.767751 0.376156 -1.510852 0
M  V30 43 H 0.361873 -1.070555 -1.216748 0
M  V30 44 H -1.003320 -2.309301 1.172332 0
M  V30 45 H -2.164515 -1.451290 -1.445445 0
M  V30 46 H -2.790759 -1.273118 0.277936 0
M  V30 47 H -2.802626 -3.787986 0.358682 0
M  V30 48 H -4.895328 -4.124416 -0.701533 0
M  V30 49 H -4.893098 -2.606028 0.194870 0
M  V30 50 H -5.477131 0.542166 -3.543284 0
M  V30 51 H -6.261499 -0.921155 -5.304291 0
M  V30 52 H -6.231604 -3.360208 -4.959764 0
M  V30 53 H -2.624670 -5.152209 -1.570678 0
M  V30 54 H -2.868010 -3.770807 -2.676458 0
M  V30 55 H -0.203531 -5.063871 -3.365553 0
M  V30 56 H 0.774328 -5.048589 -1.893166 0
M  V30 57 H -0.720800 -6.024353 -1.914147 0
M  V30 58 H 0.577799 -3.740016 -0.403216 0
M  V30 59 H -0.876973 -4.445241 0.294729 0
M  V30 60 H 1.969691 0.886734 2.679729 0
M  V30 61 H 3.689506 5.037943 4.151247 0
M  V30 62 H 3.440976 5.115349 6.541085 0
M  V30 END ATOM
M  V30 BEGIN BOND
M  V30 1 1 1 2
M  V30 2 2 2 3
M  V30 3 1 3 4
M  V30 4 1 4 5
M  V30 5 2 5 6
M  V30 6 1 6 7
M  V30 7 1 7 8
M  V30 8 2 8 9
M  V30 9 1 9 10
M  V30 10 2 10 11
M  V30 11 1 11 12
M  V30 12 2 12 13
M  V30 13 1 12 14
M  V30 14 1 14 15
M  V30 15 1 15 16
M  V30 16 1 16 17
M  V30 17 1 17 18
M  V30 18 1 18 19
M  V30 19 2 19 20
M  V30 20 1 20 21
M  V30 21 1 20 22
M  V30 22 2 22 23
M  V30 23 1 23 24
M  V30 24 2 24 25
M  V30 25 1 25 26
M  V30 26 1 17 27
M  V30 27 1 27 28
M  V30 28 1 28 29
M  V30 29 1 28 30
M  V30 30 1 11 31
M  V30 31 2 31 32
M  V30 32 2 4 33
M  V30 33 1 33 34
M  V30 34 2 34 35
M  V30 35 1 35 2
M  V30 36 1 32 5
M  V30 37 1 32 8
M  V30 38 1 30 15
M  V30 39 1 25 19
M  V30 40 1 1 36
M  V30 41 1 1 37
M  V30 42 1 1 38
M  V30 43 1 3 39
M  V30 44 1 7 40
M  V30 45 1 9 41
M  V30 46 1 10 42
M  V30 47 1 14 43
M  V30 48 1 15 44
M  V30 49 1 16 45
M  V30 50 1 16 46
M  V30 51 1 17 47
M  V30 52 1 18 48
M  V30 53 1 18 49
M  V30 54 1 22 50
M  V30 55 1 23 51
M  V30 56 1 24 52
M  V30 57 1 27 53
M  V30 58 1 27 54
M  V30 59 1 29 55
M  V30 60 1 29 56
M  V30 61 1 29 57
M  V30 62 1 30 58
M  V30 63 1 30 59
M  V30 64 1 31 60
M  V30 65 1 33 61
M  V30 66 1 34 62
M  V30 END BOND
M  V30 END CTAB
M  END
>  <Dataset>  (989) 
ChEMBL_Kinases

>  <Ligand_Instance>  (989) 
nan

>  <PDB_ID>  (989) 
nan

>  <Standardized_SMILES>  (989) 
Cc1cc(-c2n[nH]c3ccc(C(=O)NC4CC(Cc5c(F)cccc5F)CN(C)C4)cc23)ccn1

>  <Name>  (989) 
nan

>  <Pocket>  (989) 
nan

>  <ATP_Site>  (989) 
nan

>  <Peripheral>  (989) 
nan

>  <Num_H_Atoms_ProtBoundConf>  (989) 
nan

>  <Num_Resolved_Atoms>  (989) 
nan

>  <Num_Not_Resolved_Atoms>  (989) 
nan

$$$$
CHEMBL3658453
     RDKit          3D

  0  0  0  0  0  0  0  0  0  0999 V3000
M  V30 BEGIN CTAB
M  V30 COUNTS 65 70 0 0 0
M  V30 BEGIN ATOM
M  V30 1 C 6.124249 -2.346594 5.356726 0
M  V30 2 C 6.123969 -1.079373 4.585232 0
M  V30 3 N 6.673011 0.147693 4.638874 0
M  V30 4 C 6.239105 0.864189 3.568494 0
M  V30 5 C 6.474167 2.147673 3.128814 0
M  V30 6 C 5.880863 2.596910 1.988338 0
M  V30 7 C 5.038440 1.799922 1.244056 0
M  V30 8 C 4.367323 2.189823 0.016055 0
M  V30 9 N 4.950478 2.832444 -1.011282 0
M  V30 10 N 4.077599 3.045199 -1.982214 0
M  V30 11 C 2.899058 2.533782 -1.587549 0
M  V30 12 C 1.676234 2.493259 -2.223459 0
M  V30 13 C 0.591189 1.905372 -1.608017 0
M  V30 14 C 0.740505 1.363650 -0.361835 0
M  V30 15 C -0.324470 0.713107 0.395269 0
M  V30 16 O -0.301056 0.204569 1.544557 0
M  V30 17 N -1.622825 0.591926 -0.180005 0
M  V30 18 C -2.845653 0.017548 0.306020 0 CFG=2
M  V30 19 C -3.297110 -1.112008 -0.644183 0
M  V30 20 C -4.195358 -1.977709 0.196325 0 CFG=2
M  V30 21 C -4.923123 -3.057801 -0.510502 0
M  V30 22 C -4.041122 -4.023400 -1.169020 0
M  V30 23 C -3.396833 -3.878808 -2.366031 0
M  V30 24 F -3.587460 -2.745672 -3.077263 0
M  V30 25 C -2.561106 -4.798356 -2.949309 0
M  V30 26 C -2.333696 -5.983198 -2.291189 0
M  V30 27 C -2.941404 -6.225896 -1.070513 0
M  V30 28 C -3.765475 -5.237808 -0.565725 0
M  V30 29 F -4.331779 -5.536562 0.636085 0
M  V30 30 C -5.168720 -1.018874 0.872303 0
M  V30 31 N -5.203836 0.256280 0.220023 0
M  V30 32 C -6.405251 1.002698 0.418671 0
M  V30 33 C -3.988715 1.004556 0.340668 0
M  V30 34 C 1.975494 1.393267 0.304730 0
M  V30 35 C 3.047422 1.985887 -0.329116 0
M  V30 36 C 4.829164 0.519982 1.718975 0
M  V30 37 N 5.414713 0.052708 2.859429 0
M  V30 38 N 5.360493 -1.102798 3.484785 0
M  V30 39 H 6.705387 -2.202334 6.281922 0
M  V30 40 H 5.122501 -2.718482 5.591296 0
M  V30 41 H 6.684247 -3.115576 4.767221 0
M  V30 42 H 7.141098 2.750467 3.734980 0
M  V30 43 H 6.053935 3.602760 1.627550 0
M  V30 44 H 4.217901 3.520494 -2.914955 0
M  V30 45 H 1.494189 2.903991 -3.209180 0
M  V30 46 H -0.358604 1.867589 -2.089203 0
M  V30 47 H -1.884147 0.939991 -1.128219 0
M  V30 48 H -2.760207 -0.397772 1.330965 0
M  V30 49 H -3.780787 -0.609721 -1.485105 0
M  V30 50 H -2.407136 -1.711261 -0.925884 0
M  V30 51 H -3.532418 -2.462592 0.949614 0
M  V30 52 H -5.506322 -3.614854 0.280955 0
M  V30 53 H -5.712592 -2.684146 -1.203676 0
M  V30 54 H -2.078126 -4.636879 -3.893583 0
M  V30 55 H -1.677331 -6.723550 -2.732199 0
M  V30 56 H -2.765939 -7.155279 -0.548401 0
M  V30 57 H -6.174418 -1.475191 0.787348 0
M  V30 58 H -4.972963 -0.952656 1.962864 0
M  V30 59 H -6.956285 1.052919 -0.564736 0
M  V30 60 H -7.085753 0.596430 1.179342 0
M  V30 61 H -6.176754 2.068002 0.687923 0
M  V30 62 H -3.882249 1.651533 -0.561544 0
M  V30 63 H -3.931307 1.598893 1.276687 0
M  V30 64 H 2.110912 0.973031 1.287671 0
M  V30 65 H 4.183620 -0.211197 1.217920 0
M  V30 END ATOM
M  V30 BEGIN BOND
M  V30 1 1 1 2
M  V30 2 1 2 3
M  V30 3 2 3 4
M  V30 4 1 4 5
M  V30 5 2 5 6
M  V30 6 1 6 7
M  V30 7 1 7 8
M  V30 8 2 8 9
M  V30 9 1 9 10
M  V30 10 1 10 11
M  V30 11 2 11 12
M  V30 12 1 12 13
M  V30 13 2 13 14
M  V30 14 1 14 15
M  V30 15 2 15 16
M  V30 16 1 15 17
M  V30 17 1 17 18
M  V30 18 1 18 19
M  V30 19 1 19 20
M  V30 20 1 20 21
M  V30 21 1 21 22
M  V30 22 2 22 23
M  V30 23 1 23 24
M  V30 24 1 23 25
M  V30 25 2 25 26
M  V30 26 1 26 27
M  V30 27 2 27 28
M  V30 28 1 28 29
M  V30 29 1 20 30
M  V30 30 1 30 31
M  V30 31 1 31 32
M  V30 32 1 31 33
M  V30 33 1 14 34
M  V30 34 2 34 35
M  V30 35 2 7 36
M  V30 36 1 36 37
M  V30 37 1 37 38
M  V30 38 2 38 2
M  V30 39 1 37 4
M  V30 40 1 35 8
M  V30 41 1 35 11
M  V30 42 1 33 18
M  V30 43 1 28 22
M  V30 44 1 1 39
M  V30 45 1 1 40
M  V30 46 1 1 41
M  V30 47 1 5 42
M  V30 48 1 6 43
M  V30 49 1 10 44
M  V30 50 1 12 45
M  V30 51 1 13 46
M  V30 52 1 17 47
M  V30 53 1 18 48 CFG=1
M  V30 54 1 19 49
M  V30 55 1 19 50
M  V30 56 1 20 51 CFG=1
M  V30 57 1 21 52
M  V30 58 1 21 53
M  V30 59 1 25 54
M  V30 60 1 26 55
M  V30 61 1 27 56
M  V30 62 1 30 57
M  V30 63 1 30 58
M  V30 64 1 32 59
M  V30 65 1 32 60
M  V30 66 1 32 61
M  V30 67 1 33 62
M  V30 68 1 33 63
M  V30 69 1 34 64
M  V30 70 1 36 65
M  V30 END BOND
M  V30 END CTAB
M  END
>  <Dataset>  (990) 
ChEMBL_Kinases

>  <Ligand_Instance>  (990) 
nan

>  <PDB_ID>  (990) 
nan

>  <Standardized_SMILES>  (990) 
Cc1nc2ccc(-c3n[nH]c4ccc(C(=O)N[C@@H]5C[C@H](Cc6c(F)cccc6F)CN(C)C5)cc34)cn2n1

>  <Name>  (990) 
nan

>  <Pocket>  (990) 
nan

>  <ATP_Site>  (990) 
nan

>  <Peripheral>  (990) 
nan

>  <Num_H_Atoms_ProtBoundConf>  (990) 
nan

>  <Num_Resolved_Atoms>  (990) 
nan

>  <Num_Not_Resolved_Atoms>  (990) 
nan

$$$$
CHEMBL3658454
     RDKit          3D

  0  0  0  0  0  0  0  0  0  0999 V3000
M  V30 BEGIN CTAB
M  V30 COUNTS 65 70 0 0 0
M  V30 BEGIN ATOM
M  V30 1 C 4.146916 -4.330206 1.170950 0
M  V30 2 C 4.312971 -3.014621 0.494527 0
M  V30 3 N 4.936942 -2.730448 -0.687278 0
M  V30 4 C 4.839874 -1.404789 -0.906483 0
M  V30 5 C 5.298375 -0.640634 -1.939995 0
M  V30 6 C 5.093218 0.721671 -1.982739 0
M  V30 7 C 4.392899 1.328442 -0.928740 0
M  V30 8 C 4.046714 2.725937 -0.703666 0
M  V30 9 N 4.879936 3.773973 -0.806389 0
M  V30 10 N 4.235043 4.918669 -0.529975 0
M  V30 11 C 2.987816 4.569212 -0.254186 0
M  V30 12 C 1.855794 5.285502 0.099577 0
M  V30 13 C 0.602451 4.770286 0.358729 0
M  V30 14 C 0.506730 3.396821 0.243006 0
M  V30 15 C -0.817020 2.851917 0.530183 0
M  V30 16 O -1.777235 3.550344 0.928221 0
M  V30 17 N -1.093939 1.468075 0.369406 0
M  V30 18 C -2.322671 0.733673 0.602210 0 CFG=2
M  V30 19 C -2.055236 -0.453686 1.493918 0
M  V30 20 C -2.696978 -1.726390 1.008564 0 CFG=1
M  V30 21 C -2.720555 -2.709003 2.142556 0
M  V30 22 C -3.295962 -4.018480 1.853923 0
M  V30 23 C -4.599621 -4.450120 1.779996 0
M  V30 24 F -5.555140 -3.533254 2.051686 0
M  V30 25 C -5.010516 -5.725559 1.475005 0
M  V30 26 C -4.075946 -6.691028 1.214118 0
M  V30 27 C -2.737245 -6.365668 1.262476 0
M  V30 28 C -2.403796 -5.062666 1.575325 0
M  V30 29 F -1.057994 -4.815934 1.603058 0
M  V30 30 C -4.035071 -1.509661 0.392330 0
M  V30 31 N -4.043551 -0.422692 -0.564382 0
M  V30 32 C -4.942712 0.659113 -0.181200 0
M  V30 33 C -2.737430 0.163019 -0.736829 0
M  V30 34 C 1.554426 2.565685 -0.101459 0
M  V30 35 C 2.779629 3.208822 -0.339840 0
M  V30 36 C 3.964421 0.462814 0.082633 0
M  V30 37 N 4.165155 -0.864978 0.121258 0
M  V30 38 N 3.849699 -1.835358 0.962179 0
M  V30 39 H 3.156922 -4.761176 0.878004 0
M  V30 40 H 4.110800 -4.118619 2.271211 0
M  V30 41 H 4.969787 -5.025312 0.937818 0
M  V30 42 H 5.847315 -1.008783 -2.793522 0
M  V30 43 H 5.386837 1.462818 -2.722611 0
M  V30 44 H 4.576913 5.904308 -0.516038 0
M  V30 45 H 1.980377 6.372679 0.178892 0
M  V30 46 H -0.217519 5.417177 0.628066 0
M  V30 47 H -0.395649 0.770081 0.039131 0
M  V30 48 H -3.109417 1.392372 1.026002 0
M  V30 49 H -0.950142 -0.577627 1.549430 0
M  V30 50 H -2.376410 -0.215606 2.549274 0
M  V30 51 H -2.020504 -2.166606 0.242321 0
M  V30 52 H -1.687831 -2.871292 2.564850 0
M  V30 53 H -3.269946 -2.258879 3.036023 0
M  V30 54 H -6.066937 -5.956001 1.442717 0
M  V30 55 H -4.450836 -7.672715 0.980880 0
M  V30 56 H -1.996925 -7.120485 1.057713 0
M  V30 57 H -4.751939 -1.200646 1.173480 0
M  V30 58 H -4.429967 -2.398494 -0.108810 0
M  V30 59 H -5.020617 0.682952 0.942819 0
M  V30 60 H -5.933736 0.545970 -0.649107 0
M  V30 61 H -4.537532 1.653150 -0.498530 0
M  V30 62 H -1.977190 -0.589671 -1.034585 0
M  V30 63 H -2.858903 0.962284 -1.497634 0
M  V30 64 H 1.459924 1.494364 -0.191458 0
M  V30 65 H 3.411670 0.827151 0.965788 0
M  V30 END ATOM
M  V30 BEGIN BOND
M  V30 1 1 1 2
M  V30 2 1 2 3
M  V30 3 2 3 4
M  V30 4 1 4 5
M  V30 5 2 5 6
M  V30 6 1 6 7
M  V30 7 1 7 8
M  V30 8 2 8 9
M  V30 9 1 9 10
M  V30 10 1 10 11
M  V30 11 2 11 12
M  V30 12 1 12 13
M  V30 13 2 13 14
M  V30 14 1 14 15
M  V30 15 2 15 16
M  V30 16 1 15 17
M  V30 17 1 17 18
M  V30 18 1 18 19
M  V30 19 1 19 20
M  V30 20 1 20 21
M  V30 21 1 21 22
M  V30 22 2 22 23
M  V30 23 1 23 24
M  V30 24 1 23 25
M  V30 25 2 25 26
M  V30 26 1 26 27
M  V30 27 2 27 28
M  V30 28 1 28 29
M  V30 29 1 20 30
M  V30 30 1 30 31
M  V30 31 1 31 32
M  V30 32 1 31 33
M  V30 33 1 14 34
M  V30 34 2 34 35
M  V30 35 2 7 36
M  V30 36 1 36 37
M  V30 37 1 37 38
M  V30 38 2 38 2
M  V30 39 1 37 4
M  V30 40 1 35 8
M  V30 41 1 35 11
M  V30 42 1 33 18
M  V30 43 1 28 22
M  V30 44 1 1 39
M  V30 45 1 1 40
M  V30 46 1 1 41
M  V30 47 1 5 42
M  V30 48 1 6 43
M  V30 49 1 10 44
M  V30 50 1 12 45
M  V30 51 1 13 46
M  V30 52 1 17 47
M  V30 53 1 18 48 CFG=1
M  V30 54 1 19 49
M  V30 55 1 19 50
M  V30 56 1 20 51 CFG=3
M  V30 57 1 21 52
M  V30 58 1 21 53
M  V30 59 1 25 54
M  V30 60 1 26 55
M  V30 61 1 27 56
M  V30 62 1 30 57
M  V30 63 1 30 58
M  V30 64 1 32 59
M  V30 65 1 32 60
M  V30 66 1 32 61
M  V30 67 1 33 62
M  V30 68 1 33 63
M  V30 69 1 34 64
M  V30 70 1 36 65
M  V30 END BOND
M  V30 END CTAB
M  END
>  <Dataset>  (991) 
ChEMBL_Kinases

>  <Ligand_Instance>  (991) 
nan

>  <PDB_ID>  (991) 
nan

>  <Standardized_SMILES>  (991) 
Cc1nc2ccc(-c3n[nH]c4ccc(C(=O)N[C@@H]5C[C@@H](Cc6c(F)cccc6F)CN(C)C5)cc34)cn2n1

>  <Name>  (991) 
nan

>  <Pocket>  (991) 
nan

>  <ATP_Site>  (991) 
nan

>  <Peripheral>  (991) 
nan

>  <Num_H_Atoms_ProtBoundConf>  (991) 
nan

>  <Num_Resolved_Atoms>  (991) 
nan

>  <Num_Not_Resolved_Atoms>  (991) 
nan

$$$$
CHEMBL3658455
     RDKit          3D

  0  0  0  0  0  0  0  0  0  0999 V3000
M  V30 BEGIN CTAB
M  V30 COUNTS 63 68 0 0 0
M  V30 BEGIN ATOM
M  V30 1 C -0.130418 0.857604 5.232704 0
M  V30 2 N 1.218166 0.612280 4.891965 0
M  V30 3 C 2.046953 1.723175 4.623077 0
M  V30 4 C 2.612839 1.826855 3.248899 0 CFG=2
M  V30 5 C 1.892153 2.900043 2.455011 0
M  V30 6 C 2.397307 3.055001 1.092408 0
M  V30 7 C 3.598219 3.716442 0.905513 0
M  V30 8 F 4.324437 4.227391 1.938533 0
M  V30 9 C 4.136312 3.898458 -0.359365 0
M  V30 10 C 3.500898 3.429414 -1.490702 0
M  V30 11 C 2.302930 2.767111 -1.330648 0
M  V30 12 C 1.776977 2.591249 -0.072629 0
M  V30 13 F 0.599654 1.940508 0.087894 0
M  V30 14 C 2.776111 0.535953 2.528474 0
M  V30 15 C 1.760826 -0.519048 2.775605 0 CFG=2
M  V30 16 N 0.502794 -0.418885 2.100986 0
M  V30 17 C -0.081720 -1.348866 1.164134 0
M  V30 18 O 0.637064 -2.338033 0.953899 0
M  V30 19 C -1.387332 -1.083191 0.567951 0
M  V30 20 C -2.193854 -0.015479 0.789026 0
M  V30 21 C -3.417442 0.149421 0.174516 0
M  V30 22 C -3.866346 -0.805915 -0.714234 0
M  V30 23 N -4.988513 -0.912240 -1.446121 0
M  V30 24 N -4.923204 -2.026675 -2.135488 0
M  V30 25 C -3.756429 -2.686288 -1.877474 0
M  V30 26 C -3.319817 -3.966028 -2.456371 0
M  V30 27 C -2.764165 -5.011797 -1.747317 0
M  V30 28 C -2.395136 -6.170874 -2.434727 0
M  V30 29 N -2.575303 -6.277002 -3.774480 0
M  V30 30 C -2.305165 -7.275512 -4.651858 0
M  V30 31 C -2.700697 -6.834855 -5.913916 0
M  V30 32 N -3.194842 -5.587666 -5.753601 0
M  V30 33 C -3.119352 -5.239895 -4.435725 0
M  V30 34 C -3.517610 -4.047443 -3.839691 0
M  V30 35 C -3.057256 -1.900069 -0.951166 0
M  V30 36 C -1.815272 -2.067744 -0.327542 0
M  V30 37 C 1.533515 -0.619418 4.256765 0
M  V30 38 H -0.868479 0.119377 4.906530 0
M  V30 39 H -0.301065 1.035054 6.329992 0
M  V30 40 H -0.434350 1.827365 4.759514 0
M  V30 41 H 1.444656 2.657991 4.816729 0
M  V30 42 H 2.836618 1.754734 5.429365 0
M  V30 43 H 3.645630 2.269758 3.397147 0
M  V30 44 H 2.026789 3.840198 3.052500 0
M  V30 45 H 0.812186 2.695765 2.484264 0
M  V30 46 H 5.082374 4.419551 -0.507923 0
M  V30 47 H 3.947224 3.588704 -2.455509 0
M  V30 48 H 1.807972 2.401276 -2.216004 0
M  V30 49 H 3.760597 0.098673 2.858924 0
M  V30 50 H 2.961137 0.767037 1.458284 0
M  V30 51 H 2.219841 -1.482304 2.463133 0
M  V30 52 H -0.014000 0.454653 2.356547 0
M  V30 53 H -1.834264 0.722170 1.483161 0
M  V30 54 H -3.994478 1.038098 0.414194 0
M  V30 55 H -5.761298 -0.194555 -1.433555 0
M  V30 56 H -2.643596 -4.873984 -0.681059 0
M  V30 57 H -1.960755 -6.979037 -1.856788 0
M  V30 58 H -1.869117 -8.235053 -4.442079 0
M  V30 59 H -2.639036 -7.368183 -6.875129 0
M  V30 60 H -3.949366 -3.255862 -4.442147 0
M  V30 61 H -1.210138 -2.956127 -0.550826 0
M  V30 62 H 0.701507 -1.325674 4.491328 0
M  V30 63 H 2.470667 -1.030176 4.705397 0
M  V30 END ATOM
M  V30 BEGIN BOND
M  V30 1 1 1 2
M  V30 2 1 2 3
M  V30 3 1 3 4
M  V30 4 1 4 5
M  V30 5 1 5 6
M  V30 6 2 6 7
M  V30 7 1 7 8
M  V30 8 1 7 9
M  V30 9 2 9 10
M  V30 10 1 10 11
M  V30 11 2 11 12
M  V30 12 1 12 13
M  V30 13 1 4 14
M  V30 14 1 14 15
M  V30 15 1 15 16
M  V30 16 1 16 17
M  V30 17 2 17 18
M  V30 18 1 17 19
M  V30 19 2 19 20
M  V30 20 1 20 21
M  V30 21 2 21 22
M  V30 22 1 22 23
M  V30 23 1 23 24
M  V30 24 2 24 25
M  V30 25 1 25 26
M  V30 26 1 26 27
M  V30 27 2 27 28
M  V30 28 1 28 29
M  V30 29 1 29 30
M  V30 30 2 30 31
M  V30 31 1 31 32
M  V30 32 2 32 33
M  V30 33 1 33 34
M  V30 34 1 25 35
M  V30 35 2 35 36
M  V30 36 1 15 37
M  V30 37 1 37 2
M  V30 38 1 12 6
M  V30 39 1 36 19
M  V30 40 1 35 22
M  V30 41 2 34 26
M  V30 42 1 33 29
M  V30 43 1 1 38
M  V30 44 1 1 39
M  V30 45 1 1 40
M  V30 46 1 3 41
M  V30 47 1 3 42
M  V30 48 1 4 43 CFG=1
M  V30 49 1 5 44
M  V30 50 1 5 45
M  V30 51 1 9 46
M  V30 52 1 10 47
M  V30 53 1 11 48
M  V30 54 1 14 49
M  V30 55 1 14 50
M  V30 56 1 15 51 CFG=3
M  V30 57 1 16 52
M  V30 58 1 20 53
M  V30 59 1 21 54
M  V30 60 1 23 55
M  V30 61 1 27 56
M  V30 62 1 28 57
M  V30 63 1 30 58
M  V30 64 1 31 59
M  V30 65 1 34 60
M  V30 66 1 36 61
M  V30 67 1 37 62
M  V30 68 1 37 63
M  V30 END BOND
M  V30 END CTAB
M  END
>  <Dataset>  (992) 
ChEMBL_Kinases

>  <Ligand_Instance>  (992) 
nan

>  <PDB_ID>  (992) 
nan

>  <Standardized_SMILES>  (992) 
CN1C[C@H](Cc2c(F)cccc2F)C[C@H](NC(=O)c2ccc3[nH]nc(-c4ccn5ccnc5c4)c3c2)C1

>  <Name>  (992) 
nan

>  <Pocket>  (992) 
nan

>  <ATP_Site>  (992) 
nan

>  <Peripheral>  (992) 
nan

>  <Num_H_Atoms_ProtBoundConf>  (992) 
nan

>  <Num_Resolved_Atoms>  (992) 
nan

>  <Num_Not_Resolved_Atoms>  (992) 
nan

$$$$
CHEMBL3658456
     RDKit          3D

  0  0  0  0  0  0  0  0  0  0999 V3000
M  V30 BEGIN CTAB
M  V30 COUNTS 63 68 0 0 0
M  V30 BEGIN ATOM
M  V30 1 C -0.073512 1.546857 5.193791 0
M  V30 2 N 1.224605 0.974177 4.913828 0
M  V30 3 C 2.104375 1.951679 4.409535 0
M  V30 4 C 1.999557 2.198787 2.904945 0 CFG=1
M  V30 5 C 3.032223 3.207064 2.543016 0
M  V30 6 C 3.098333 3.573447 1.127777 0
M  V30 7 C 3.708150 2.974767 0.054414 0
M  V30 8 F 4.439505 1.871031 0.329998 0
M  V30 9 C 3.652117 3.424442 -1.236676 0
M  V30 10 C 2.938521 4.564122 -1.520056 0
M  V30 11 C 2.308225 5.209925 -0.498817 0
M  V30 12 C 2.385418 4.723337 0.809290 0
M  V30 13 F 1.695478 5.494339 1.702809 0
M  V30 14 C 2.228100 0.882969 2.223983 0
M  V30 15 C 1.335858 -0.217556 2.736793 0 CFG=2
M  V30 16 N 0.056945 -0.261059 2.011094 0
M  V30 17 C -0.370094 -1.349102 1.168218 0
M  V30 18 O 0.460409 -2.264272 1.110362 0
M  V30 19 C -1.660364 -1.284085 0.498553 0
M  V30 20 C -2.581713 -0.258833 0.577230 0
M  V30 21 C -3.757869 -0.335724 -0.108748 0
M  V30 22 C -4.083705 -1.415930 -0.899895 0
M  V30 23 N -5.118156 -1.760136 -1.659485 0
M  V30 24 N -4.920602 -2.923358 -2.211630 0
M  V30 25 C -3.714906 -3.424673 -1.838075 0
M  V30 26 C -3.119078 -4.694732 -2.232825 0
M  V30 27 C -2.479448 -5.619972 -1.438542 0
M  V30 28 C -1.988566 -6.763187 -2.026262 0
M  V30 29 N -2.109731 -7.011527 -3.347707 0
M  V30 30 C -1.711119 -8.049070 -4.124227 0
M  V30 31 C -2.095910 -7.790133 -5.423707 0
M  V30 32 N -2.732448 -6.591228 -5.447001 0
M  V30 33 C -2.733753 -6.126243 -4.170531 0
M  V30 34 C -3.236910 -4.964125 -3.594925 0
M  V30 35 C -3.179722 -2.463288 -1.000729 0
M  V30 36 C -1.984527 -2.374648 -0.297528 0
M  V30 37 C 1.045751 -0.221092 4.179433 0
M  V30 38 H -0.002337 2.493522 5.765412 0
M  V30 39 H -0.754612 0.814802 5.677001 0
M  V30 40 H -0.528100 1.824171 4.221817 0
M  V30 41 H 3.156147 1.605009 4.589377 0
M  V30 42 H 1.906767 2.932188 4.896860 0
M  V30 43 H 0.959052 2.575964 2.765453 0
M  V30 44 H 4.039819 2.757005 2.803052 0
M  V30 45 H 2.977957 4.104204 3.200865 0
M  V30 46 H 4.172229 2.868727 -1.999143 0
M  V30 47 H 2.923762 4.874796 -2.539612 0
M  V30 48 H 1.761295 6.099360 -0.771643 0
M  V30 49 H 3.287565 0.604945 2.383085 0
M  V30 50 H 2.116595 0.978802 1.102464 0
M  V30 51 H 1.830745 -1.185118 2.460282 0
M  V30 52 H -0.521201 0.593001 2.170838 0
M  V30 53 H -2.308404 0.579661 1.202776 0
M  V30 54 H -4.448897 0.505171 -0.008926 0
M  V30 55 H -5.937675 -1.109722 -1.737328 0
M  V30 56 H -2.428550 -5.342001 -0.405558 0
M  V30 57 H -1.488961 -7.473236 -1.369599 0
M  V30 58 H -1.181396 -8.937239 -3.801205 0
M  V30 59 H -1.962701 -8.372767 -6.333870 0
M  V30 60 H -3.729173 -4.285752 -4.300627 0
M  V30 61 H -1.294836 -3.222703 -0.402595 0
M  V30 62 H 0.019482 -0.659232 4.359760 0
M  V30 63 H 1.718523 -0.989090 4.673654 0
M  V30 END ATOM
M  V30 BEGIN BOND
M  V30 1 1 1 2
M  V30 2 1 2 3
M  V30 3 1 3 4
M  V30 4 1 4 5
M  V30 5 1 5 6
M  V30 6 2 6 7
M  V30 7 1 7 8
M  V30 8 1 7 9
M  V30 9 2 9 10
M  V30 10 1 10 11
M  V30 11 2 11 12
M  V30 12 1 12 13
M  V30 13 1 4 14
M  V30 14 1 14 15
M  V30 15 1 15 16
M  V30 16 1 16 17
M  V30 17 2 17 18
M  V30 18 1 17 19
M  V30 19 2 19 20
M  V30 20 1 20 21
M  V30 21 2 21 22
M  V30 22 1 22 23
M  V30 23 1 23 24
M  V30 24 2 24 25
M  V30 25 1 25 26
M  V30 26 1 26 27
M  V30 27 2 27 28
M  V30 28 1 28 29
M  V30 29 1 29 30
M  V30 30 2 30 31
M  V30 31 1 31 32
M  V30 32 2 32 33
M  V30 33 1 33 34
M  V30 34 1 25 35
M  V30 35 2 35 36
M  V30 36 1 15 37
M  V30 37 1 37 2
M  V30 38 1 12 6
M  V30 39 1 36 19
M  V30 40 1 35 22
M  V30 41 2 34 26
M  V30 42 1 33 29
M  V30 43 1 1 38
M  V30 44 1 1 39
M  V30 45 1 1 40
M  V30 46 1 3 41
M  V30 47 1 3 42
M  V30 48 1 4 43 CFG=1
M  V30 49 1 5 44
M  V30 50 1 5 45
M  V30 51 1 9 46
M  V30 52 1 10 47
M  V30 53 1 11 48
M  V30 54 1 14 49
M  V30 55 1 14 50
M  V30 56 1 15 51 CFG=1
M  V30 57 1 16 52
M  V30 58 1 20 53
M  V30 59 1 21 54
M  V30 60 1 23 55
M  V30 61 1 27 56
M  V30 62 1 28 57
M  V30 63 1 30 58
M  V30 64 1 31 59
M  V30 65 1 34 60
M  V30 66 1 36 61
M  V30 67 1 37 62
M  V30 68 1 37 63
M  V30 END BOND
M  V30 END CTAB
M  END
>  <Dataset>  (993) 
ChEMBL_Kinases

>  <Ligand_Instance>  (993) 
nan

>  <PDB_ID>  (993) 
nan

>  <Standardized_SMILES>  (993) 
CN1C[C@@H](Cc2c(F)cccc2F)C[C@H](NC(=O)c2ccc3[nH]nc(-c4ccn5ccnc5c4)c3c2)C1

>  <Name>  (993) 
nan

>  <Pocket>  (993) 
nan

>  <ATP_Site>  (993) 
nan

>  <Peripheral>  (993) 
nan

>  <Num_H_Atoms_ProtBoundConf>  (993) 
nan

>  <Num_Resolved_Atoms>  (993) 
nan

>  <Num_Not_Resolved_Atoms>  (993) 
nan

$$$$
CHEMBL3658457
     RDKit          3D

  0  0  0  0  0  0  0  0  0  0999 V3000
M  V30 BEGIN CTAB
M  V30 COUNTS 62 67 0 0 0
M  V30 BEGIN ATOM
M  V30 1 C -0.353263 1.712446 5.528652 0
M  V30 2 N -0.121179 1.726110 4.120525 0
M  V30 3 C 1.238635 1.314963 3.821431 0
M  V30 4 C 1.504452 1.241605 2.350437 0
M  V30 5 C 2.797482 1.974235 2.068177 0
M  V30 6 C 3.092042 1.920159 0.616436 0
M  V30 7 C 3.567084 0.687617 0.153176 0
M  V30 8 F 3.773096 -0.437576 0.906240 0
M  V30 9 C 3.880970 0.520192 -1.199559 0
M  V30 10 C 3.725822 1.563203 -2.084108 0
M  V30 11 C 3.256940 2.785696 -1.635525 0
M  V30 12 C 2.950321 2.940563 -0.299996 0
M  V30 13 F 2.491992 4.119584 0.183341 0
M  V30 14 C 0.392621 1.751547 1.492724 0
M  V30 15 C -0.978485 1.362354 1.972767 0
M  V30 16 N -1.628843 0.477982 1.036279 0
M  V30 17 C -2.816324 0.668405 0.289843 0
M  V30 18 O -3.458551 1.720684 0.393924 0
M  V30 19 C -3.312320 -0.361384 -0.615542 0
M  V30 20 C -4.477277 -0.127462 -1.316579 0
M  V30 21 C -5.020983 -1.053960 -2.201947 0
M  V30 22 C -4.361418 -2.254364 -2.380621 0
M  V30 23 N -4.588494 -3.346407 -3.131073 0
M  V30 24 N -3.631377 -4.249355 -2.938522 0
M  V30 25 C -2.723261 -3.787457 -2.044368 0
M  V30 26 C -1.519641 -4.483278 -1.566198 0
M  V30 27 C -0.693762 -5.129989 -2.483198 0
M  V30 28 C 0.462379 -5.807998 -2.094687 0
M  V30 29 N 0.793456 -5.841314 -0.800012 0
M  V30 30 N 1.818483 -6.405342 -0.184365 0
M  V30 31 C 1.732768 -6.171376 1.137429 0
M  V30 32 N 0.617198 -5.441145 1.322720 0
M  V30 33 C 0.020156 -5.228358 0.113424 0
M  V30 34 C -1.142936 -4.541514 -0.242336 0
M  V30 35 C -3.192398 -2.531077 -1.699730 0
M  V30 36 C -2.698862 -1.576454 -0.834810 0
M  V30 37 C -0.980330 0.811854 3.385880 0
M  V30 38 H -1.366134 1.312050 5.757676 0
M  V30 39 H 0.426383 1.179988 6.108035 0
M  V30 40 H -0.348687 2.759348 5.895713 0
M  V30 41 H 1.914120 2.019062 4.351846 0
M  V30 42 H 1.374139 0.323091 4.305649 0
M  V30 43 H 1.683820 0.178636 2.077772 0
M  V30 44 H 2.733407 3.046216 2.410020 0
M  V30 45 H 3.656564 1.526380 2.583137 0
M  V30 46 H 4.250060 -0.400420 -1.620057 0
M  V30 47 H 3.948578 1.503868 -3.140325 0
M  V30 48 H 3.106363 3.659464 -2.269910 0
M  V30 49 H 0.484826 2.855337 1.443018 0
M  V30 50 H 0.493009 1.382059 0.453086 0
M  V30 51 H -1.599703 2.280767 2.014258 0
M  V30 52 H -1.056205 -0.392834 0.980459 0
M  V30 53 H -5.030543 0.785705 -1.217196 0
M  V30 54 H -5.943208 -0.849081 -2.746260 0
M  V30 55 H -5.425169 -3.439681 -3.775563 0
M  V30 56 H -0.951221 -5.111270 -3.542713 0
M  V30 57 H 1.090389 -6.306389 -2.840800 0
M  V30 58 H 2.434594 -6.510533 1.903965 0
M  V30 59 H -1.755932 -4.054373 0.493947 0
M  V30 60 H -1.783762 -1.792687 -0.302103 0
M  V30 61 H -2.021571 0.879971 3.759981 0
M  V30 62 H -0.531496 -0.180303 3.459846 0
M  V30 END ATOM
M  V30 BEGIN BOND
M  V30 1 1 1 2
M  V30 2 1 2 3
M  V30 3 1 3 4
M  V30 4 1 4 5
M  V30 5 1 5 6
M  V30 6 2 6 7
M  V30 7 1 7 8
M  V30 8 1 7 9
M  V30 9 2 9 10
M  V30 10 1 10 11
M  V30 11 2 11 12
M  V30 12 1 12 13
M  V30 13 1 4 14
M  V30 14 1 14 15
M  V30 15 1 15 16
M  V30 16 1 16 17
M  V30 17 2 17 18
M  V30 18 1 17 19
M  V30 19 2 19 20
M  V30 20 1 20 21
M  V30 21 2 21 22
M  V30 22 1 22 23
M  V30 23 1 23 24
M  V30 24 2 24 25
M  V30 25 1 25 26
M  V30 26 1 26 27
M  V30 27 2 27 28
M  V30 28 1 28 29
M  V30 29 1 29 30
M  V30 30 2 30 31
M  V30 31 1 31 32
M  V30 32 2 32 33
M  V30 33 1 33 34
M  V30 34 1 25 35
M  V30 35 2 35 36
M  V30 36 1 15 37
M  V30 37 1 37 2
M  V30 38 1 12 6
M  V30 39 1 36 19
M  V30 40 1 35 22
M  V30 41 2 34 26
M  V30 42 1 33 29
M  V30 43 1 1 38
M  V30 44 1 1 39
M  V30 45 1 1 40
M  V30 46 1 3 41
M  V30 47 1 3 42
M  V30 48 1 4 43
M  V30 49 1 5 44
M  V30 50 1 5 45
M  V30 51 1 9 46
M  V30 52 1 10 47
M  V30 53 1 11 48
M  V30 54 1 14 49
M  V30 55 1 14 50
M  V30 56 1 15 51
M  V30 57 1 16 52
M  V30 58 1 20 53
M  V30 59 1 21 54
M  V30 60 1 23 55
M  V30 61 1 27 56
M  V30 62 1 28 57
M  V30 63 1 31 58
M  V30 64 1 34 59
M  V30 65 1 36 60
M  V30 66 1 37 61
M  V30 67 1 37 62
M  V30 END BOND
M  V30 END CTAB
M  END
>  <Dataset>  (994) 
ChEMBL_Kinases

>  <Ligand_Instance>  (994) 
nan

>  <PDB_ID>  (994) 
nan

>  <Standardized_SMILES>  (994) 
CN1CC(Cc2c(F)cccc2F)CC(NC(=O)c2ccc3[nH]nc(-c4ccn5ncnc5c4)c3c2)C1

>  <Name>  (994) 
nan

>  <Pocket>  (994) 
nan

>  <ATP_Site>  (994) 
nan

>  <Peripheral>  (994) 
nan

>  <Num_H_Atoms_ProtBoundConf>  (994) 
nan

>  <Num_Resolved_Atoms>  (994) 
nan

>  <Num_Not_Resolved_Atoms>  (994) 
nan

$$$$
CHEMBL3658467
     RDKit          3D

  0  0  0  0  0  0  0  0  0  0999 V3000
M  V30 BEGIN CTAB
M  V30 COUNTS 63 67 0 0 0
M  V30 BEGIN ATOM
M  V30 1 C 2.461285 4.406923 5.224123 0
M  V30 2 N 2.345789 3.265885 4.325938 0
M  V30 3 C 1.073161 2.764808 3.869511 0
M  V30 4 O 0.180150 3.483530 4.386240 0
M  V30 5 C 1.304316 1.584963 2.958705 0
M  V30 6 C 2.106675 2.037925 1.772323 0
M  V30 7 C 1.595735 3.238679 1.276858 0
M  V30 8 F 0.542041 3.927134 1.755452 0
M  V30 9 C 2.185103 3.843616 0.178028 0
M  V30 10 C 3.287700 3.218167 -0.402610 0
M  V30 11 C 3.782838 2.031958 0.096558 0
M  V30 12 C 3.198501 1.436395 1.182467 0
M  V30 13 F 3.521900 0.289273 1.823418 0
M  V30 14 N 0.018607 1.129160 2.542406 0
M  V30 15 C -0.869390 0.705525 3.562292 0
M  V30 16 C -0.716750 -0.739926 3.954388 0
M  V30 17 C -0.578919 -1.666460 2.798924 0
M  V30 18 C 0.239246 -1.131822 1.646953 0 CFG=1
M  V30 19 N -0.042589 -1.958176 0.479796 0
M  V30 20 C 0.810188 -2.803448 -0.236975 0
M  V30 21 O 2.020102 -2.972129 0.054761 0
M  V30 22 C 0.310462 -3.545488 -1.388170 0
M  V30 23 C 1.166265 -4.376857 -2.082668 0
M  V30 24 C 0.749080 -5.101982 -3.177763 0
M  V30 25 C -0.536328 -5.035837 -3.634514 0
M  V30 26 N -1.270331 -5.572668 -4.624049 0
M  V30 27 N -2.509660 -5.123335 -4.575376 0
M  V30 28 C -2.660308 -4.266041 -3.551439 0
M  V30 29 C -3.908204 -3.589001 -3.216489 0
M  V30 30 C -3.946475 -2.244306 -2.911604 0
M  V30 31 C -5.089415 -1.531998 -2.583740 0
M  V30 32 N -6.261273 -2.222080 -2.563627 0
M  V30 33 C -6.279784 -3.532567 -2.852479 0
M  V30 34 C -5.134939 -4.240853 -3.179756 0
M  V30 35 C -1.410473 -4.210249 -2.955085 0
M  V30 36 C -0.982190 -3.494161 -1.866704 0
M  V30 37 C -0.029328 0.319445 1.376978 0
M  V30 38 H 1.508789 4.890429 5.451370 0
M  V30 39 H 2.880132 4.034702 6.179100 0
M  V30 40 H 3.183482 5.143336 4.775223 0
M  V30 41 H 3.306045 2.904672 4.092382 0
M  V30 42 H 1.913734 0.862919 3.502280 0
M  V30 43 H 1.875028 4.767140 -0.286307 0
M  V30 44 H 3.791553 3.637027 -1.259502 0
M  V30 45 H 4.629228 1.483253 -0.291814 0
M  V30 46 H -0.820112 1.375481 4.443797 0
M  V30 47 H -1.907811 0.801310 3.157775 0
M  V30 48 H 0.222383 -0.814927 4.555650 0
M  V30 49 H -1.539365 -1.090474 4.599646 0
M  V30 50 H -1.621426 -1.895410 2.428210 0
M  V30 51 H -0.208303 -2.652039 3.148384 0
M  V30 52 H 1.297772 -1.226482 1.965070 0
M  V30 53 H -1.048259 -1.798425 0.262244 0
M  V30 54 H 2.205616 -4.506240 -1.809791 0
M  V30 55 H 1.421129 -5.750638 -3.717627 0
M  V30 56 H -0.911409 -6.244986 -5.325867 0
M  V30 57 H -3.047699 -1.643016 -2.910980 0
M  V30 58 H -5.073345 -0.482465 -2.352629 0
M  V30 59 H -7.219207 -4.047318 -2.827764 0
M  V30 60 H -5.179194 -5.298316 -3.408562 0
M  V30 61 H -1.682656 -2.859009 -1.356079 0
M  V30 62 H -1.017133 0.466345 0.895897 0
M  V30 63 H 0.712773 0.686562 0.647113 0
M  V30 END ATOM
M  V30 BEGIN BOND
M  V30 1 1 1 2
M  V30 2 1 2 3
M  V30 3 2 3 4
M  V30 4 1 3 5
M  V30 5 1 5 6
M  V30 6 2 6 7
M  V30 7 1 7 8
M  V30 8 1 7 9
M  V30 9 2 9 10
M  V30 10 1 10 11
M  V30 11 2 11 12
M  V30 12 1 12 13
M  V30 13 1 5 14
M  V30 14 1 14 15
M  V30 15 1 15 16
M  V30 16 1 16 17
M  V30 17 1 17 18
M  V30 18 1 18 19
M  V30 19 1 19 20
M  V30 20 2 20 21
M  V30 21 1 20 22
M  V30 22 2 22 23
M  V30 23 1 23 24
M  V30 24 2 24 25
M  V30 25 1 25 26
M  V30 26 1 26 27
M  V30 27 2 27 28
M  V30 28 1 28 29
M  V30 29 2 29 30
M  V30 30 1 30 31
M  V30 31 2 31 32
M  V30 32 1 32 33
M  V30 33 2 33 34
M  V30 34 1 28 35
M  V30 35 2 35 36
M  V30 36 1 18 37
M  V30 37 1 12 6
M  V30 38 1 37 14
M  V30 39 1 36 22
M  V30 40 1 35 25
M  V30 41 1 34 29
M  V30 42 1 1 38
M  V30 43 1 1 39
M  V30 44 1 1 40
M  V30 45 1 2 41
M  V30 46 1 5 42
M  V30 47 1 9 43
M  V30 48 1 10 44
M  V30 49 1 11 45
M  V30 50 1 15 46
M  V30 51 1 15 47
M  V30 52 1 16 48
M  V30 53 1 16 49
M  V30 54 1 17 50
M  V30 55 1 17 51
M  V30 56 1 18 52 CFG=1
M  V30 57 1 19 53
M  V30 58 1 23 54
M  V30 59 1 24 55
M  V30 60 1 26 56
M  V30 61 1 30 57
M  V30 62 1 31 58
M  V30 63 1 33 59
M  V30 64 1 34 60
M  V30 65 1 36 61
M  V30 66 1 37 62
M  V30 67 1 37 63
M  V30 END BOND
M  V30 END CTAB
M  END
>  <Dataset>  (995) 
ChEMBL_Kinases

>  <Ligand_Instance>  (995) 
nan

>  <PDB_ID>  (995) 
nan

>  <Standardized_SMILES>  (995) 
CNC(=O)C(c1c(F)cccc1F)N1CCC[C@@H](NC(=O)c2ccc3[nH]nc(-c4ccncc4)c3c2)C1

>  <Name>  (995) 
nan

>  <Pocket>  (995) 
nan

>  <ATP_Site>  (995) 
nan

>  <Peripheral>  (995) 
nan

>  <Num_H_Atoms_ProtBoundConf>  (995) 
nan

>  <Num_Resolved_Atoms>  (995) 
nan

>  <Num_Not_Resolved_Atoms>  (995) 
nan

$$$$
CHEMBL3658459
     RDKit          3D

  0  0  0  0  0  0  0  0  0  0999 V3000
M  V30 BEGIN CTAB
M  V30 COUNTS 61 66 0 0 0
M  V30 BEGIN ATOM
M  V30 1 C -1.707468 0.165537 5.341791 0
M  V30 2 N -0.701397 -0.195036 4.358657 0
M  V30 3 C 0.406914 0.708662 4.526448 0
M  V30 4 C 1.514457 0.466953 3.526775 0 CFG=2
M  V30 5 C 2.071233 1.819408 3.142559 0
M  V30 6 C 3.176783 1.736172 2.156981 0
M  V30 7 C 4.424521 1.333539 2.605435 0
M  V30 8 F 4.610300 1.027950 3.914317 0
M  V30 9 C 5.514319 1.223579 1.775824 0
M  V30 10 C 5.407078 1.516656 0.432022 0
M  V30 11 C 4.184946 1.913391 -0.019400 0
M  V30 12 C 3.078938 2.029833 0.797461 0
M  V30 13 F 1.870247 2.419563 0.363092 0
M  V30 14 C 1.001856 -0.210023 2.295520 0
M  V30 15 C -0.390922 0.315651 2.021807 0 CFG=1
M  V30 16 N -0.825239 0.002980 0.674548 0
M  V30 17 C -1.146862 0.852287 -0.416738 0
M  V30 18 O -1.092368 2.106780 -0.355606 0
M  V30 19 C -1.563276 0.258750 -1.679531 0
M  V30 20 C -1.870719 1.127108 -2.719756 0
M  V30 21 C -2.275826 0.600814 -3.951111 0
M  V30 22 C -2.386826 -0.769046 -4.185701 0
M  V30 23 N -2.731333 -1.558835 -5.206514 0
M  V30 24 N -2.645529 -2.829861 -4.831295 0
M  V30 25 C -2.239969 -2.921836 -3.545232 0
M  V30 26 C -2.036900 -4.161519 -2.804667 0
M  V30 27 C -1.352213 -5.221680 -3.390528 0
M  V30 28 C -1.154163 -6.403653 -2.698809 0
M  V30 29 C -1.624569 -6.579839 -1.406514 0
M  V30 30 N -1.600029 -7.570027 -0.491189 0
M  V30 31 O -2.216392 -7.150911 0.562376 0
M  V30 32 N -2.657935 -5.934081 0.415678 0
M  V30 33 C -2.301890 -5.532377 -0.825797 0
M  V30 34 C -2.505717 -4.345145 -1.508847 0
M  V30 35 C -2.076218 -1.623433 -3.136185 0
M  V30 36 C -1.678512 -1.089875 -1.929089 0
M  V30 37 C -1.304461 -0.209117 3.069981 0
M  V30 38 H -2.524320 -0.572891 5.412086 0
M  V30 39 H -1.257281 0.400634 6.337675 0
M  V30 40 H -2.156478 1.130733 4.988827 0
M  V30 41 H 0.079128 1.759156 4.535281 0
M  V30 42 H 0.831750 0.495735 5.540340 0
M  V30 43 H 2.368389 -0.101931 3.986996 0
M  V30 44 H 2.396286 2.369986 4.070013 0
M  V30 45 H 1.285216 2.466407 2.705201 0
M  V30 46 H 6.497229 0.907075 2.125061 0
M  V30 47 H 6.196044 1.463636 -0.303976 0
M  V30 48 H 4.007624 2.166963 -1.075660 0
M  V30 49 H 1.667120 -0.132827 1.430976 0
M  V30 50 H 0.899809 -1.307402 2.501489 0
M  V30 51 H -0.349384 1.414090 2.104547 0
M  V30 52 H -0.858774 -1.039563 0.660973 0
M  V30 53 H -1.820684 2.216166 -2.653515 0
M  V30 54 H -2.525110 1.243594 -4.790192 0
M  V30 55 H -3.020048 -1.202580 -6.144833 0
M  V30 56 H -0.962921 -5.124194 -4.412788 0
M  V30 57 H -0.618432 -7.259304 -3.131884 0
M  V30 58 H -3.040532 -3.555611 -1.014605 0
M  V30 59 H -1.446054 -1.768811 -1.140810 0
M  V30 60 H -1.558706 -1.269125 2.772985 0
M  V30 61 H -2.292544 0.320125 3.052484 0
M  V30 END ATOM
M  V30 BEGIN BOND
M  V30 1 1 1 2
M  V30 2 1 2 3
M  V30 3 1 3 4
M  V30 4 1 4 5
M  V30 5 1 5 6
M  V30 6 2 6 7
M  V30 7 1 7 8
M  V30 8 1 7 9
M  V30 9 2 9 10
M  V30 10 1 10 11
M  V30 11 2 11 12
M  V30 12 1 12 13
M  V30 13 1 4 14
M  V30 14 1 14 15
M  V30 15 1 15 16
M  V30 16 1 16 17
M  V30 17 2 17 18
M  V30 18 1 17 19
M  V30 19 2 19 20
M  V30 20 1 20 21
M  V30 21 2 21 22
M  V30 22 1 22 23
M  V30 23 1 23 24
M  V30 24 2 24 25
M  V30 25 1 25 26
M  V30 26 1 26 27
M  V30 27 2 27 28
M  V30 28 1 28 29
M  V30 29 2 29 30
M  V30 30 1 30 31
M  V30 31 1 31 32
M  V30 32 2 32 33
M  V30 33 1 33 34
M  V30 34 1 25 35
M  V30 35 2 35 36
M  V30 36 1 15 37
M  V30 37 1 37 2
M  V30 38 1 12 6
M  V30 39 1 36 19
M  V30 40 1 35 22
M  V30 41 2 34 26
M  V30 42 1 33 29
M  V30 43 1 1 38
M  V30 44 1 1 39
M  V30 45 1 1 40
M  V30 46 1 3 41
M  V30 47 1 3 42
M  V30 48 1 4 43 CFG=1
M  V30 49 1 5 44
M  V30 50 1 5 45
M  V30 51 1 9 46
M  V30 52 1 10 47
M  V30 53 1 11 48
M  V30 54 1 14 49
M  V30 55 1 14 50
M  V30 56 1 15 51 CFG=3
M  V30 57 1 16 52
M  V30 58 1 20 53
M  V30 59 1 21 54
M  V30 60 1 23 55
M  V30 61 1 27 56
M  V30 62 1 28 57
M  V30 63 1 34 58
M  V30 64 1 36 59
M  V30 65 1 37 60
M  V30 66 1 37 61
M  V30 END BOND
M  V30 END CTAB
M  END
>  <Dataset>  (996) 
ChEMBL_Kinases

>  <Ligand_Instance>  (996) 
nan

>  <PDB_ID>  (996) 
nan

>  <Standardized_SMILES>  (996) 
CN1C[C@H](Cc2c(F)cccc2F)C[C@@H](NC(=O)c2ccc3[nH]nc(-c4ccc5nonc5c4)c3c2)C1

>  <Name>  (996) 
nan

>  <Pocket>  (996) 
nan

>  <ATP_Site>  (996) 
nan

>  <Peripheral>  (996) 
nan

>  <Num_H_Atoms_ProtBoundConf>  (996) 
nan

>  <Num_Resolved_Atoms>  (996) 
nan

>  <Num_Not_Resolved_Atoms>  (996) 
nan

$$$$
CHEMBL3658460
     RDKit          3D

  0  0  0  0  0  0  0  0  0  0999 V3000
M  V30 BEGIN CTAB
M  V30 COUNTS 62 67 0 0 0
M  V30 BEGIN ATOM
M  V30 1 C 0.555802 2.046177 5.875253 0
M  V30 2 N 0.751924 1.265835 4.693718 0
M  V30 3 C 1.562149 2.002656 3.726192 0
M  V30 4 C 0.710139 2.978263 2.988576 0
M  V30 5 C 1.492420 3.946843 2.175953 0
M  V30 6 C 2.323701 3.408791 1.097130 0
M  V30 7 C 3.541446 2.780714 1.149624 0
M  V30 8 F 4.117158 2.646944 2.361662 0
M  V30 9 C 4.135831 2.333607 -0.012005 0
M  V30 10 C 3.599769 2.462660 -1.277432 0
M  V30 11 C 2.362503 3.100464 -1.345764 0
M  V30 12 C 1.760195 3.552502 -0.181320 0
M  V30 13 F 0.577409 4.165423 -0.506169 0
M  V30 14 C -0.347862 2.254100 2.181391 0
M  V30 15 C -0.425238 0.774900 2.615678 0
M  V30 16 N -1.625447 0.220716 2.060153 0
M  V30 17 C -1.394467 -0.899062 1.231578 0
M  V30 18 O -0.225572 -1.385882 1.027367 0
M  V30 19 C -2.501302 -1.580551 0.538620 0
M  V30 20 C -3.809093 -1.122908 0.698328 0
M  V30 21 C -4.870633 -1.697466 0.001051 0
M  V30 22 C -4.611591 -2.739816 -0.860719 0
M  V30 23 N -5.375050 -3.464158 -1.691951 0
M  V30 24 N -4.568180 -4.304548 -2.307753 0
M  V30 25 C -3.296148 -4.165205 -1.914328 0
M  V30 26 C -2.273489 -5.008806 -2.558068 0
M  V30 27 N -1.358189 -5.527832 -2.825075 0
M  V30 28 C -0.724544 -6.247503 -3.642018 0
M  V30 29 C -0.296351 -7.036651 -4.708517 0
M  V30 30 C 0.966532 -7.552186 -4.710455 0
M  V30 31 C 1.934600 -7.391959 -3.750343 0
M  V30 32 C 1.638314 -6.629431 -2.638631 0
M  V30 33 C 0.272860 -6.099727 -2.683391 0
M  V30 34 S -0.662638 -5.041699 -1.487945 0
M  V30 35 C -3.311440 -3.159404 -0.985046 0
M  V30 36 C -2.241756 -2.623331 -0.319083 0
M  V30 37 C -0.510816 0.813576 4.109864 0
M  V30 38 H -0.210136 1.552714 6.555106 0
M  V30 39 H 1.500112 2.020846 6.460985 0
M  V30 40 H 0.279708 3.106689 5.706461 0
M  V30 41 H 2.313458 2.547874 4.335090 0
M  V30 42 H 1.999565 1.294456 3.020445 0
M  V30 43 H 0.163145 3.589761 3.762603 0
M  V30 44 H 2.179891 4.525853 2.889602 0
M  V30 45 H 0.829627 4.774183 1.791755 0
M  V30 46 H 5.103293 1.836478 0.043325 0
M  V30 47 H 4.095525 2.094970 -2.174371 0
M  V30 48 H 1.958028 3.187541 -2.353231 0
M  V30 49 H -1.359557 2.657820 2.391397 0
M  V30 50 H -0.187697 2.257616 1.108647 0
M  V30 51 H 0.483499 0.264830 2.256113 0
M  V30 52 H -2.575051 0.603928 2.248818 0
M  V30 53 H -4.092984 -0.314172 1.354278 0
M  V30 54 H -5.875744 -1.370702 0.103698 0
M  V30 55 H -6.406336 -3.370302 -1.812876 0
M  V30 56 H -1.035468 -7.173852 -5.465910 0
M  V30 57 H 1.283421 -8.179498 -5.566094 0
M  V30 58 H 2.930731 -7.775940 -3.707712 0
M  V30 59 H 2.285136 -6.404828 -1.792262 0
M  V30 60 H -1.235626 -2.959107 -0.435324 0
M  V30 61 H -1.335925 1.516294 4.356452 0
M  V30 62 H -0.764741 -0.181738 4.480589 0
M  V30 END ATOM
M  V30 BEGIN BOND
M  V30 1 1 1 2
M  V30 2 1 2 3
M  V30 3 1 3 4
M  V30 4 1 4 5
M  V30 5 1 5 6
M  V30 6 2 6 7
M  V30 7 1 7 8
M  V30 8 1 7 9
M  V30 9 2 9 10
M  V30 10 1 10 11
M  V30 11 2 11 12
M  V30 12 1 12 13
M  V30 13 1 4 14
M  V30 14 1 14 15
M  V30 15 1 15 16
M  V30 16 1 16 17
M  V30 17 2 17 18
M  V30 18 1 17 19
M  V30 19 2 19 20
M  V30 20 1 20 21
M  V30 21 2 21 22
M  V30 22 1 22 23
M  V30 23 1 23 24
M  V30 24 2 24 25
M  V30 25 1 25 26
M  V30 26 2 26 27
M  V30 27 1 27 28
M  V30 28 2 28 29
M  V30 29 1 29 30
M  V30 30 2 30 31
M  V30 31 1 31 32
M  V30 32 2 32 33
M  V30 33 1 33 34
M  V30 34 1 25 35
M  V30 35 2 35 36
M  V30 36 1 15 37
M  V30 37 1 37 2
M  V30 38 1 12 6
M  V30 39 1 36 19
M  V30 40 1 35 22
M  V30 41 1 34 26
M  V30 42 1 33 28
M  V30 43 1 1 38
M  V30 44 1 1 39
M  V30 45 1 1 40
M  V30 46 1 3 41
M  V30 47 1 3 42
M  V30 48 1 4 43
M  V30 49 1 5 44
M  V30 50 1 5 45
M  V30 51 1 9 46
M  V30 52 1 10 47
M  V30 53 1 11 48
M  V30 54 1 14 49
M  V30 55 1 14 50
M  V30 56 1 15 51
M  V30 57 1 16 52
M  V30 58 1 20 53
M  V30 59 1 21 54
M  V30 60 1 23 55
M  V30 61 1 29 56
M  V30 62 1 30 57
M  V30 63 1 31 58
M  V30 64 1 32 59
M  V30 65 1 36 60
M  V30 66 1 37 61
M  V30 67 1 37 62
M  V30 END BOND
M  V30 END CTAB
M  END
>  <Dataset>  (997) 
ChEMBL_Kinases

>  <Ligand_Instance>  (997) 
nan

>  <PDB_ID>  (997) 
nan

>  <Standardized_SMILES>  (997) 
CN1CC(Cc2c(F)cccc2F)CC(NC(=O)c2ccc3[nH]nc(-c4nc5ccccc5s4)c3c2)C1

>  <Name>  (997) 
nan

>  <Pocket>  (997) 
nan

>  <ATP_Site>  (997) 
nan

>  <Peripheral>  (997) 
nan

>  <Num_H_Atoms_ProtBoundConf>  (997) 
nan

>  <Num_Resolved_Atoms>  (997) 
nan

>  <Num_Not_Resolved_Atoms>  (997) 
nan

$$$$
CHEMBL3658461
     RDKit          3D

  0  0  0  0  0  0  0  0  0  0999 V3000
M  V30 BEGIN CTAB
M  V30 COUNTS 62 67 0 0 0
M  V30 BEGIN ATOM
M  V30 1 C -0.017434 1.390740 5.272279 0
M  V30 2 N 0.020463 2.315016 4.188496 0
M  V30 3 C 1.313285 2.342969 3.519531 0
M  V30 4 C 1.259765 3.124195 2.245673 0
M  V30 5 C 2.594397 3.449275 1.687351 0
M  V30 6 C 3.475022 2.329625 1.335387 0
M  V30 7 C 4.268734 1.532531 2.125927 0
M  V30 8 F 4.293192 1.827591 3.445061 0
M  V30 9 C 5.051488 0.487861 1.689033 0
M  V30 10 C 5.060511 0.193646 0.350333 0
M  V30 11 C 4.285458 0.951915 -0.523014 0
M  V30 12 C 3.521393 1.987138 -0.022996 0
M  V30 13 F 2.847494 2.606725 -1.049346 0
M  V30 14 C 0.266401 2.564036 1.265135 0
M  V30 15 C -0.577887 1.531992 2.030752 0
M  V30 16 N -1.592955 1.095044 1.094552 0
M  V30 17 C -1.565865 -0.213069 0.541553 0
M  V30 18 O -0.610757 -0.912590 0.934941 0
M  V30 19 C -2.576838 -0.686846 -0.407097 0
M  V30 20 C -3.672105 0.045941 -0.817771 0
M  V30 21 C -4.575816 -0.492014 -1.726993 0
M  V30 22 C -4.425612 -1.757829 -2.252480 0
M  V30 23 N -5.076873 -2.570300 -3.120704 0
M  V30 24 N -4.434030 -3.732065 -3.246011 0
M  V30 25 C -3.331014 -3.729262 -2.462388 0
M  V30 26 C -2.406511 -4.851488 -2.375466 0
M  V30 27 C -1.900815 -5.580851 -3.448079 0
M  V30 28 C -1.038018 -6.620729 -3.316036 0
M  V30 29 C -0.590614 -7.039722 -2.088777 0
M  V30 30 N 0.228248 -7.999651 -1.712503 0
M  V30 31 C 0.582446 -8.322667 -0.666412 0
M  V30 32 S -0.334763 -7.083788 0.479212 0
M  V30 33 C -1.132965 -6.267477 -1.029580 0
M  V30 34 C -2.032295 -5.175423 -1.092268 0
M  V30 35 C -3.334559 -2.493558 -1.846417 0
M  V30 36 C -2.443506 -1.950324 -0.943425 0
M  V30 37 C -1.073156 2.210391 3.248669 0
M  V30 38 H -0.834683 0.645552 5.195856 0
M  V30 39 H 0.934420 0.812714 5.275731 0
M  V30 40 H -0.047534 1.958487 6.225825 0
M  V30 41 H 1.982947 2.880789 4.222738 0
M  V30 42 H 1.711195 1.312937 3.420498 0
M  V30 43 H 0.813702 4.130802 2.555285 0
M  V30 44 H 3.147385 4.025020 2.493190 0
M  V30 45 H 2.523026 4.164129 0.822886 0
M  V30 46 H 5.632766 -0.067023 2.412175 0
M  V30 47 H 5.685099 -0.630604 0.045296 0
M  V30 48 H 4.368163 0.636747 -1.535416 0
M  V30 49 H -0.424792 3.343270 0.858834 0
M  V30 50 H 0.685435 2.050412 0.403385 0
M  V30 51 H 0.132009 0.743420 2.293786 0
M  V30 52 H -2.348600 1.766253 0.833398 0
M  V30 53 H -3.792463 1.027752 -0.412839 0
M  V30 54 H -5.435105 0.079597 -2.050995 0
M  V30 55 H -5.960882 -2.259233 -3.592298 0
M  V30 56 H -2.253056 -5.254022 -4.441985 0
M  V30 57 H -0.726730 -7.096657 -4.229241 0
M  V30 58 H 1.311753 -9.193578 -0.480087 0
M  V30 59 H -2.287129 -4.767519 -0.143881 0
M  V30 60 H -1.593426 -2.534275 -0.634883 0
M  V30 61 H -1.473775 3.229247 3.051959 0
M  V30 62 H -1.874811 1.666566 3.788368 0
M  V30 END ATOM
M  V30 BEGIN BOND
M  V30 1 1 1 2
M  V30 2 1 2 3
M  V30 3 1 3 4
M  V30 4 1 4 5
M  V30 5 1 5 6
M  V30 6 2 6 7
M  V30 7 1 7 8
M  V30 8 1 7 9
M  V30 9 2 9 10
M  V30 10 1 10 11
M  V30 11 2 11 12
M  V30 12 1 12 13
M  V30 13 1 4 14
M  V30 14 1 14 15
M  V30 15 1 15 16
M  V30 16 1 16 17
M  V30 17 2 17 18
M  V30 18 1 17 19
M  V30 19 2 19 20
M  V30 20 1 20 21
M  V30 21 2 21 22
M  V30 22 1 22 23
M  V30 23 1 23 24
M  V30 24 2 24 25
M  V30 25 1 25 26
M  V30 26 2 26 27
M  V30 27 1 27 28
M  V30 28 2 28 29
M  V30 29 1 29 30
M  V30 30 2 30 31
M  V30 31 1 31 32
M  V30 32 1 32 33
M  V30 33 2 33 34
M  V30 34 1 25 35
M  V30 35 2 35 36
M  V30 36 1 15 37
M  V30 37 1 37 2
M  V30 38 1 12 6
M  V30 39 1 36 19
M  V30 40 1 35 22
M  V30 41 1 34 26
M  V30 42 1 33 29
M  V30 43 1 1 38
M  V30 44 1 1 39
M  V30 45 1 1 40
M  V30 46 1 3 41
M  V30 47 1 3 42
M  V30 48 1 4 43
M  V30 49 1 5 44
M  V30 50 1 5 45
M  V30 51 1 9 46
M  V30 52 1 10 47
M  V30 53 1 11 48
M  V30 54 1 14 49
M  V30 55 1 14 50
M  V30 56 1 15 51
M  V30 57 1 16 52
M  V30 58 1 20 53
M  V30 59 1 21 54
M  V30 60 1 23 55
M  V30 61 1 27 56
M  V30 62 1 28 57
M  V30 63 1 31 58
M  V30 64 1 34 59
M  V30 65 1 36 60
M  V30 66 1 37 61
M  V30 67 1 37 62
M  V30 END BOND
M  V30 END CTAB
M  END
>  <Dataset>  (998) 
ChEMBL_Kinases

>  <Ligand_Instance>  (998) 
nan

>  <PDB_ID>  (998) 
nan

>  <Standardized_SMILES>  (998) 
CN1CC(Cc2c(F)cccc2F)CC(NC(=O)c2ccc3[nH]nc(-c4ccc5ncsc5c4)c3c2)C1

>  <Name>  (998) 
nan

>  <Pocket>  (998) 
nan

>  <ATP_Site>  (998) 
nan

>  <Peripheral>  (998) 
nan

>  <Num_H_Atoms_ProtBoundConf>  (998) 
nan

>  <Num_Resolved_Atoms>  (998) 
nan

>  <Num_Not_Resolved_Atoms>  (998) 
nan

$$$$
CHEMBL3658462
     RDKit          3D

  0  0  0  0  0  0  0  0  0  0999 V3000
M  V30 BEGIN CTAB
M  V30 COUNTS 61 66 0 0 0
M  V30 BEGIN ATOM
M  V30 1 C -2.671339 1.602999 4.125629 0
M  V30 2 N -1.766251 0.513362 3.945972 0
M  V30 3 C -0.499430 0.617155 4.556686 0
M  V30 4 C 0.697333 0.691673 3.658341 0
M  V30 5 C 1.358007 2.046654 3.694689 0
M  V30 6 C 2.530725 2.051903 2.792900 0
M  V30 7 C 3.696922 1.386086 3.183073 0
M  V30 8 F 3.759405 0.721278 4.381634 0
M  V30 9 C 4.801998 1.391645 2.360640 0
M  V30 10 C 4.809510 2.037498 1.146701 0
M  V30 11 C 3.665557 2.715047 0.718256 0
M  V30 12 C 2.568746 2.699577 1.552785 0
M  V30 13 F 1.444503 3.360876 1.149138 0
M  V30 14 C 0.484576 0.259080 2.270332 0
M  V30 15 C -0.913821 0.461639 1.738492 0
M  V30 16 N -1.026470 -0.014932 0.403722 0
M  V30 17 C -1.274456 0.582380 -0.855521 0
M  V30 18 O -1.457406 1.843385 -0.960495 0
M  V30 19 C -1.336688 -0.178567 -2.093590 0
M  V30 20 C -1.572088 0.535788 -3.268697 0
M  V30 21 C -1.635498 -0.183962 -4.469940 0
M  V30 22 C -1.476245 -1.557032 -4.538463 0
M  V30 23 N -1.488321 -2.465969 -5.526521 0
M  V30 24 N -1.274976 -3.666674 -5.004070 0
M  V30 25 C -1.117461 -3.591438 -3.667053 0
M  V30 26 C -0.868689 -4.711929 -2.766440 0
M  V30 27 C 0.051687 -5.712810 -2.979335 0
M  V30 28 C 0.170596 -6.721055 -2.037073 0
M  V30 29 C -0.624788 -6.702738 -0.919328 0
M  V30 30 N -0.404155 -7.819866 -0.003797 0
M  V30 31 S -1.675149 -7.299286 1.238334 0
M  V30 32 N -2.223654 -5.948034 0.533313 0
M  V30 33 C -1.525894 -5.741545 -0.690560 0
M  V30 34 C -1.632755 -4.754241 -1.626564 0
M  V30 35 C -1.244224 -2.251840 -3.369138 0
M  V30 36 C -1.181996 -1.543272 -2.188995 0
M  V30 37 C -1.851577 -0.185389 2.710614 0
M  V30 38 H -3.712170 1.193115 4.081821 0
M  V30 39 H -2.537796 2.004873 5.137155 0
M  V30 40 H -2.532828 2.427804 3.405642 0
M  V30 41 H -0.414839 -0.185619 5.319773 0
M  V30 42 H -0.507409 1.569420 5.164803 0
M  V30 43 H 1.469983 -0.003991 4.103782 0
M  V30 44 H 0.655380 2.821523 3.318264 0
M  V30 45 H 1.722952 2.288365 4.720204 0
M  V30 46 H 5.724655 0.874515 2.648101 0
M  V30 47 H 5.674808 2.056214 0.477884 0
M  V30 48 H 3.580255 3.256078 -0.233772 0
M  V30 49 H 1.173127 0.711913 1.534671 0
M  V30 50 H 0.669591 -0.852056 2.167412 0
M  V30 51 H -1.083085 1.554161 1.735676 0
M  V30 52 H -0.876723 -1.044043 0.487922 0
M  V30 53 H -1.711324 1.617840 -3.323438 0
M  V30 54 H -1.817616 0.367583 -5.377566 0
M  V30 55 H -1.647419 -2.197783 -6.523128 0
M  V30 56 H 0.633080 -5.644276 -3.886689 0
M  V30 57 H 0.923298 -7.438683 -2.323794 0
M  V30 58 H -2.375533 -4.001290 -1.402625 0
M  V30 59 H -0.999074 -2.066846 -1.265445 0
M  V30 60 H -1.439220 -1.222637 2.888088 0
M  V30 61 H -2.896137 -0.214245 2.385018 0
M  V30 END ATOM
M  V30 BEGIN BOND
M  V30 1 1 1 2
M  V30 2 1 2 3
M  V30 3 1 3 4
M  V30 4 1 4 5
M  V30 5 1 5 6
M  V30 6 2 6 7
M  V30 7 1 7 8
M  V30 8 1 7 9
M  V30 9 2 9 10
M  V30 10 1 10 11
M  V30 11 2 11 12
M  V30 12 1 12 13
M  V30 13 1 4 14
M  V30 14 1 14 15
M  V30 15 1 15 16
M  V30 16 1 16 17
M  V30 17 2 17 18
M  V30 18 1 17 19
M  V30 19 2 19 20
M  V30 20 1 20 21
M  V30 21 2 21 22
M  V30 22 1 22 23
M  V30 23 1 23 24
M  V30 24 2 24 25
M  V30 25 1 25 26
M  V30 26 1 26 27
M  V30 27 2 27 28
M  V30 28 1 28 29
M  V30 29 2 29 30
M  V30 30 1 30 31
M  V30 31 1 31 32
M  V30 32 2 32 33
M  V30 33 1 33 34
M  V30 34 1 25 35
M  V30 35 2 35 36
M  V30 36 1 15 37
M  V30 37 1 37 2
M  V30 38 1 12 6
M  V30 39 1 36 19
M  V30 40 1 35 22
M  V30 41 2 34 26
M  V30 42 1 33 29
M  V30 43 1 1 38
M  V30 44 1 1 39
M  V30 45 1 1 40
M  V30 46 1 3 41
M  V30 47 1 3 42
M  V30 48 1 4 43
M  V30 49 1 5 44
M  V30 50 1 5 45
M  V30 51 1 9 46
M  V30 52 1 10 47
M  V30 53 1 11 48
M  V30 54 1 14 49
M  V30 55 1 14 50
M  V30 56 1 15 51
M  V30 57 1 16 52
M  V30 58 1 20 53
M  V30 59 1 21 54
M  V30 60 1 23 55
M  V30 61 1 27 56
M  V30 62 1 28 57
M  V30 63 1 34 58
M  V30 64 1 36 59
M  V30 65 1 37 60
M  V30 66 1 37 61
M  V30 END BOND
M  V30 END CTAB
M  END
>  <Dataset>  (999) 
ChEMBL_Kinases

>  <Ligand_Instance>  (999) 
nan

>  <PDB_ID>  (999) 
nan

>  <Standardized_SMILES>  (999) 
CN1CC(Cc2c(F)cccc2F)CC(NC(=O)c2ccc3[nH]nc(-c4ccc5nsnc5c4)c3c2)C1

>  <Name>  (999) 
nan

>  <Pocket>  (999) 
nan

>  <ATP_Site>  (999) 
nan

>  <Peripheral>  (999) 
nan

>  <Num_H_Atoms_ProtBoundConf>  (999) 
nan

>  <Num_Resolved_Atoms>  (999) 
nan

>  <Num_Not_Resolved_Atoms>  (999) 
nan

$$$$
