CHEMBL4475709
     RDKit          3D

  0  0  0  0  0  0  0  0  0  0999 V3000
M  V30 BEGIN CTAB
M  V30 COUNTS 44 48 0 0 0
M  V30 BEGIN ATOM
M  V30 1 O 3.787390 2.963423 1.745354 0
M  V30 2 S 3.052118 1.936602 0.916355 0
M  V30 3 O 2.576227 0.899241 1.894724 0
M  V30 4 C 4.189377 1.272801 -0.203407 0
M  V30 5 C 5.580229 1.495162 -0.423062 0
M  V30 6 C 6.207030 0.810439 -1.405629 0
M  V30 7 C 5.480568 -0.125228 -2.213053 0
M  V30 8 S 3.761122 0.019892 -1.468345 0
M  V30 9 N 1.765467 2.754531 0.146092 0
M  V30 10 C 1.041930 1.850089 -0.668092 0
M  V30 11 C 0.342110 0.715843 -0.002409 0
M  V30 12 C -0.334206 1.093906 1.261054 0
M  V30 13 C -0.045377 2.404551 1.709807 0
M  V30 14 S -0.996709 2.611602 3.189396 0
M  V30 15 C -1.725350 0.964083 3.144744 0
M  V30 16 N -2.566227 0.472219 4.016071 0
M  V30 17 C -3.021827 -0.777084 3.851817 0
M  V30 18 N -2.536788 -1.387805 2.771608 0
M  V30 19 C -1.680162 -0.886145 1.884470 0
M  V30 20 N -1.332615 -1.784445 0.846789 0
M  V30 21 C -1.820402 -3.101768 0.750965 0
M  V30 22 C -2.039105 -3.869348 1.894077 0
M  V30 23 C -2.537925 -5.149211 1.879693 0
M  V30 24 C -2.849194 -5.733157 0.667937 0
M  V30 25 C -2.668576 -5.059974 -0.503514 0
M  V30 26 F -2.954266 -5.579180 -1.717428 0
M  V30 27 C -2.168446 -3.790240 -0.411640 0
M  V30 28 C -1.193146 0.386242 2.015932 0
M  V30 29 C 0.882292 3.414006 1.085551 0
M  V30 30 H 5.987475 2.220306 0.255840 0
M  V30 31 H 7.260919 0.980699 -1.570347 0
M  V30 32 H 5.953466 -0.689124 -3.007509 0
M  V30 33 H 0.248696 2.461152 -1.193894 0
M  V30 34 H 1.689268 1.491674 -1.492350 0
M  V30 35 H 1.002682 -0.153999 0.113415 0
M  V30 36 H -0.508801 0.378756 -0.686024 0
M  V30 37 H -3.713774 -1.241254 4.528336 0
M  V30 38 H -0.717150 -1.748013 0.015457 0
M  V30 39 H -1.834333 -3.557498 2.904487 0
M  V30 40 H -2.721735 -5.773600 2.731809 0
M  V30 41 H -3.244438 -6.736060 0.595595 0
M  V30 42 H -2.016589 -3.234904 -1.340658 0
M  V30 43 H 1.476926 3.927764 1.859655 0
M  V30 44 H 0.339735 4.182239 0.507919 0
M  V30 END ATOM
M  V30 BEGIN BOND
M  V30 1 2 1 2
M  V30 2 2 2 3
M  V30 3 1 2 4
M  V30 4 2 4 5
M  V30 5 1 5 6
M  V30 6 2 6 7
M  V30 7 1 7 8
M  V30 8 1 2 9
M  V30 9 1 9 10
M  V30 10 1 10 11
M  V30 11 1 11 12
M  V30 12 2 12 13
M  V30 13 1 13 14
M  V30 14 1 14 15
M  V30 15 2 15 16
M  V30 16 1 16 17
M  V30 17 2 17 18
M  V30 18 1 18 19
M  V30 19 1 19 20
M  V30 20 1 20 21
M  V30 21 2 21 22
M  V30 22 1 22 23
M  V30 23 2 23 24
M  V30 24 1 24 25
M  V30 25 1 25 26
M  V30 26 2 25 27
M  V30 27 2 19 28
M  V30 28 1 13 29
M  V30 29 1 8 4
M  V30 30 1 29 9
M  V30 31 1 28 12
M  V30 32 1 28 15
M  V30 33 1 27 21
M  V30 34 1 5 30
M  V30 35 1 6 31
M  V30 36 1 7 32
M  V30 37 1 10 33
M  V30 38 1 10 34
M  V30 39 1 11 35
M  V30 40 1 11 36
M  V30 41 1 17 37
M  V30 42 1 20 38
M  V30 43 1 22 39
M  V30 44 1 23 40
M  V30 45 1 24 41
M  V30 46 1 27 42
M  V30 47 1 29 43
M  V30 48 1 29 44
M  V30 END BOND
M  V30 END CTAB
M  END
>  <Dataset>  (1) 
ChEMBL_Kinases

>  <Ligand_Instance>  (1) 
nan

>  <PDB_ID>  (1) 
nan

>  <Standardized_SMILES>  (1) 
O=S(=O)(c1cccs1)N1CCc2c(sc3ncnc(Nc4cccc(F)c4)c23)C1

>  <Name>  (1) 
nan

>  <Pocket>  (1) 
nan

>  <ATP_Site>  (1) 
nan

>  <Peripheral>  (1) 
nan

>  <Num_H_Atoms_ProtBoundConf>  (1) 
nan

>  <Num_Resolved_Atoms>  (1) 
nan

>  <Num_Not_Resolved_Atoms>  (1) 
nan

$$$$
CHEMBL4649879
     RDKit          3D

  0  0  0  0  0  0  0  0  0  0999 V3000
M  V30 BEGIN CTAB
M  V30 COUNTS 68 71 0 0 0
M  V30 BEGIN ATOM
M  V30 1 C 3.322181 -6.023169 1.528109 0
M  V30 2 C 4.200100 -4.756322 1.503280 0
M  V30 3 O 3.314976 -3.702260 1.490260 0
M  V30 4 C 3.461625 -2.376255 1.473470 0
M  V30 5 O 4.565516 -2.968233 1.482066 0
M  V30 6 C 3.322671 -0.947081 1.454970 0
M  V30 7 C 4.519910 -0.263544 1.459667 0
M  V30 8 N 4.442822 1.068477 1.458211 0
M  V30 9 C 3.264872 1.678802 1.452507 0
M  V30 10 C 3.272743 3.053585 1.450850 0
M  V30 11 C 2.110186 3.760051 1.444226 0
M  V30 12 C 0.939570 3.070073 1.439360 0
M  V30 13 C -0.363246 3.725291 1.432521 0
M  V30 14 C -1.510601 2.949470 1.428019 0
M  V30 15 C -2.788863 3.486502 1.421958 0
M  V30 16 C -2.959126 4.855012 1.420226 0
M  V30 17 C -4.270146 5.491296 1.414696 0
M  V30 18 N -5.485034 4.762607 1.411581 0
M  V30 19 O -4.441150 6.753989 1.412252 0
M  V30 20 C -1.831106 5.647333 1.424601 0
M  V30 21 C -0.567547 5.087274 1.430552 0
M  V30 22 N 0.938184 1.726880 1.440995 0
M  V30 23 C 2.072418 1.001571 1.447460 0
M  V30 24 C 2.080350 -0.377297 1.448404 0
M  V30 25 N 0.854494 -1.050924 1.425855 0
M  V30 26 C 0.292777 -2.365998 1.360164 0 CFG=1
M  V30 27 C -1.197602 -2.419939 1.639779 0
M  V30 28 C -1.975911 -3.271125 0.690063 0
M  V30 29 C -1.925668 -2.709092 -0.734525 0 CFG=2
M  V30 30 C -2.401622 -3.733664 -1.719695 0
M  V30 31 N -2.423249 -3.388494 -3.065528 0
M  V30 32 C -3.294266 -2.430292 -3.582775 0
M  V30 33 C -1.354696 -3.725126 -3.927877 0
M  V30 34 C -0.512002 -2.323353 -1.007336 0
M  V30 35 C 0.444022 -2.986548 -0.020941 0
M  V30 36 H 2.299079 -5.806748 1.118728 0
M  V30 37 H 3.159204 -6.383241 2.551472 0
M  V30 38 H 3.745674 -6.769166 0.829320 0
M  V30 39 H 4.868352 -4.839844 0.595100 0
M  V30 40 H 4.856297 -4.868060 2.376079 0
M  V30 41 H 5.489788 -0.740768 1.464397 0
M  V30 42 H 4.206962 3.598119 1.454832 0
M  V30 43 H 2.133173 4.836755 1.442459 0
M  V30 44 H -1.463390 1.851894 1.429085 0
M  V30 45 H -3.672350 2.858409 1.418201 0
M  V30 46 H -5.998242 3.909253 1.709652 0
M  V30 47 H -5.408218 3.860005 1.932520 0
M  V30 48 H -1.974426 6.719544 1.422971 0
M  V30 49 H 0.301176 5.727394 1.433684 0
M  V30 50 H 0.003409 -0.425141 1.466373 0
M  V30 51 H 0.794771 -3.006203 2.108506 0
M  V30 52 H -1.385850 -2.826840 2.659914 0
M  V30 53 H -1.610891 -1.403922 1.621703 0
M  V30 54 H -3.056351 -3.166985 1.010697 0
M  V30 55 H -1.771940 -4.340483 0.721951 0
M  V30 56 H -2.610978 -1.825410 -0.730837 0
M  V30 57 H -1.732105 -4.640766 -1.604184 0
M  V30 58 H -3.413266 -4.144140 -1.432757 0
M  V30 59 H -2.882172 -2.076514 -4.572439 0
M  V30 60 H -4.322432 -2.783459 -3.816557 0
M  V30 61 H -3.301610 -1.510619 -2.959992 0
M  V30 62 H -1.755810 -4.181647 -4.884915 0
M  V30 63 H -0.612141 -4.413977 -3.471166 0
M  V30 64 H -0.760458 -2.846359 -4.315517 0
M  V30 65 H -0.448426 -1.204137 -0.923458 0
M  V30 66 H -0.185551 -2.568503 -2.014777 0
M  V30 67 H 0.113695 -4.042435 0.069033 0
M  V30 68 H 1.460226 -3.026363 -0.402737 0
M  V30 END ATOM
M  V30 BEGIN BOND
M  V30 1 1 1 2
M  V30 2 1 2 3
M  V30 3 1 3 4
M  V30 4 2 4 5
M  V30 5 1 4 6
M  V30 6 2 6 7
M  V30 7 1 7 8
M  V30 8 2 8 9
M  V30 9 1 9 10
M  V30 10 2 10 11
M  V30 11 1 11 12
M  V30 12 1 12 13
M  V30 13 2 13 14
M  V30 14 1 14 15
M  V30 15 2 15 16
M  V30 16 1 16 17
M  V30 17 1 17 18
M  V30 18 2 17 19
M  V30 19 1 16 20
M  V30 20 2 20 21
M  V30 21 2 12 22
M  V30 22 1 22 23
M  V30 23 2 23 24
M  V30 24 1 24 25
M  V30 25 1 25 26
M  V30 26 1 26 27
M  V30 27 1 27 28
M  V30 28 1 28 29
M  V30 29 1 29 30
M  V30 30 1 30 31
M  V30 31 1 31 32
M  V30 32 1 31 33
M  V30 33 1 29 34
M  V30 34 1 34 35
M  V30 35 1 24 6
M  V30 36 1 35 26
M  V30 37 1 23 9
M  V30 38 1 21 13
M  V30 39 1 1 36
M  V30 40 1 1 37
M  V30 41 1 1 38
M  V30 42 1 2 39
M  V30 43 1 2 40
M  V30 44 1 7 41
M  V30 45 1 10 42
M  V30 46 1 11 43
M  V30 47 1 14 44
M  V30 48 1 15 45
M  V30 49 1 18 46
M  V30 50 1 18 47
M  V30 51 1 20 48
M  V30 52 1 21 49
M  V30 53 1 25 50
M  V30 54 1 26 51 CFG=1
M  V30 55 1 27 52
M  V30 56 1 27 53
M  V30 57 1 28 54
M  V30 58 1 28 55
M  V30 59 1 29 56 CFG=1
M  V30 60 1 30 57
M  V30 61 1 30 58
M  V30 62 1 32 59
M  V30 63 1 32 60
M  V30 64 1 32 61
M  V30 65 1 33 62
M  V30 66 1 33 63
M  V30 67 1 33 64
M  V30 68 1 34 65
M  V30 69 1 34 66
M  V30 70 1 35 67
M  V30 71 1 35 68
M  V30 END BOND
M  V30 END CTAB
M  END
>  <Dataset>  (2) 
ChEMBL_Kinases

>  <Ligand_Instance>  (2) 
nan

>  <PDB_ID>  (2) 
nan

>  <Standardized_SMILES>  (2) 
CCOC(=O)c1cnc2ccc(-c3ccc(C(N)=O)cc3)nc2c1N[C@H]1CC[C@H](CN(C)C)CC1

>  <Name>  (2) 
nan

>  <Pocket>  (2) 
nan

>  <ATP_Site>  (2) 
nan

>  <Peripheral>  (2) 
nan

>  <Num_H_Atoms_ProtBoundConf>  (2) 
nan

>  <Num_Resolved_Atoms>  (2) 
nan

>  <Num_Not_Resolved_Atoms>  (2) 
nan

$$$$
CHEMBL4475667
     RDKit          3D

  0  0  0  0  0  0  0  0  0  0999 V3000
M  V30 BEGIN CTAB
M  V30 COUNTS 52 56 0 0 0
M  V30 BEGIN ATOM
M  V30 1 C -0.326990 1.138602 -7.257685 0
M  V30 2 N 0.301386 1.081641 -5.937499 0
M  V30 3 C 0.175346 0.062423 -5.053304 0
M  V30 4 C 0.931968 0.439858 -3.960971 0
M  V30 5 C 1.055046 -0.401770 -2.775798 0
M  V30 6 C 1.009947 -1.768172 -2.952101 0
M  V30 7 C 1.122119 -2.607604 -1.867043 0
M  V30 8 C 1.281216 -2.189715 -0.569377 0
M  V30 9 C 1.321559 -0.816904 -0.412268 0
M  V30 10 C 1.215141 0.057101 -1.470076 0
M  V30 11 C 1.442361 0.010876 0.784184 0
M  V30 12 O 2.589273 0.395811 1.030652 0
M  V30 13 N 0.755278 0.597674 1.853906 0
M  V30 14 C 0.070908 1.188333 2.928896 0
M  V30 15 C -0.250601 2.493471 3.038905 0
M  V30 16 C -0.953793 2.798658 4.179053 0
M  V30 17 C -1.284733 1.830602 5.102169 0
M  V30 18 C -0.917086 0.530369 4.903901 0
M  V30 19 N -0.240674 0.246244 3.812025 0
M  V30 20 C -1.205135 -0.664093 5.681141 0
M  V30 21 N -1.535016 -0.646053 6.980407 0
M  V30 22 N -1.759262 -1.890035 7.387875 0
M  V30 23 C -1.556960 -2.661144 6.304275 0
M  V30 24 N -1.209645 -1.953764 5.213686 0
M  V30 25 C -0.855574 -2.103399 3.831852 0
M  V30 26 C -1.137508 -3.461153 3.218358 0
M  V30 27 C -0.631614 -3.393604 1.755007 0
M  V30 28 C 0.846696 -3.291689 1.645935 0
M  V30 29 O 1.384630 -3.152075 0.387003 0
M  V30 30 C 1.505830 1.665119 -4.179327 0
M  V30 31 N 1.072940 2.003888 -5.422611 0
M  V30 32 H 0.389328 1.524164 -8.005960 0
M  V30 33 H -0.579524 0.104215 -7.595896 0
M  V30 34 H -1.274002 1.701445 -7.229374 0
M  V30 35 H -0.421900 -0.816282 -5.267998 0
M  V30 36 H 0.885080 -2.164280 -3.957421 0
M  V30 37 H 1.076427 -3.663221 -2.097714 0
M  V30 38 H 1.272141 1.129488 -1.320038 0
M  V30 39 H -0.121833 0.327789 1.371654 0
M  V30 40 H 0.122456 2.972313 2.178061 0
M  V30 41 H -1.209540 3.826711 4.274818 0
M  V30 42 H -1.829458 2.021047 6.000275 0
M  V30 43 H -1.642291 -3.750042 6.225520 0
M  V30 44 H 0.213584 -1.942600 3.741242 0
M  V30 45 H -1.446961 -1.410600 3.169065 0
M  V30 46 H -0.698875 -4.295715 3.762114 0
M  V30 47 H -2.235372 -3.591710 3.129810 0
M  V30 48 H -1.095700 -2.507773 1.308925 0
M  V30 49 H -0.990330 -4.267725 1.198483 0
M  V30 50 H 1.272944 -4.282100 2.041090 0
M  V30 51 H 1.312856 -2.562057 2.378656 0
M  V30 52 H 2.148260 2.210896 -3.502794 0
M  V30 END ATOM
M  V30 BEGIN BOND
M  V30 1 1 1 2
M  V30 2 1 2 3
M  V30 3 2 3 4
M  V30 4 1 4 5
M  V30 5 2 5 6
M  V30 6 1 6 7
M  V30 7 2 7 8
M  V30 8 1 8 9
M  V30 9 2 9 10
M  V30 10 1 9 11
M  V30 11 2 11 12
M  V30 12 1 11 13
M  V30 13 1 13 14
M  V30 14 2 14 15
M  V30 15 1 15 16
M  V30 16 2 16 17
M  V30 17 1 17 18
M  V30 18 2 18 19
M  V30 19 1 18 20
M  V30 20 2 20 21
M  V30 21 1 21 22
M  V30 22 2 22 23
M  V30 23 1 23 24
M  V30 24 1 24 25
M  V30 25 1 25 26
M  V30 26 1 26 27
M  V30 27 1 27 28
M  V30 28 1 28 29
M  V30 29 1 4 30
M  V30 30 2 30 31
M  V30 31 1 31 2
M  V30 32 1 10 5
M  V30 33 1 19 14
M  V30 34 1 24 20
M  V30 35 1 29 8
M  V30 36 1 1 32
M  V30 37 1 1 33
M  V30 38 1 1 34
M  V30 39 1 3 35
M  V30 40 1 6 36
M  V30 41 1 7 37
M  V30 42 1 10 38
M  V30 43 1 13 39
M  V30 44 1 15 40
M  V30 45 1 16 41
M  V30 46 1 17 42
M  V30 47 1 23 43
M  V30 48 1 25 44
M  V30 49 1 25 45
M  V30 50 1 26 46
M  V30 51 1 26 47
M  V30 52 1 27 48
M  V30 53 1 27 49
M  V30 54 1 28 50
M  V30 55 1 28 51
M  V30 56 1 30 52
M  V30 END BOND
M  V30 END CTAB
M  END
>  <Dataset>  (3) 
ChEMBL_Kinases

>  <Ligand_Instance>  (3) 
nan

>  <PDB_ID>  (3) 
nan

>  <Standardized_SMILES>  (3) 
Cn1cc(-c2ccc3c(c2)C(=O)Nc2cccc(n2)-c2nncn2CCCCO3)cn1

>  <Name>  (3) 
nan

>  <Pocket>  (3) 
nan

>  <ATP_Site>  (3) 
nan

>  <Peripheral>  (3) 
nan

>  <Num_H_Atoms_ProtBoundConf>  (3) 
nan

>  <Num_Resolved_Atoms>  (3) 
nan

>  <Num_Not_Resolved_Atoms>  (3) 
nan

$$$$
CHEMBL4475654
     RDKit          3D

  0  0  0  0  0  0  0  0  0  0999 V3000
M  V30 BEGIN CTAB
M  V30 COUNTS 39 41 0 0 0
M  V30 BEGIN ATOM
M  V30 1 C -0.391040 -3.959094 0.652925 0
M  V30 2 C 0.573517 -3.669289 1.783151 0
M  V30 3 N 0.673381 -2.225428 1.912939 0
M  V30 4 C 1.626064 -2.024950 2.969617 0
M  V30 5 C 1.841903 -0.572562 3.239928 0
M  V30 6 C 0.048261 -1.103434 1.253753 0
M  V30 7 C 0.805048 -0.272256 0.450511 0
M  V30 8 C 0.302640 0.813205 -0.237984 0
M  V30 9 C 1.125381 1.672150 -1.079345 0
M  V30 10 C 2.461602 1.521382 -1.285663 0
M  V30 11 C 3.116720 2.417942 -2.116902 0
M  V30 12 N 2.464845 3.426626 -2.719684 0
M  V30 13 C 1.147292 3.621432 -2.550848 0
M  V30 14 C 0.513737 2.724467 -1.724486 0
M  V30 15 F -0.834290 2.917181 -1.546745 0
M  V30 16 N -1.033364 1.039554 -0.083450 0
M  V30 17 C -1.802364 0.250519 0.691774 0
M  V30 18 C -3.135625 0.539071 0.804829 0
M  V30 19 N -3.932587 -0.223969 1.573244 0
M  V30 20 C -3.422838 -1.280153 2.238774 0
M  V30 21 C -2.097273 -1.609834 2.158399 0
M  V30 22 C -1.279807 -0.828635 1.370667 0
M  V30 23 H -0.497580 -3.068602 0.006922 0
M  V30 24 H -0.039872 -4.793582 0.026255 0
M  V30 25 H -1.393669 -4.234857 1.044023 0
M  V30 26 H 1.559820 -4.050474 1.435736 0
M  V30 27 H 0.219171 -4.151766 2.710504 0
M  V30 28 H 1.288277 -2.495214 3.932905 0
M  V30 29 H 2.617491 -2.453827 2.707588 0
M  V30 30 H 2.768277 -0.161282 2.777033 0
M  V30 31 H 1.955696 -0.374002 4.341830 0
M  V30 32 H 0.999677 0.062725 2.876791 0
M  V30 33 H 1.853933 -0.511917 0.375767 0
M  V30 34 H 2.974488 0.714233 -0.801078 0
M  V30 35 H 4.185328 2.259655 -2.253344 0
M  V30 36 H 0.669842 4.434954 -3.048761 0
M  V30 37 H -3.588076 1.363886 0.297849 0
M  V30 38 H -4.049299 -1.913179 2.868098 0
M  V30 39 H -1.707741 -2.441479 2.692589 0
M  V30 END ATOM
M  V30 BEGIN BOND
M  V30 1 1 1 2
M  V30 2 1 2 3
M  V30 3 1 3 4
M  V30 4 1 4 5
M  V30 5 1 3 6
M  V30 6 2 6 7
M  V30 7 1 7 8
M  V30 8 1 8 9
M  V30 9 2 9 10
M  V30 10 1 10 11
M  V30 11 2 11 12
M  V30 12 1 12 13
M  V30 13 2 13 14
M  V30 14 1 14 15
M  V30 15 2 8 16
M  V30 16 1 16 17
M  V30 17 2 17 18
M  V30 18 1 18 19
M  V30 19 2 19 20
M  V30 20 1 20 21
M  V30 21 2 21 22
M  V30 22 1 22 6
M  V30 23 1 14 9
M  V30 24 1 22 17
M  V30 25 1 1 23
M  V30 26 1 1 24
M  V30 27 1 1 25
M  V30 28 1 2 26
M  V30 29 1 2 27
M  V30 30 1 4 28
M  V30 31 1 4 29
M  V30 32 1 5 30
M  V30 33 1 5 31
M  V30 34 1 5 32
M  V30 35 1 7 33
M  V30 36 1 10 34
M  V30 37 1 11 35
M  V30 38 1 13 36
M  V30 39 1 18 37
M  V30 40 1 20 38
M  V30 41 1 21 39
M  V30 END BOND
M  V30 END CTAB
M  END
>  <Dataset>  (4) 
ChEMBL_Kinases

>  <Ligand_Instance>  (4) 
nan

>  <PDB_ID>  (4) 
nan

>  <Standardized_SMILES>  (4) 
CCN(CC)c1cc(-c2ccncc2F)nc2cnccc12

>  <Name>  (4) 
nan

>  <Pocket>  (4) 
nan

>  <ATP_Site>  (4) 
nan

>  <Peripheral>  (4) 
nan

>  <Num_H_Atoms_ProtBoundConf>  (4) 
nan

>  <Num_Resolved_Atoms>  (4) 
nan

>  <Num_Not_Resolved_Atoms>  (4) 
nan

$$$$
CHEMBL4476012
     RDKit          3D

  0  0  0  0  0  0  0  0  0  0999 V3000
M  V30 BEGIN CTAB
M  V30 COUNTS 61 64 0 0 0
M  V30 BEGIN ATOM
M  V30 1 C 2.180563 3.806361 4.957942 0
M  V30 2 O 1.488967 2.865077 4.179974 0
M  V30 3 C 2.163181 2.156069 3.209337 0
M  V30 4 C 3.469458 2.141324 2.770923 0
M  V30 5 C 3.882489 1.307787 1.756079 0
M  V30 6 C 5.301144 1.406286 1.415593 0
M  V30 7 O 5.884001 2.368517 0.863797 0
M  V30 8 N 6.112251 0.289643 1.745538 0
M  V30 9 C 7.513729 0.476225 1.370916 0
M  V30 10 C 5.683841 -0.930767 2.381280 0
M  V30 11 C 3.013029 0.455571 1.136264 0
M  V30 12 C 1.697491 0.440902 1.546991 0
M  V30 13 C 1.261462 1.284171 2.579503 0
M  V30 14 N -0.147176 1.134446 2.889543 0
M  V30 15 C -1.022543 0.215926 2.242456 0
M  V30 16 N -1.300162 -0.080663 0.946842 0
M  V30 17 C -2.175273 -1.038879 0.567497 0
M  V30 18 O -2.223118 -1.086951 -0.774354 0
M  V30 19 C -2.806726 -1.934276 -1.655613 0 CFG=1
M  V30 20 C -4.073178 -1.310601 -2.236365 0
M  V30 21 C -4.221738 -1.780691 -3.674302 0
M  V30 22 C -3.873776 -3.248187 -3.726447 0 CFG=2
M  V30 23 C -4.394564 -3.924348 -4.987296 0
M  V30 24 O -4.446538 -3.898852 -2.656120 0
M  V30 25 C -2.368217 -3.383978 -3.639998 0
M  V30 26 C -1.832306 -2.250828 -2.788842 0
M  V30 27 C -2.775065 -1.699013 1.603379 0
M  V30 28 C -3.708187 -2.697134 1.481565 0
M  V30 29 C -4.046337 -3.062650 2.748231 0
M  V30 30 N -3.347142 -2.314854 3.619983 0
M  V30 31 C -2.562547 -1.471120 2.934775 0
M  V30 32 N -1.686981 -0.514310 3.192037 0
M  V30 33 H 2.059032 4.842147 4.545703 0
M  V30 34 H 1.730430 3.888211 5.993037 0
M  V30 35 H 3.261132 3.588829 5.014231 0
M  V30 36 H 4.067637 2.848318 3.323143 0
M  V30 37 H 8.080431 -0.469867 1.474675 0
M  V30 38 H 7.987899 1.262901 1.997589 0
M  V30 39 H 7.578200 0.830042 0.321812 0
M  V30 40 H 4.967454 -1.459204 1.715494 0
M  V30 41 H 5.174313 -0.738303 3.350308 0
M  V30 42 H 6.588007 -1.558030 2.581525 0
M  V30 43 H 3.431088 -0.159541 0.352294 0
M  V30 44 H 1.067983 -0.253518 1.015670 0
M  V30 45 H -0.511940 1.757950 3.633517 0
M  V30 46 H -3.020237 -2.906709 -1.193418 0
M  V30 47 H -4.017134 -0.204699 -2.216526 0
M  V30 48 H -4.919828 -1.710778 -1.641368 0
M  V30 49 H -5.237572 -1.572168 -4.066787 0
M  V30 50 H -3.468322 -1.227941 -4.276245 0
M  V30 51 H -4.163622 -5.004907 -4.849470 0
M  V30 52 H -5.497556 -3.861572 -4.919633 0
M  V30 53 H -3.951824 -3.540222 -5.907929 0
M  V30 54 H -4.124721 -4.807855 -2.563295 0
M  V30 55 H -1.972418 -3.299987 -4.669651 0
M  V30 56 H -2.057958 -4.384126 -3.252102 0
M  V30 57 H -0.901495 -2.605310 -2.308726 0
M  V30 58 H -1.576922 -1.351881 -3.388029 0
M  V30 59 H -4.164624 -3.167436 0.636212 0
M  V30 60 H -4.748593 -3.818343 3.052569 0
M  V30 61 H -3.326690 -2.296819 4.679722 0
M  V30 END ATOM
M  V30 BEGIN BOND
M  V30 1 1 1 2
M  V30 2 1 2 3
M  V30 3 2 3 4
M  V30 4 1 4 5
M  V30 5 1 5 6
M  V30 6 2 6 7
M  V30 7 1 6 8
M  V30 8 1 8 9
M  V30 9 1 8 10
M  V30 10 2 5 11
M  V30 11 1 11 12
M  V30 12 2 12 13
M  V30 13 1 13 14
M  V30 14 1 14 15
M  V30 15 2 15 16
M  V30 16 1 16 17
M  V30 17 1 17 18
M  V30 18 1 18 19
M  V30 19 1 19 20
M  V30 20 1 20 21
M  V30 21 1 21 22
M  V30 22 1 22 23
M  V30 23 1 22 24 CFG=1
M  V30 24 1 22 25
M  V30 25 1 25 26
M  V30 26 2 17 27
M  V30 27 1 27 28
M  V30 28 2 28 29
M  V30 29 1 29 30
M  V30 30 1 30 31
M  V30 31 2 31 32
M  V30 32 1 13 3
M  V30 33 1 32 15
M  V30 34 1 26 19
M  V30 35 1 31 27
M  V30 36 1 1 33
M  V30 37 1 1 34
M  V30 38 1 1 35
M  V30 39 1 4 36
M  V30 40 1 9 37
M  V30 41 1 9 38
M  V30 42 1 9 39
M  V30 43 1 10 40
M  V30 44 1 10 41
M  V30 45 1 10 42
M  V30 46 1 11 43
M  V30 47 1 12 44
M  V30 48 1 14 45
M  V30 49 1 19 46 CFG=1
M  V30 50 1 20 47
M  V30 51 1 20 48
M  V30 52 1 21 49
M  V30 53 1 21 50
M  V30 54 1 23 51
M  V30 55 1 23 52
M  V30 56 1 23 53
M  V30 57 1 24 54
M  V30 58 1 25 55
M  V30 59 1 25 56
M  V30 60 1 26 57
M  V30 61 1 26 58
M  V30 62 1 28 59
M  V30 63 1 29 60
M  V30 64 1 30 61
M  V30 END BOND
M  V30 END CTAB
M  END
>  <Dataset>  (5) 
ChEMBL_Kinases

>  <Ligand_Instance>  (5) 
nan

>  <PDB_ID>  (5) 
nan

>  <Standardized_SMILES>  (5) 
COc1cc(C(=O)N(C)C)ccc1Nc1nc(O[C@H]2CC[C@](C)(O)CC2)c2cc[nH]c2n1

>  <Name>  (5) 
nan

>  <Pocket>  (5) 
nan

>  <ATP_Site>  (5) 
nan

>  <Peripheral>  (5) 
nan

>  <Num_H_Atoms_ProtBoundConf>  (5) 
nan

>  <Num_Resolved_Atoms>  (5) 
nan

>  <Num_Not_Resolved_Atoms>  (5) 
nan

$$$$
CHEMBL469509
     RDKit          3D

  0  0  0  0  0  0  0  0  0  0999 V3000
M  V30 BEGIN CTAB
M  V30 COUNTS 55 59 0 0 0
M  V30 BEGIN ATOM
M  V30 1 C 3.477557 2.099511 8.130130 0
M  V30 2 O 4.179062 1.516190 7.073165 0
M  V30 3 C 3.802434 1.577152 5.749576 0
M  V30 4 C 2.683086 2.216491 5.247674 0
M  V30 5 C 2.466427 2.171182 3.887354 0
M  V30 6 C 3.304697 1.524328 3.007282 0
M  V30 7 C 3.106641 1.455306 1.564579 0
M  V30 8 C 4.112256 1.666467 0.615978 0
M  V30 9 O 3.619328 1.535156 -0.585607 0
M  V30 10 C 2.336664 1.246282 -0.545900 0
M  V30 11 C 1.318812 1.001174 -1.456978 0
M  V30 12 C 0.035758 0.718029 -1.059260 0
M  V30 13 C -0.287253 0.667453 0.280624 0
M  V30 14 C -1.660133 0.362117 0.665358 0
M  V30 15 N -2.176571 0.266612 1.903375 0
M  V30 16 N -3.455154 -0.027283 1.737098 0
M  V30 17 C -3.751339 -0.117972 0.427253 0
M  V30 18 S -5.215672 -0.468401 -0.515094 0
M  V30 19 C -5.438276 -2.214993 -0.856754 0
M  V30 20 C -4.396396 -2.771056 -1.748293 0
M  V30 21 C -3.272241 -3.281577 -1.128267 0
M  V30 22 C -2.207912 -3.835442 -1.805137 0
M  V30 23 C -2.263067 -3.885510 -3.182188 0
M  V30 24 O -1.273403 -4.411995 -4.018618 0
M  V30 25 C -0.100937 -4.947826 -3.436543 0
M  V30 26 C -3.387668 -3.376841 -3.838203 0
M  V30 27 C -3.504995 -3.402743 -5.336726 0
M  V30 28 F -4.687758 -2.853682 -5.769153 0
M  V30 29 F -3.463107 -4.728866 -5.718462 0
M  V30 30 F -2.418430 -2.775095 -5.902396 0
M  V30 31 C -4.446678 -2.824216 -3.136806 0
M  V30 32 O -2.624773 0.127471 -0.191711 0
M  V30 33 C 0.708966 0.907736 1.195038 0
M  V30 34 C 1.995044 1.191574 0.797407 0
M  V30 35 C 4.439879 0.874640 3.505914 0
M  V30 36 C 4.657483 0.920452 4.874551 0
M  V30 37 H 2.476416 1.671221 8.304041 0
M  V30 38 H 4.039467 1.898756 9.084916 0
M  V30 39 H 3.365752 3.189998 8.033958 0
M  V30 40 H 2.050358 2.709080 5.942701 0
M  V30 41 H 1.589897 2.670049 3.480049 0
M  V30 42 H 5.154558 1.905161 0.820116 0
M  V30 43 H 1.586050 1.043485 -2.518271 0
M  V30 44 H -0.722448 0.534390 -1.804526 0
M  V30 45 H -5.439441 -2.763430 0.107151 0
M  V30 46 H -6.465238 -2.339036 -1.258414 0
M  V30 47 H -3.167699 -3.272032 -0.050284 0
M  V30 48 H -1.334968 -4.232965 -1.337960 0
M  V30 49 H -0.220076 -5.994756 -3.086981 0
M  V30 50 H 0.279860 -4.353841 -2.577917 0
M  V30 51 H 0.757774 -4.939028 -4.169080 0
M  V30 52 H -5.337118 -2.418123 -3.590738 0
M  V30 53 H 0.453374 0.867445 2.246866 0
M  V30 54 H 5.118243 0.357547 2.841285 0
M  V30 55 H 5.547991 0.403321 5.210076 0
M  V30 END ATOM
M  V30 BEGIN BOND
M  V30 1 1 1 2
M  V30 2 1 2 3
M  V30 3 2 3 4
M  V30 4 1 4 5
M  V30 5 2 5 6
M  V30 6 1 6 7
M  V30 7 2 7 8
M  V30 8 1 8 9
M  V30 9 1 9 10
M  V30 10 2 10 11
M  V30 11 1 11 12
M  V30 12 2 12 13
M  V30 13 1 13 14
M  V30 14 2 14 15
M  V30 15 1 15 16
M  V30 16 2 16 17
M  V30 17 1 17 18
M  V30 18 1 18 19
M  V30 19 1 19 20
M  V30 20 2 20 21
M  V30 21 1 21 22
M  V30 22 2 22 23
M  V30 23 1 23 24
M  V30 24 1 24 25
M  V30 25 1 23 26
M  V30 26 1 26 27
M  V30 27 1 27 28
M  V30 28 1 27 29
M  V30 29 1 27 30
M  V30 30 2 26 31
M  V30 31 1 17 32
M  V30 32 1 13 33
M  V30 33 2 33 34
M  V30 34 1 6 35
M  V30 35 2 35 36
M  V30 36 1 36 3
M  V30 37 1 34 7
M  V30 38 1 34 10
M  V30 39 1 32 14
M  V30 40 1 31 20
M  V30 41 1 1 37
M  V30 42 1 1 38
M  V30 43 1 1 39
M  V30 44 1 4 40
M  V30 45 1 5 41
M  V30 46 1 8 42
M  V30 47 1 11 43
M  V30 48 1 12 44
M  V30 49 1 19 45
M  V30 50 1 19 46
M  V30 51 1 21 47
M  V30 52 1 22 48
M  V30 53 1 25 49
M  V30 54 1 25 50
M  V30 55 1 25 51
M  V30 56 1 31 52
M  V30 57 1 33 53
M  V30 58 1 35 54
M  V30 59 1 36 55
M  V30 END BOND
M  V30 END CTAB
M  END
>  <Dataset>  (6) 
ChEMBL_Kinases

>  <Ligand_Instance>  (6) 
nan

>  <PDB_ID>  (6) 
nan

>  <Standardized_SMILES>  (6) 
COc1ccc(-c2coc3ccc(-c4nnc(SCc5ccc(OC)c(C(F)(F)F)c5)o4)cc23)cc1

>  <Name>  (6) 
nan

>  <Pocket>  (6) 
nan

>  <ATP_Site>  (6) 
nan

>  <Peripheral>  (6) 
nan

>  <Num_H_Atoms_ProtBoundConf>  (6) 
nan

>  <Num_Resolved_Atoms>  (6) 
nan

>  <Num_Not_Resolved_Atoms>  (6) 
nan

$$$$
CHEMBL469612
     RDKit          3D

  0  0  0  0  0  0  0  0  0  0999 V3000
M  V30 BEGIN CTAB
M  V30 COUNTS 64 69 0 0 0
M  V30 BEGIN ATOM
M  V30 1 O 4.252833 1.530387 3.978132 0
M  V30 2 C 3.273503 0.800370 3.727805 0
M  V30 3 N 2.849784 -0.392766 4.420534 0
M  V30 4 C 1.685009 -0.880801 3.775231 0
M  V30 5 O 1.202933 -1.911872 4.265517 0
M  V30 6 C 1.317471 -0.041012 2.664137 0
M  V30 7 C 2.277443 0.940995 2.666417 0
M  V30 8 C 2.242576 1.949291 1.713575 0
M  V30 9 C 3.236510 3.019244 1.668109 0
M  V30 10 C 4.323441 2.676131 0.865871 0
M  V30 11 C 5.389273 3.531252 0.670995 0
M  V30 12 C 5.336876 4.758714 1.310930 0
M  V30 13 C 4.271155 5.120585 2.110052 0
M  V30 14 C 3.209297 4.248656 2.294435 0
M  V30 15 Cl 1.783916 4.538737 3.268083 0
M  V30 16 C 1.236626 1.949607 0.771706 0
M  V30 17 C 0.294231 0.947806 0.803538 0
M  V30 18 C 0.332242 -0.050465 1.750119 0
M  V30 19 C -0.696409 -0.893335 1.554967 0
M  V30 20 C -1.212135 -2.024282 2.104506 0
M  V30 21 C -2.331790 -2.662793 1.637618 0
M  V30 22 O -2.856661 -3.813968 2.208626 0
M  V30 23 C -3.041923 -2.206961 0.552418 0
M  V30 24 C -4.214518 -2.731040 -0.123872 0
M  V30 25 C -4.093946 -3.745198 -1.190974 0
M  V30 26 C -3.481159 -5.049561 -1.004015 0
M  V30 27 C -2.042045 -5.232661 -0.748051 0
M  V30 28 N -1.204528 -4.724155 -1.849509 0
M  V30 29 C -0.628357 -3.538730 -2.090337 0
M  V30 30 C 0.072498 -3.490544 -3.270487 0
M  V30 31 C -0.059866 -4.737360 -3.834882 0
M  V30 32 C -0.831121 -5.442059 -2.950943 0
M  V30 33 C -2.529370 -1.037861 -0.032854 0
M  V30 34 C -1.383093 -0.404936 0.465231 0
M  V30 35 N -0.762880 0.716101 0.023837 0
M  V30 36 C -1.144872 1.551710 -1.098540 0
M  V30 37 C -2.090344 2.604447 -0.581784 0
M  V30 38 O -1.426570 3.345824 0.389014 0
M  V30 39 H 3.410458 -0.725581 5.249100 0
M  V30 40 H 4.442695 1.728023 0.326032 0
M  V30 41 H 6.248780 3.309171 0.060750 0
M  V30 42 H 6.153663 5.467396 1.188849 0
M  V30 43 H 4.181835 6.066105 2.631304 0
M  V30 44 H 1.226822 2.743002 0.036399 0
M  V30 45 H -0.784384 -2.495475 2.937270 0
M  V30 46 H -3.742378 -3.708449 2.722153 0
M  V30 47 H -4.836533 -1.881797 -0.579574 0
M  V30 48 H -4.942530 -3.193340 0.635233 0
M  V30 49 H -3.530898 -3.259189 -2.087500 0
M  V30 50 H -5.122686 -3.895405 -1.698394 0
M  V30 51 H -4.038064 -5.576528 -0.154038 0
M  V30 52 H -3.764955 -5.677618 -1.918238 0
M  V30 53 H -1.625143 -4.955975 0.211352 0
M  V30 54 H -1.869819 -6.368681 -0.812529 0
M  V30 55 H -0.703568 -2.703257 -1.415714 0
M  V30 56 H 0.601757 -2.652496 -3.651631 0
M  V30 57 H 0.339596 -5.112827 -4.763422 0
M  V30 58 H -1.116080 -6.488533 -3.124052 0
M  V30 59 H -3.001817 -0.571685 -0.899835 0
M  V30 60 H -1.611444 0.892321 -1.855531 0
M  V30 61 H -0.292353 2.041001 -1.576750 0
M  V30 62 H -2.971540 2.124325 -0.066322 0
M  V30 63 H -2.501464 3.248861 -1.386407 0
M  V30 64 H -1.495516 2.843758 1.240055 0
M  V30 END ATOM
M  V30 BEGIN BOND
M  V30 1 2 1 2
M  V30 2 1 2 3
M  V30 3 1 3 4
M  V30 4 2 4 5
M  V30 5 1 4 6
M  V30 6 2 6 7
M  V30 7 1 7 8
M  V30 8 1 8 9
M  V30 9 2 9 10
M  V30 10 1 10 11
M  V30 11 2 11 12
M  V30 12 1 12 13
M  V30 13 2 13 14
M  V30 14 1 14 15
M  V30 15 2 8 16
M  V30 16 1 16 17
M  V30 17 2 17 18
M  V30 18 1 18 19
M  V30 19 2 19 20
M  V30 20 1 20 21
M  V30 21 1 21 22
M  V30 22 2 21 23
M  V30 23 1 23 24
M  V30 24 1 24 25
M  V30 25 1 25 26
M  V30 26 1 26 27
M  V30 27 1 27 28
M  V30 28 1 28 29
M  V30 29 2 29 30
M  V30 30 1 30 31
M  V30 31 2 31 32
M  V30 32 1 23 33
M  V30 33 2 33 34
M  V30 34 1 34 35
M  V30 35 1 35 36
M  V30 36 1 36 37
M  V30 37 1 37 38
M  V30 38 1 7 2
M  V30 39 1 14 9
M  V30 40 1 35 17
M  V30 41 1 18 6
M  V30 42 1 34 19
M  V30 43 1 32 28
M  V30 44 1 3 39
M  V30 45 1 10 40
M  V30 46 1 11 41
M  V30 47 1 12 42
M  V30 48 1 13 43
M  V30 49 1 16 44
M  V30 50 1 20 45
M  V30 51 1 22 46
M  V30 52 1 24 47
M  V30 53 1 24 48
M  V30 54 1 25 49
M  V30 55 1 25 50
M  V30 56 1 26 51
M  V30 57 1 26 52
M  V30 58 1 27 53
M  V30 59 1 27 54
M  V30 60 1 29 55
M  V30 61 1 30 56
M  V30 62 1 31 57
M  V30 63 1 32 58
M  V30 64 1 33 59
M  V30 65 1 36 60
M  V30 66 1 36 61
M  V30 67 1 37 62
M  V30 68 1 37 63
M  V30 69 1 38 64
M  V30 END BOND
M  V30 END CTAB
M  END
>  <Dataset>  (7) 
ChEMBL_Kinases

>  <Ligand_Instance>  (7) 
nan

>  <PDB_ID>  (7) 
nan

>  <Standardized_SMILES>  (7) 
O=C1NC(=O)c2c1c(-c1ccccc1Cl)cc1c2c2cc(O)c(CCCCn3cccc3)cc2n1CCO

>  <Name>  (7) 
nan

>  <Pocket>  (7) 
nan

>  <ATP_Site>  (7) 
nan

>  <Peripheral>  (7) 
nan

>  <Num_H_Atoms_ProtBoundConf>  (7) 
nan

>  <Num_Resolved_Atoms>  (7) 
nan

>  <Num_Not_Resolved_Atoms>  (7) 
nan

$$$$
CHEMBL469736
     RDKit          3D

  0  0  0  0  0  0  0  0  0  0999 V3000
M  V30 BEGIN CTAB
M  V30 COUNTS 37 40 0 0 0
M  V30 BEGIN ATOM
M  V30 1 N 0.685638 -1.588315 3.977673 0
M  V30 2 C 1.242856 -1.890768 3.009423 0
M  V30 3 C 1.948090 -2.282506 1.820927 0
M  V30 4 C 1.725047 -3.462280 1.141278 0
M  V30 5 C 2.430182 -3.769459 0.019622 0
M  V30 6 C 3.384176 -2.928630 -0.479847 0
M  V30 7 C 3.673036 -1.728692 0.134900 0
M  V30 8 C 4.676054 -0.716185 -0.292902 0
M  V30 9 S 3.928829 0.510048 -1.408097 0
M  V30 10 C 2.732471 1.402011 -0.382072 0
M  V30 11 N 2.716259 2.488717 0.414020 0
M  V30 12 N 1.472229 2.567362 0.864158 0
M  V30 13 C 0.717079 1.565777 0.373524 0
M  V30 14 C -0.697331 1.308503 0.633507 0
M  V30 15 C -1.465559 2.120488 1.476676 0
M  V30 16 C -2.794662 1.789900 1.655373 0
M  V30 17 C -3.358401 0.687479 1.021461 0
M  V30 18 C -2.613094 -0.119001 0.189288 0
M  V30 19 C -1.286176 0.221077 0.018355 0
M  V30 20 C -3.489045 -1.205561 -0.333858 0
M  V30 21 C -4.663891 -1.157764 0.626334 0
M  V30 22 O -4.661031 0.188532 1.067745 0
M  V30 23 O 1.534857 0.856995 -0.400927 0
M  V30 24 C 2.926111 -1.455477 1.280805 0
M  V30 25 H 0.954951 -4.102465 1.575957 0
M  V30 26 H 2.238644 -4.709066 -0.504519 0
M  V30 27 H 3.978884 -3.127649 -1.376649 0
M  V30 28 H 5.014879 -0.165019 0.607135 0
M  V30 29 H 5.536069 -1.222662 -0.726352 0
M  V30 30 H -0.990164 2.971800 1.953397 0
M  V30 31 H -3.365033 2.446472 2.321253 0
M  V30 32 H -0.678110 -0.398527 -0.631545 0
M  V30 33 H -2.978295 -2.191356 -0.234763 0
M  V30 34 H -3.815689 -1.021287 -1.371393 0
M  V30 35 H -4.552898 -1.885411 1.464688 0
M  V30 36 H -5.615932 -1.437082 0.120108 0
M  V30 37 H 3.106618 -0.516422 1.818289 0
M  V30 END ATOM
M  V30 BEGIN BOND
M  V30 1 3 1 2
M  V30 2 1 2 3
M  V30 3 2 3 4
M  V30 4 1 4 5
M  V30 5 2 5 6
M  V30 6 1 6 7
M  V30 7 1 7 8
M  V30 8 1 8 9
M  V30 9 1 9 10
M  V30 10 2 10 11
M  V30 11 1 11 12
M  V30 12 2 12 13
M  V30 13 1 13 14
M  V30 14 2 14 15
M  V30 15 1 15 16
M  V30 16 2 16 17
M  V30 17 1 17 18
M  V30 18 2 18 19
M  V30 19 1 18 20
M  V30 20 1 20 21
M  V30 21 1 21 22
M  V30 22 1 13 23
M  V30 23 2 7 24
M  V30 24 1 24 3
M  V30 25 1 23 10
M  V30 26 1 19 14
M  V30 27 1 22 17
M  V30 28 1 4 25
M  V30 29 1 5 26
M  V30 30 1 6 27
M  V30 31 1 8 28
M  V30 32 1 8 29
M  V30 33 1 15 30
M  V30 34 1 16 31
M  V30 35 1 19 32
M  V30 36 1 20 33
M  V30 37 1 20 34
M  V30 38 1 21 35
M  V30 39 1 21 36
M  V30 40 1 24 37
M  V30 END BOND
M  V30 END CTAB
M  END
>  <Dataset>  (8) 
ChEMBL_Kinases

>  <Ligand_Instance>  (8) 
nan

>  <PDB_ID>  (8) 
nan

>  <Standardized_SMILES>  (8) 
N#Cc1cccc(CSc2nnc(-c3ccc4c(c3)CCO4)o2)c1

>  <Name>  (8) 
nan

>  <Pocket>  (8) 
nan

>  <ATP_Site>  (8) 
nan

>  <Peripheral>  (8) 
nan

>  <Num_H_Atoms_ProtBoundConf>  (8) 
nan

>  <Num_Resolved_Atoms>  (8) 
nan

>  <Num_Not_Resolved_Atoms>  (8) 
nan

$$$$
CHEMBL447369
     RDKit          3D

  0  0  0  0  0  0  0  0  0  0999 V3000
M  V30 BEGIN CTAB
M  V30 COUNTS 33 35 0 0 0
M  V30 BEGIN ATOM
M  V30 1 O -3.223609 -2.791522 1.114503 0
M  V30 2 C -1.982772 -2.654525 1.340300 0
M  V30 3 N -1.195862 -3.658220 1.972009 0
M  V30 4 C -0.065088 -3.222110 2.770538 0
M  V30 5 C 0.822630 -2.385958 1.869032 0
M  V30 6 C 1.539427 -3.240368 0.860737 0
M  V30 7 C 2.441990 -2.463516 -0.069264 0
M  V30 8 F 3.039878 -3.378213 -0.947179 0
M  V30 9 C 0.004773 -1.346625 1.214393 0
M  V30 10 N 0.393248 -0.121437 0.755587 0
M  V30 11 C -0.624000 0.558029 0.215877 0
M  V30 12 C -0.568638 1.892942 -0.369104 0
M  V30 13 C 0.621061 2.589460 -0.405542 0
M  V30 14 C 0.713298 3.853847 -0.950411 0
M  V30 15 N -0.402795 4.441857 -1.472174 0
M  V30 16 C -1.543480 3.735682 -1.420062 0
M  V30 17 C -1.705995 2.471787 -0.891688 0
M  V30 18 C -1.748314 -0.232664 0.309810 0
M  V30 19 C -1.340902 -1.398560 0.926246 0
M  V30 20 H -1.491717 -4.656663 1.814497 0
M  V30 21 H 0.482674 -4.069712 3.217063 0
M  V30 22 H -0.438028 -2.521274 3.555449 0
M  V30 23 H 1.532981 -1.869622 2.556837 0
M  V30 24 H 2.126119 -4.000705 1.414952 0
M  V30 25 H 0.763530 -3.746922 0.245007 0
M  V30 26 H 1.848864 -1.793857 -0.722739 0
M  V30 27 H 3.261744 -1.969210 0.457496 0
M  V30 28 H 1.360906 0.263006 0.807337 0
M  V30 29 H 1.531555 2.137245 0.007783 0
M  V30 30 H 1.629515 4.430896 -0.996666 0
M  V30 31 H -2.412328 4.227789 -1.841618 0
M  V30 32 H -2.668191 1.977319 -0.893068 0
M  V30 33 H -2.761494 -0.040246 -0.010829 0
M  V30 END ATOM
M  V30 BEGIN BOND
M  V30 1 2 1 2
M  V30 2 1 2 3
M  V30 3 1 3 4
M  V30 4 1 4 5
M  V30 5 1 5 6
M  V30 6 1 6 7
M  V30 7 1 7 8
M  V30 8 1 5 9
M  V30 9 1 9 10
M  V30 10 1 10 11
M  V30 11 1 11 12
M  V30 12 2 12 13
M  V30 13 1 13 14
M  V30 14 2 14 15
M  V30 15 1 15 16
M  V30 16 2 16 17
M  V30 17 2 11 18
M  V30 18 1 18 19
M  V30 19 1 19 2
M  V30 20 2 19 9
M  V30 21 1 17 12
M  V30 22 1 3 20
M  V30 23 1 4 21
M  V30 24 1 4 22
M  V30 25 1 5 23
M  V30 26 1 6 24
M  V30 27 1 6 25
M  V30 28 1 7 26
M  V30 29 1 7 27
M  V30 30 1 10 28
M  V30 31 1 13 29
M  V30 32 1 14 30
M  V30 33 1 16 31
M  V30 34 1 17 32
M  V30 35 1 18 33
M  V30 END BOND
M  V30 END CTAB
M  END
>  <Dataset>  (9) 
ChEMBL_Kinases

>  <Ligand_Instance>  (9) 
nan

>  <PDB_ID>  (9) 
nan

>  <Standardized_SMILES>  (9) 
O=C1NCC(CCF)c2[nH]c(-c3ccncc3)cc21

>  <Name>  (9) 
nan

>  <Pocket>  (9) 
nan

>  <ATP_Site>  (9) 
nan

>  <Peripheral>  (9) 
nan

>  <Num_H_Atoms_ProtBoundConf>  (9) 
nan

>  <Num_Resolved_Atoms>  (9) 
nan

>  <Num_Not_Resolved_Atoms>  (9) 
nan

$$$$
CHEMBL4473680
     RDKit          3D

  0  0  0  0  0  0  0  0  0  0999 V3000
M  V30 BEGIN CTAB
M  V30 COUNTS 50 53 0 0 0
M  V30 BEGIN ATOM
M  V30 1 C -1.119859 -1.459936 -0.819019 0
M  V30 2 N -0.551239 -2.766543 -0.638844 0
M  V30 3 C 0.731158 -2.864124 -0.084187 0
M  V30 4 N 1.427723 -1.751147 0.186061 0
M  V30 5 C 2.687740 -1.837067 0.638572 0
M  V30 6 N 3.467876 -0.710504 0.926200 0
M  V30 7 C 3.152396 0.653388 0.906090 0
M  V30 8 C 4.145634 1.625124 0.845743 0
M  V30 9 N 3.873555 2.938855 0.835524 0
M  V30 10 C 2.597935 3.390748 0.884097 0
M  V30 11 C 2.448840 4.819874 0.864699 0
M  V30 12 N 2.318938 5.962201 0.833667 0
M  V30 13 C 1.541925 2.471714 0.947369 0
M  V30 14 O 0.341779 3.130778 0.992774 0
M  V30 15 C -0.867398 2.467480 1.117075 0
M  V30 16 C -1.695083 2.985315 2.289315 0
M  V30 17 C -2.822878 2.021989 2.504625 0
M  V30 18 C -2.999521 1.070533 1.340888 0
M  V30 19 N -2.856624 1.673337 0.061410 0
M  V30 20 C -1.776457 2.599666 -0.091676 0
M  V30 21 C 1.867605 1.141571 0.955428 0
M  V30 22 N 3.208477 -3.061574 0.805935 0
M  V30 23 C 2.525664 -4.181078 0.542354 0
M  V30 24 C 1.206500 -4.137028 0.068779 0
M  V30 25 C 0.588215 -5.416833 -0.085557 0
M  V30 26 C -0.704540 -5.802713 -0.169746 0
M  V30 27 C -1.041698 -7.108342 -0.264899 0
M  V30 28 C -0.019362 -8.070499 -0.274718 0
M  V30 29 S 1.518519 -6.981850 -0.135552 0
M  V30 30 H -2.110410 -1.298512 -0.363426 0
M  V30 31 H -1.230960 -1.206889 -1.914878 0
M  V30 32 H -0.406020 -0.663333 -0.452924 0
M  V30 33 H -1.343404 -3.288905 -1.029087 0
M  V30 34 H 4.481135 -0.897047 1.215354 0
M  V30 35 H 5.198728 1.323675 0.804737 0
M  V30 36 H -0.734697 1.378586 1.262349 0
M  V30 37 H -1.098180 3.216238 3.174480 0
M  V30 38 H -2.155653 3.956814 1.945618 0
M  V30 39 H -3.778409 2.490630 2.793725 0
M  V30 40 H -2.518810 1.387546 3.378264 0
M  V30 41 H -4.056963 0.701341 1.408453 0
M  V30 42 H -2.367008 0.168657 1.491229 0
M  V30 43 H -3.750099 1.992902 -0.370821 0
M  V30 44 H -2.187351 3.638586 -0.059502 0
M  V30 45 H -1.188882 2.398259 -1.014327 0
M  V30 46 H 1.042557 0.489967 1.007194 0
M  V30 47 H 3.106975 -5.091239 0.736625 0
M  V30 48 H -1.621595 -5.256813 -0.159265 0
M  V30 49 H -1.882835 -7.760858 -0.343819 0
M  V30 50 H 0.307582 -9.124376 -0.323121 0
M  V30 END ATOM
M  V30 BEGIN BOND
M  V30 1 1 1 2
M  V30 2 1 2 3
M  V30 3 2 3 4
M  V30 4 1 4 5
M  V30 5 1 5 6
M  V30 6 1 6 7
M  V30 7 2 7 8
M  V30 8 1 8 9
M  V30 9 2 9 10
M  V30 10 1 10 11
M  V30 11 3 11 12
M  V30 12 1 10 13
M  V30 13 1 13 14
M  V30 14 1 14 15
M  V30 15 1 15 16
M  V30 16 1 16 17
M  V30 17 1 17 18
M  V30 18 1 18 19
M  V30 19 1 19 20
M  V30 20 2 13 21
M  V30 21 2 5 22
M  V30 22 1 22 23
M  V30 23 2 23 24
M  V30 24 1 24 25
M  V30 25 2 25 26
M  V30 26 1 26 27
M  V30 27 2 27 28
M  V30 28 1 28 29
M  V30 29 1 24 3
M  V30 30 1 29 25
M  V30 31 1 21 7
M  V30 32 1 20 15
M  V30 33 1 1 30
M  V30 34 1 1 31
M  V30 35 1 1 32
M  V30 36 1 2 33
M  V30 37 1 6 34
M  V30 38 1 8 35
M  V30 39 1 15 36
M  V30 40 1 16 37
M  V30 41 1 16 38
M  V30 42 1 17 39
M  V30 43 1 17 40
M  V30 44 1 18 41
M  V30 45 1 18 42
M  V30 46 1 19 43
M  V30 47 1 20 44
M  V30 48 1 20 45
M  V30 49 1 21 46
M  V30 50 1 23 47
M  V30 51 1 26 48
M  V30 52 1 27 49
M  V30 53 1 28 50
M  V30 END BOND
M  V30 END CTAB
M  END
>  <Dataset>  (10) 
ChEMBL_Kinases

>  <Ligand_Instance>  (10) 
nan

>  <PDB_ID>  (10) 
nan

>  <Standardized_SMILES>  (10) 
CNc1nc(Nc2cnc(C#N)c(OC3CCCNC3)c2)ncc1-c1cccs1

>  <Name>  (10) 
nan

>  <Pocket>  (10) 
nan

>  <ATP_Site>  (10) 
nan

>  <Peripheral>  (10) 
nan

>  <Num_H_Atoms_ProtBoundConf>  (10) 
nan

>  <Num_Resolved_Atoms>  (10) 
nan

>  <Num_Not_Resolved_Atoms>  (10) 
nan

$$$$
CHEMBL4473634
     RDKit          3D

  0  0  0  0  0  0  0  0  0  0999 V3000
M  V30 BEGIN CTAB
M  V30 COUNTS 45 48 0 0 0
M  V30 BEGIN ATOM
M  V30 1 C 2.517263 -5.679667 -2.707892 0
M  V30 2 N 3.110345 -5.327033 -1.447426 0
M  V30 3 N 4.022033 -6.082911 -0.810784 0
M  V30 4 C 4.377873 -5.492272 0.325482 0
M  V30 5 C 3.648440 -4.324555 0.380399 0
M  V30 6 Cl 3.837680 -3.249552 1.747409 0
M  V30 7 C 2.847538 -4.216906 -0.736589 0
M  V30 8 C 1.939866 -3.116678 -1.021978 0
M  V30 9 C 1.096424 -2.895916 -2.090706 0
M  V30 10 O 0.439015 -1.766672 -1.964178 0
M  V30 11 C 0.790068 -1.170469 -0.829577 0
M  V30 12 C 0.249025 0.109525 -0.373941 0
M  V30 13 O -0.598220 0.652805 -1.125247 0
M  V30 14 N 0.694801 0.656953 0.856730 0
M  V30 15 C 0.123232 1.929291 1.258028 0
M  V30 16 C 1.179871 2.941235 1.542918 0
M  V30 17 N 1.018513 3.434638 2.889005 0
M  V30 18 C -0.098192 2.753830 3.496884 0
M  V30 19 C -0.582649 1.694050 2.572375 0
M  V30 20 C -2.069327 1.670520 2.400889 0
M  V30 21 C -2.649165 2.792150 1.852039 0
M  V30 22 C -4.027913 2.807432 1.677187 0
M  V30 23 C -4.843386 1.749919 2.028351 0
M  V30 24 F -6.198749 1.809249 1.837580 0
M  V30 25 C -4.237711 0.618207 2.584655 0
M  V30 26 F -5.001471 -0.456603 2.949502 0
M  V30 27 C -2.868362 0.599864 2.759664 0
M  V30 28 C 1.725764 -2.005464 -0.235498 0
M  V30 29 H 2.919466 -6.676927 -3.053178 0
M  V30 30 H 2.770979 -4.990538 -3.543549 0
M  V30 31 H 1.408168 -5.874316 -2.641064 0
M  V30 32 H 5.108092 -5.967636 0.965778 0
M  V30 33 H 0.967563 -3.547899 -2.941380 0
M  V30 34 H 1.399378 0.200935 1.477253 0
M  V30 35 H -0.601201 2.284086 0.505540 0
M  V30 36 H 2.220999 2.577950 1.389311 0
M  V30 37 H 1.102033 3.845986 0.873396 0
M  V30 38 H 0.958304 4.463603 2.951534 0
M  V30 39 H -0.914383 3.449299 3.744230 0
M  V30 40 H 0.243611 2.337670 4.485283 0
M  V30 41 H -0.318565 0.709069 3.024297 0
M  V30 42 H -2.103222 3.679083 1.540669 0
M  V30 43 H -4.534231 3.679398 1.243718 0
M  V30 44 H -2.381728 -0.266633 3.188401 0
M  V30 45 H 2.140966 -1.711102 0.694626 0
M  V30 END ATOM
M  V30 BEGIN BOND
M  V30 1 1 1 2
M  V30 2 1 2 3
M  V30 3 2 3 4
M  V30 4 1 4 5
M  V30 5 1 5 6
M  V30 6 2 5 7
M  V30 7 1 7 8
M  V30 8 2 8 9
M  V30 9 1 9 10
M  V30 10 1 10 11
M  V30 11 1 11 12
M  V30 12 2 12 13
M  V30 13 1 12 14
M  V30 14 1 14 15
M  V30 15 1 15 16
M  V30 16 1 16 17
M  V30 17 1 17 18
M  V30 18 1 18 19
M  V30 19 1 19 20
M  V30 20 2 20 21
M  V30 21 1 21 22
M  V30 22 2 22 23
M  V30 23 1 23 24
M  V30 24 1 23 25
M  V30 25 1 25 26
M  V30 26 2 25 27
M  V30 27 2 11 28
M  V30 28 1 7 2
M  V30 29 1 28 8
M  V30 30 1 19 15
M  V30 31 1 27 20
M  V30 32 1 1 29
M  V30 33 1 1 30
M  V30 34 1 1 31
M  V30 35 1 4 32
M  V30 36 1 9 33
M  V30 37 1 14 34
M  V30 38 1 15 35
M  V30 39 1 16 36
M  V30 40 1 16 37
M  V30 41 1 17 38
M  V30 42 1 18 39
M  V30 43 1 18 40
M  V30 44 1 19 41
M  V30 45 1 21 42
M  V30 46 1 22 43
M  V30 47 1 27 44
M  V30 48 1 28 45
M  V30 END BOND
M  V30 END CTAB
M  END
>  <Dataset>  (11) 
ChEMBL_Kinases

>  <Ligand_Instance>  (11) 
nan

>  <PDB_ID>  (11) 
nan

>  <Standardized_SMILES>  (11) 
Cn1ncc(Cl)c1-c1coc(C(=O)NC2CNCC2c2ccc(F)c(F)c2)c1

>  <Name>  (11) 
nan

>  <Pocket>  (11) 
nan

>  <ATP_Site>  (11) 
nan

>  <Peripheral>  (11) 
nan

>  <Num_H_Atoms_ProtBoundConf>  (11) 
nan

>  <Num_Resolved_Atoms>  (11) 
nan

>  <Num_Not_Resolved_Atoms>  (11) 
nan

$$$$
CHEMBL4473609
     RDKit          3D

  0  0  0  0  0  0  0  0  0  0999 V3000
M  V30 BEGIN CTAB
M  V30 COUNTS 58 62 0 0 0
M  V30 BEGIN ATOM
M  V30 1 C 5.709765 -5.099589 2.597507 0
M  V30 2 C 5.134174 -4.384393 1.427252 0
M  V30 3 C 4.554568 -3.153173 1.676289 0
M  V30 4 C 4.036355 -2.553057 0.525693 0
M  V30 5 N 3.411304 -1.275445 0.717722 0
M  V30 6 C 2.731994 -0.418650 -0.216548 0
M  V30 7 N 3.264482 -0.047475 -1.415910 0
M  V30 8 C 2.603354 0.741799 -2.261730 0
M  V30 9 C 1.345388 1.209922 -1.941880 0
M  V30 10 C 0.786415 0.852253 -0.743239 0
M  V30 11 C -0.496483 1.176835 -0.110586 0
M  V30 12 S -0.760372 2.744680 0.925690 0
M  V30 13 C -2.496784 2.244710 1.248886 0
M  V30 14 C -3.258458 3.242187 2.115610 0
M  V30 15 C -4.648972 3.467992 1.594312 0
M  V30 16 C -5.615102 2.392936 2.013464 0
M  V30 17 N -5.472828 1.945106 3.363853 0
M  V30 18 C -4.129013 1.475799 3.568956 0
M  V30 19 C -3.254853 2.727441 3.535967 0
M  V30 20 N -2.587563 1.264287 0.692380 0
M  V30 21 C -1.729072 0.571691 -0.032272 0
M  V30 22 C -1.920827 -0.681904 -0.739871 0
M  V30 23 C -2.195948 -1.883715 -0.155510 0
M  V30 24 C -2.405854 -3.118051 -0.674332 0
M  V30 25 C -2.318138 -3.134151 -2.105684 0
M  V30 26 F -2.511622 -4.322482 -2.719860 0
M  V30 27 C -2.043271 -1.927924 -2.669910 0
M  V30 28 C -1.834093 -0.697278 -2.145566 0
M  V30 29 N 1.506222 0.053149 0.066075 0
M  V30 30 C 4.066196 -3.079402 -0.751082 0
M  V30 31 C 4.660627 -4.296122 -0.877144 0
M  V30 32 C 4.698939 -4.874509 -2.265998 0
M  V30 33 N 5.177457 -4.921283 0.193328 0
M  V30 34 H 4.949211 -5.098189 3.390000 0
M  V30 35 H 6.682040 -4.662209 2.900845 0
M  V30 36 H 5.967868 -6.141756 2.257686 0
M  V30 37 H 4.481324 -2.663652 2.639452 0
M  V30 38 H 3.392115 -0.793144 1.657240 0
M  V30 39 H 2.964277 1.072221 -3.212882 0
M  V30 40 H 0.668524 1.854751 -2.505173 0
M  V30 41 H -2.727336 4.211775 2.140645 0
M  V30 42 H -4.999857 4.492616 1.841669 0
M  V30 43 H -4.601493 3.446837 0.484166 0
M  V30 44 H -6.648599 2.844052 1.950397 0
M  V30 45 H -5.641238 1.556570 1.260363 0
M  V30 46 H -6.147335 1.164959 3.498651 0
M  V30 47 H -3.795936 0.757570 2.786628 0
M  V30 48 H -4.058720 0.931135 4.528239 0
M  V30 49 H -3.763971 3.502102 4.145585 0
M  V30 50 H -2.221905 2.543614 3.832269 0
M  V30 51 H -2.265761 -1.872748 0.958479 0
M  V30 52 H -2.622014 -4.031090 -0.180535 0
M  V30 53 H -1.983159 -1.969351 -3.773886 0
M  V30 54 H -1.624823 0.167580 -2.747741 0
M  V30 55 H 3.624240 -2.501742 -1.544908 0
M  V30 56 H 3.804668 -4.589084 -2.848493 0
M  V30 57 H 4.701843 -5.980667 -2.202941 0
M  V30 58 H 5.602655 -4.522188 -2.804352 0
M  V30 END ATOM
M  V30 BEGIN BOND
M  V30 1 1 1 2
M  V30 2 2 2 3
M  V30 3 1 3 4
M  V30 4 1 4 5
M  V30 5 1 5 6
M  V30 6 2 6 7
M  V30 7 1 7 8
M  V30 8 2 8 9
M  V30 9 1 9 10
M  V30 10 1 10 11
M  V30 11 1 11 12
M  V30 12 1 12 13
M  V30 13 1 13 14
M  V30 14 1 14 15
M  V30 15 1 15 16
M  V30 16 1 16 17
M  V30 17 1 17 18
M  V30 18 1 18 19
M  V30 19 2 13 20
M  V30 20 1 20 21
M  V30 21 1 21 22
M  V30 22 2 22 23
M  V30 23 1 23 24
M  V30 24 2 24 25
M  V30 25 1 25 26
M  V30 26 1 25 27
M  V30 27 2 27 28
M  V30 28 2 10 29
M  V30 29 2 4 30
M  V30 30 1 30 31
M  V30 31 1 31 32
M  V30 32 2 31 33
M  V30 33 1 33 2
M  V30 34 1 29 6
M  V30 35 2 21 11
M  V30 36 1 28 22
M  V30 37 1 19 14
M  V30 38 1 1 34
M  V30 39 1 1 35
M  V30 40 1 1 36
M  V30 41 1 3 37
M  V30 42 1 5 38
M  V30 43 1 8 39
M  V30 44 1 9 40
M  V30 45 1 14 41
M  V30 46 1 15 42
M  V30 47 1 15 43
M  V30 48 1 16 44
M  V30 49 1 16 45
M  V30 50 1 17 46
M  V30 51 1 18 47
M  V30 52 1 18 48
M  V30 53 1 19 49
M  V30 54 1 19 50
M  V30 55 1 23 51
M  V30 56 1 24 52
M  V30 57 1 27 53
M  V30 58 1 28 54
M  V30 59 1 30 55
M  V30 60 1 32 56
M  V30 61 1 32 57
M  V30 62 1 32 58
M  V30 END BOND
M  V30 END CTAB
M  END
>  <Dataset>  (12) 
ChEMBL_Kinases

>  <Ligand_Instance>  (12) 
nan

>  <PDB_ID>  (12) 
nan

>  <Standardized_SMILES>  (12) 
Cc1cc(Nc2nccc(-c3sc(C4CCNCC4)nc3-c3ccc(F)cc3)n2)cc(C)n1

>  <Name>  (12) 
nan

>  <Pocket>  (12) 
nan

>  <ATP_Site>  (12) 
nan

>  <Peripheral>  (12) 
nan

>  <Num_H_Atoms_ProtBoundConf>  (12) 
nan

>  <Num_Resolved_Atoms>  (12) 
nan

>  <Num_Not_Resolved_Atoms>  (12) 
nan

$$$$
CHEMBL4473588
     RDKit          3D

  0  0  0  0  0  0  0  0  0  0999 V3000
M  V30 BEGIN CTAB
M  V30 COUNTS 50 54 0 0 0
M  V30 BEGIN ATOM
M  V30 1 O -0.168093 -3.542351 1.057808 0
M  V30 2 C -0.723393 -2.417372 1.143156 0
M  V30 3 C 0.072319 -1.199341 1.028325 0
M  V30 4 C 1.408635 -0.917931 0.831092 0
M  V30 5 C 1.913247 0.361204 0.759812 0
M  V30 6 C 3.317793 0.682057 0.552587 0
M  V30 7 C 4.278917 -0.290131 0.407513 0
M  V30 8 C 5.577970 0.125950 0.216177 0
M  V30 9 N 5.839900 1.444109 0.180982 0
M  V30 10 C 4.927130 2.413353 0.318884 0
M  V30 11 N 5.312533 3.778044 0.265585 0
M  V30 12 C 4.155833 4.705377 0.439320 0
M  V30 13 N 3.048611 4.797836 0.603379 0
M  V30 14 C 2.309703 5.881868 0.715807 0
M  V30 15 C 2.969309 7.069941 0.621646 0
M  V30 16 S 4.740809 6.511377 0.357977 0
M  V30 17 N 3.675734 1.965118 0.503072 0
M  V30 18 C 0.963717 1.350315 0.903200 0
M  V30 19 C -0.383004 1.142767 1.102161 0
M  V30 20 C -0.827102 -0.161681 1.164401 0
M  V30 21 C -2.230464 -0.601281 1.370872 0
M  V30 22 N -2.102754 -2.046443 1.348732 0
M  V30 23 C -3.150890 -3.041882 1.502367 0
M  V30 24 C -2.989380 -3.849533 2.762239 0
M  V30 25 O -1.811078 -4.552712 2.850315 0
M  V30 26 C -3.349452 -3.866557 0.283356 0
M  V30 27 C -3.500018 -5.244707 0.244935 0
M  V30 28 C -3.677439 -5.873420 -0.971297 0
M  V30 29 C -3.713459 -5.193594 -2.168331 0
M  V30 30 C -3.561262 -3.815496 -2.111865 0
M  V30 31 Cl -3.610613 -2.968083 -3.652850 0
M  V30 32 C -3.381970 -3.162840 -0.903136 0
M  V30 33 H 2.082699 -1.756476 0.728937 0
M  V30 34 H 4.043316 -1.337964 0.439555 0
M  V30 35 H 6.410996 -0.581979 0.090814 0
M  V30 36 H 6.293650 4.019943 0.121044 0
M  V30 37 H 1.238739 5.647492 0.873543 0
M  V30 38 H 2.151558 8.025318 0.745357 0
M  V30 39 H 1.310370 2.394075 0.854683 0
M  V30 40 H -1.032837 2.003314 1.200791 0
M  V30 41 H -2.550854 -0.247258 2.358654 0
M  V30 42 H -2.906249 -0.242553 0.569255 0
M  V30 43 H -4.117441 -2.474041 1.646168 0
M  V30 44 H -3.007564 -3.113926 3.594101 0
M  V30 45 H -3.897086 -4.468319 2.880294 0
M  V30 46 H -2.060486 -5.472329 3.185547 0
M  V30 47 H -3.465099 -5.733873 1.205334 0
M  V30 48 H -3.792586 -6.963961 -0.957536 0
M  V30 49 H -3.854920 -5.735518 -3.090051 0
M  V30 50 H -3.276474 -2.087344 -1.005450 0
M  V30 END ATOM
M  V30 BEGIN BOND
M  V30 1 2 1 2
M  V30 2 1 2 3
M  V30 3 2 3 4
M  V30 4 1 4 5
M  V30 5 1 5 6
M  V30 6 2 6 7
M  V30 7 1 7 8
M  V30 8 2 8 9
M  V30 9 1 9 10
M  V30 10 1 10 11
M  V30 11 1 11 12
M  V30 12 2 12 13
M  V30 13 1 13 14
M  V30 14 2 14 15
M  V30 15 1 15 16
M  V30 16 2 10 17
M  V30 17 2 5 18
M  V30 18 1 18 19
M  V30 19 2 19 20
M  V30 20 1 20 21
M  V30 21 1 21 22
M  V30 22 1 22 23
M  V30 23 1 23 24
M  V30 24 1 24 25
M  V30 25 1 23 26
M  V30 26 2 26 27
M  V30 27 1 27 28
M  V30 28 2 28 29
M  V30 29 1 29 30
M  V30 30 1 30 31
M  V30 31 2 30 32
M  V30 32 1 22 2
M  V30 33 1 32 26
M  V30 34 1 20 3
M  V30 35 1 17 6
M  V30 36 1 16 12
M  V30 37 1 4 33
M  V30 38 1 7 34
M  V30 39 1 8 35
M  V30 40 1 11 36
M  V30 41 1 14 37
M  V30 42 1 15 38
M  V30 43 1 18 39
M  V30 44 1 19 40
M  V30 45 1 21 41
M  V30 46 1 21 42
M  V30 47 1 23 43
M  V30 48 1 24 44
M  V30 49 1 24 45
M  V30 50 1 25 46
M  V30 51 1 27 47
M  V30 52 1 28 48
M  V30 53 1 29 49
M  V30 54 1 32 50
M  V30 END BOND
M  V30 END CTAB
M  END
>  <Dataset>  (13) 
ChEMBL_Kinases

>  <Ligand_Instance>  (13) 
nan

>  <PDB_ID>  (13) 
nan

>  <Standardized_SMILES>  (13) 
O=C1c2cc(-c3ccnc(Nc4nccs4)n3)ccc2CN1C(CO)c1cccc(Cl)c1

>  <Name>  (13) 
nan

>  <Pocket>  (13) 
nan

>  <ATP_Site>  (13) 
nan

>  <Peripheral>  (13) 
nan

>  <Num_H_Atoms_ProtBoundConf>  (13) 
nan

>  <Num_Resolved_Atoms>  (13) 
nan

>  <Num_Not_Resolved_Atoms>  (13) 
nan

$$$$
CHEMBL4473576
     RDKit          3D

  0  0  0  0  0  0  0  0  0  0999 V3000
M  V30 BEGIN CTAB
M  V30 COUNTS 142 147 0 0 0
M  V30 BEGIN ATOM
M  V30 1 C 3.855890 3.868925 3.828518 0
M  V30 2 C 5.337505 3.806265 3.764084 0
M  V30 3 N 6.045022 4.429604 4.663791 0
M  V30 4 C 7.316889 4.374405 4.638211 0
M  V30 5 S 7.650266 3.294043 3.141994 0
M  V30 6 C 5.940902 3.029682 2.702153 0
M  V30 7 C 5.542258 2.239438 1.623348 0
M  V30 8 C 6.577206 1.558263 0.994975 0
M  V30 9 C 6.305921 0.735008 -0.098725 0
M  V30 10 C 5.016202 0.593390 -0.562164 0
M  V30 11 C 4.739647 -0.319977 -1.712863 0 CFG=2
M  V30 12 C 4.719448 0.477478 -2.978996 0
M  V30 13 N 3.513536 -1.036740 -1.550594 0
M  V30 14 C 3.109108 -2.308459 -1.068611 0
M  V30 15 O 4.101060 -2.979925 -0.659371 0
M  V30 16 C 1.741827 -2.837067 -1.017164 0 CFG=2
M  V30 17 C 0.652878 -1.847029 -1.238687 0
M  V30 18 C 0.475887 -1.272309 0.191013 0 CFG=1
M  V30 19 O -0.826178 -1.436403 0.571798 0
M  V30 20 C 1.484624 -2.072910 0.975840 0
M  V30 21 N 1.380968 -3.388710 0.307121 0
M  V30 22 C 1.036160 -4.778620 0.543475 0
M  V30 23 O 1.116373 -5.711380 -0.296002 0
M  V30 24 C 0.528748 -5.315895 1.823999 0 CFG=1
M  V30 25 N 0.379621 -4.417183 2.895126 0
M  V30 26 C 0.505154 -3.880083 4.186370 0
M  V30 27 O 1.176546 -4.711000 4.900567 0
M  V30 28 C 0.031714 -2.615408 4.798875 0
M  V30 29 O -0.657567 -1.780193 4.046171 0
M  V30 30 C -1.850520 -1.848118 3.523080 0
M  V30 31 C -3.058237 -1.784398 4.508816 0
M  V30 32 O -2.961382 -0.592277 5.166134 0
M  V30 33 C -3.998499 -0.160683 5.941514 0
M  V30 34 C -3.617544 1.134474 6.600049 0
M  V30 35 O -3.285725 2.192934 5.806877 0
M  V30 36 C -2.242391 1.953645 4.963009 0
M  V30 37 C -1.670271 3.136208 4.227419 0
M  V30 38 N -2.552291 3.850839 3.372832 0
M  V30 39 C -3.321455 3.447165 2.227285 0
M  V30 40 O -3.135769 2.221255 2.000971 0
M  V30 41 C -4.067151 4.607157 1.707078 0
M  V30 42 C -5.018985 4.382294 0.612751 0
M  V30 43 C -4.546934 3.841282 -0.650547 0
M  V30 44 C -4.001865 4.678742 -1.595648 0
M  V30 45 C -3.654398 4.140792 -2.839842 0
M  V30 46 C -3.797735 2.805904 -3.261576 0
M  V30 47 S -3.325164 2.487477 -4.862584 0
M  V30 48 O -2.600669 3.718852 -5.445962 0
M  V30 49 O -4.582922 2.285009 -5.707191 0
M  V30 50 N -2.301851 1.168420 -5.186790 0
M  V30 51 C -2.303751 -0.249276 -5.072112 0
M  V30 52 C -3.517115 -0.682403 -4.591820 0
M  V30 53 C -3.806196 -2.017847 -4.376737 0
M  V30 54 C -5.120901 -2.542207 -3.876456 0
M  V30 55 C -2.815793 -2.966568 -4.662217 0
M  V30 56 O -2.989482 -4.196668 -4.495686 0
M  V30 57 N -1.630544 -2.464584 -5.142532 0
M  V30 58 C -0.642695 -3.473358 -5.453564 0
M  V30 59 C -1.350158 -1.172959 -5.351736 0
M  V30 60 N -0.154719 -0.723536 -5.922023 0
M  V30 61 C 1.095883 -1.255831 -6.319750 0
M  V30 62 C 1.426503 -1.274904 -7.681590 0
M  V30 63 C 2.607713 -1.744846 -8.286864 0
M  V30 64 C 3.502552 -2.230081 -7.354690 0
M  V30 65 I 5.319613 -2.972029 -8.137122 0
M  V30 66 C 3.311380 -2.271445 -5.986894 0
M  V30 67 C 2.107729 -1.776092 -5.561626 0
M  V30 68 F 1.925376 -1.793899 -4.219654 0
M  V30 69 C -4.342973 2.085117 -2.230772 0
M  V30 70 C -4.713742 2.518546 -0.984836 0
M  V30 71 C -0.680297 -6.195491 1.576341 0
M  V30 72 C -1.831146 -5.546650 0.912242 0
M  V30 73 C -0.289230 -7.428417 0.793843 0
M  V30 74 C -1.217234 -6.720268 2.925779 0
M  V30 75 C 3.949389 1.248609 0.022852 0
M  V30 76 C 4.296721 2.032708 1.086289 0
M  V30 77 H 3.484258 4.313610 4.796273 0
M  V30 78 H 3.419509 4.425494 2.981726 0
M  V30 79 H 3.418748 2.840248 3.846760 0
M  V30 80 H 8.181374 4.728047 5.165614 0
M  V30 81 H 7.639930 1.546231 1.214929 0
M  V30 82 H 7.072240 0.180654 -0.625347 0
M  V30 83 H 5.624169 -1.003815 -1.735824 0
M  V30 84 H 5.215188 1.462175 -2.811664 0
M  V30 85 H 3.700415 0.675308 -3.343970 0
M  V30 86 H 5.276633 -0.027061 -3.822473 0
M  V30 87 H 2.702830 -0.420648 -1.876350 0
M  V30 88 H 1.714174 -3.681687 -1.756346 0
M  V30 89 H 0.827741 -1.059039 -1.945739 0
M  V30 90 H -0.283878 -2.363771 -1.529482 0
M  V30 91 H 0.733385 -0.219714 0.229702 0
M  V30 92 H -1.438781 -1.729866 -0.147858 0
M  V30 93 H 2.502170 -1.642358 0.751192 0
M  V30 94 H 1.372650 -2.087132 2.040681 0
M  V30 95 H 1.321822 -6.066016 2.159665 0
M  V30 96 H -0.215922 -3.772397 2.285076 0
M  V30 97 H -0.449823 -2.899585 5.766299 0
M  V30 98 H 0.979781 -2.084330 5.133385 0
M  V30 99 H -2.020497 -0.860707 2.944163 0
M  V30 100 H -2.117486 -2.638475 2.785623 0
M  V30 101 H -3.119438 -2.684036 5.123562 0
M  V30 102 H -3.930487 -1.750786 3.810938 0
M  V30 103 H -4.939064 0.024835 5.333078 0
M  V30 104 H -4.318615 -0.919283 6.682255 0
M  V30 105 H -2.876820 0.944071 7.434080 0
M  V30 106 H -4.546970 1.458892 7.174299 0
M  V30 107 H -2.559444 1.217299 4.139003 0
M  V30 108 H -1.414959 1.441908 5.488224 0
M  V30 109 H -0.791160 2.699133 3.643129 0
M  V30 110 H -1.161463 3.783045 4.974491 0
M  V30 111 H -2.596425 4.869017 3.715651 0
M  V30 112 H -3.321067 5.384310 1.409951 0
M  V30 113 H -4.631228 5.116827 2.556720 0
M  V30 114 H -5.915242 3.776462 0.979669 0
M  V30 115 H -5.515162 5.382928 0.365468 0
M  V30 116 H -3.871859 5.698539 -1.337074 0
M  V30 117 H -3.242413 4.908450 -3.486872 0
M  V30 118 H -1.382285 1.401747 -5.586181 0
M  V30 119 H -4.382932 -0.101504 -4.351492 0
M  V30 120 H -5.115575 -3.656604 -3.993549 0
M  V30 121 H -5.926432 -2.192409 -4.574196 0
M  V30 122 H -5.319050 -2.319523 -2.831092 0
M  V30 123 H 0.089274 -3.621533 -4.660626 0
M  V30 124 H -1.148153 -4.487268 -5.538742 0
M  V30 125 H -0.203055 -3.352844 -6.481119 0
M  V30 126 H 0.025727 0.265377 -6.184458 0
M  V30 127 H 0.683556 -0.872472 -8.387066 0
M  V30 128 H 2.719659 -1.694520 -9.352039 0
M  V30 129 H 4.047103 -2.661534 -5.311112 0
M  V30 130 H -4.477427 1.049287 -2.466484 0
M  V30 131 H -5.131325 1.803261 -0.291886 0
M  V30 132 H -1.808028 -5.737577 -0.204242 0
M  V30 133 H -2.802415 -5.981917 1.222778 0
M  V30 134 H -1.911584 -4.452849 1.055535 0
M  V30 135 H -0.515510 -7.381330 -0.279523 0
M  V30 136 H 0.765932 -7.718816 1.001483 0
M  V30 137 H -0.897450 -8.292681 1.183226 0
M  V30 138 H -2.034867 -6.064221 3.299606 0
M  V30 139 H -0.394372 -6.881399 3.632569 0
M  V30 140 H -1.703195 -7.712672 2.744941 0
M  V30 141 H 2.906248 1.167943 -0.308381 0
M  V30 142 H 3.486454 2.560498 1.554508 0
M  V30 END ATOM
M  V30 BEGIN BOND
M  V30 1 1 1 2
M  V30 2 1 2 3
M  V30 3 2 3 4
M  V30 4 1 4 5
M  V30 5 1 5 6
M  V30 6 1 6 7
M  V30 7 2 7 8
M  V30 8 1 8 9
M  V30 9 2 9 10
M  V30 10 1 10 11
M  V30 11 1 11 12
M  V30 12 1 11 13
M  V30 13 1 13 14
M  V30 14 2 14 15
M  V30 15 1 14 16
M  V30 16 1 16 17
M  V30 17 1 17 18
M  V30 18 1 18 19
M  V30 19 1 18 20
M  V30 20 1 20 21
M  V30 21 1 21 22
M  V30 22 2 22 23
M  V30 23 1 22 24
M  V30 24 1 24 25
M  V30 25 1 25 26
M  V30 26 2 26 27
M  V30 27 1 26 28
M  V30 28 1 28 29
M  V30 29 1 29 30
M  V30 30 1 30 31
M  V30 31 1 31 32
M  V30 32 1 32 33
M  V30 33 1 33 34
M  V30 34 1 34 35
M  V30 35 1 35 36
M  V30 36 1 36 37
M  V30 37 1 37 38
M  V30 38 1 38 39
M  V30 39 2 39 40
M  V30 40 1 39 41
M  V30 41 1 41 42
M  V30 42 1 42 43
M  V30 43 2 43 44
M  V30 44 1 44 45
M  V30 45 2 45 46
M  V30 46 1 46 47
M  V30 47 2 47 48
M  V30 48 2 47 49
M  V30 49 1 47 50
M  V30 50 1 50 51
M  V30 51 1 51 52
M  V30 52 2 52 53
M  V30 53 1 53 54
M  V30 54 1 53 55
M  V30 55 2 55 56
M  V30 56 1 55 57
M  V30 57 1 57 58
M  V30 58 1 57 59
M  V30 59 1 59 60
M  V30 60 1 60 61
M  V30 61 2 61 62
M  V30 62 1 62 63
M  V30 63 2 63 64
M  V30 64 1 64 65
M  V30 65 1 64 66
M  V30 66 2 66 67
M  V30 67 1 67 68
M  V30 68 1 46 69
M  V30 69 2 69 70
M  V30 70 1 24 71
M  V30 71 1 71 72
M  V30 72 1 71 73
M  V30 73 1 71 74
M  V30 74 1 10 75
M  V30 75 2 75 76
M  V30 76 2 6 2
M  V30 77 1 76 7
M  V30 78 1 21 16
M  V30 79 1 70 43
M  V30 80 2 59 51
M  V30 81 1 67 61
M  V30 82 1 1 77
M  V30 83 1 1 78
M  V30 84 1 1 79
M  V30 85 1 4 80
M  V30 86 1 8 81
M  V30 87 1 9 82
M  V30 88 1 11 83 CFG=3
M  V30 89 1 12 84
M  V30 90 1 12 85
M  V30 91 1 12 86
M  V30 92 1 13 87
M  V30 93 1 16 88 CFG=3
M  V30 94 1 17 89
M  V30 95 1 17 90
M  V30 96 1 18 91 CFG=3
M  V30 97 1 19 92
M  V30 98 1 20 93
M  V30 99 1 20 94
M  V30 100 1 24 95 CFG=1
M  V30 101 1 25 96
M  V30 102 1 28 97
M  V30 103 1 28 98
M  V30 104 1 30 99
M  V30 105 1 30 100
M  V30 106 1 31 101
M  V30 107 1 31 102
M  V30 108 1 33 103
M  V30 109 1 33 104
M  V30 110 1 34 105
M  V30 111 1 34 106
M  V30 112 1 36 107
M  V30 113 1 36 108
M  V30 114 1 37 109
M  V30 115 1 37 110
M  V30 116 1 38 111
M  V30 117 1 41 112
M  V30 118 1 41 113
M  V30 119 1 42 114
M  V30 120 1 42 115
M  V30 121 1 44 116
M  V30 122 1 45 117
M  V30 123 1 50 118
M  V30 124 1 52 119
M  V30 125 1 54 120
M  V30 126 1 54 121
M  V30 127 1 54 122
M  V30 128 1 58 123
M  V30 129 1 58 124
M  V30 130 1 58 125
M  V30 131 1 60 126
M  V30 132 1 62 127
M  V30 133 1 63 128
M  V30 134 1 66 129
M  V30 135 1 69 130
M  V30 136 1 70 131
M  V30 137 1 72 132
M  V30 138 1 72 133
M  V30 139 1 72 134
M  V30 140 1 73 135
M  V30 141 1 73 136
M  V30 142 1 73 137
M  V30 143 1 74 138
M  V30 144 1 74 139
M  V30 145 1 74 140
M  V30 146 1 75 141
M  V30 147 1 76 142
M  V30 END BOND
M  V30 END CTAB
M  END
>  <Dataset>  (14) 
ChEMBL_Kinases

>  <Ligand_Instance>  (14) 
nan

>  <PDB_ID>  (14) 
nan

>  <Standardized_SMILES>  (14) 
Cc1ncsc1-c1ccc([C@H](C)NC(=O)[C@@H]2C[C@@H](O)CN2C(=O)[C@@H](NC(=O)COCCOCCOCCNC(=O)CCc2ccc(S(=O)(=O)Nc3cc(C)c(=O)n(C)c3Nc3ccc(I)cc3F)cc2)C(C)(C)C)cc1

>  <Name>  (14) 
nan

>  <Pocket>  (14) 
nan

>  <ATP_Site>  (14) 
nan

>  <Peripheral>  (14) 
nan

>  <Num_H_Atoms_ProtBoundConf>  (14) 
nan

>  <Num_Resolved_Atoms>  (14) 
nan

>  <Num_Not_Resolved_Atoms>  (14) 
nan

$$$$
CHEMBL4473469
     RDKit          3D

  0  0  0  0  0  0  0  0  0  0999 V3000
M  V30 BEGIN CTAB
M  V30 COUNTS 67 71 0 0 0
M  V30 BEGIN ATOM
M  V30 1 N 4.021779 0.341299 6.025423 0
M  V30 2 C 2.635679 0.510828 5.823512 0
M  V30 3 O 2.089758 0.655534 6.928912 0
M  V30 4 C 2.213553 0.475307 4.438025 0
M  V30 5 C 3.053273 0.292431 3.345648 0
M  V30 6 C 2.432091 0.293075 2.115201 0
M  V30 7 C 3.328249 0.103126 0.979120 0
M  V30 8 C 4.633029 0.595830 1.074706 0
M  V30 9 C 5.540998 0.457603 0.043935 0
M  V30 10 C 5.110424 -0.187754 -1.088733 0
M  V30 11 C 3.838039 -0.693064 -1.238517 0
M  V30 12 C 2.954553 -0.536536 -0.185194 0
M  V30 13 C 1.083995 0.459557 1.947178 0
M  V30 14 C 0.286114 0.636889 3.035986 0
M  V30 15 C -1.074069 0.820177 3.063954 0
M  V30 16 C -2.186063 0.904070 2.135963 0
M  V30 17 C -2.815487 -0.442296 1.959593 0
M  V30 18 C -3.125348 -0.761266 0.542657 0
M  V30 19 N -3.566584 0.210355 -0.350346 0
M  V30 20 S -3.104018 0.095266 -1.978293 0
M  V30 21 O -3.633078 1.339465 -2.691467 0
M  V30 22 O -1.573531 0.132473 -2.111537 0
M  V30 23 C -3.658438 -1.335730 -2.810912 0
M  V30 24 C -3.104288 -2.591626 -2.224256 0
M  V30 25 N -1.631190 -2.591033 -2.265167 0
M  V30 26 C -1.267041 -2.691351 -3.634123 0
M  V30 27 C 0.129014 -3.263318 -3.812942 0
M  V30 28 O 0.032753 -4.567528 -3.273422 0
M  V30 29 C -0.024809 -4.436629 -1.910960 0
M  V30 30 C -1.203472 -3.646031 -1.419917 0
M  V30 31 C -3.339962 1.550530 0.112566 0
M  V30 32 C -1.932033 1.482612 0.783354 0
M  V30 33 C -1.318151 0.944386 4.439377 0
M  V30 34 N -0.167266 0.836631 5.123797 0
M  V30 35 C 0.853576 0.645041 4.291835 0
M  V30 36 H 4.624075 -0.449848 5.684761 0
M  V30 37 H 5.028088 0.223306 6.175029 0
M  V30 38 H 4.101652 0.167744 3.553674 0
M  V30 39 H 5.021336 1.115444 1.953930 0
M  V30 40 H 6.565006 0.845460 0.121700 0
M  V30 41 H 5.835317 -0.293115 -1.900032 0
M  V30 42 H 3.569686 -1.191988 -2.165242 0
M  V30 43 H 1.942215 -0.918516 -0.258908 0
M  V30 44 H 0.688974 0.445656 0.970490 0
M  V30 45 H -3.021191 1.570329 2.577800 0
M  V30 46 H -3.699098 -0.578591 2.637612 0
M  V30 47 H -2.095583 -1.219014 2.324278 0
M  V30 48 H -3.951909 -1.569454 0.579245 0
M  V30 49 H -2.191063 -1.230472 0.110675 0
M  V30 50 H -3.401630 -1.234434 -3.901134 0
M  V30 51 H -4.786844 -1.436178 -2.713992 0
M  V30 52 H -3.410442 -2.750996 -1.206774 0
M  V30 53 H -3.377507 -3.486727 -2.876267 0
M  V30 54 H -1.402256 -1.709059 -4.125390 0
M  V30 55 H -1.953119 -3.445044 -4.113421 0
M  V30 56 H 0.342753 -3.260398 -4.882957 0
M  V30 57 H 0.865069 -2.715919 -3.187881 0
M  V30 58 H 0.952096 -4.048368 -1.549562 0
M  V30 59 H -0.120919 -5.471502 -1.475876 0
M  V30 60 H -0.894528 -3.185917 -0.436677 0
M  V30 61 H -2.039633 -4.344877 -1.131442 0
M  V30 62 H -3.242255 2.262442 -0.735086 0
M  V30 63 H -4.082998 1.947863 0.803482 0
M  V30 64 H -1.361893 0.868966 0.085463 0
M  V30 65 H -1.622507 2.549757 0.839472 0
M  V30 66 H -2.281635 1.106598 4.951948 0
M  V30 67 H -0.100546 0.898315 6.180903 0
M  V30 END ATOM
M  V30 BEGIN BOND
M  V30 1 1 1 2
M  V30 2 2 2 3
M  V30 3 1 2 4
M  V30 4 2 4 5
M  V30 5 1 5 6
M  V30 6 1 6 7
M  V30 7 2 7 8
M  V30 8 1 8 9
M  V30 9 2 9 10
M  V30 10 1 10 11
M  V30 11 2 11 12
M  V30 12 2 6 13
M  V30 13 1 13 14
M  V30 14 1 14 15
M  V30 15 1 15 16
M  V30 16 1 16 17
M  V30 17 1 17 18
M  V30 18 1 18 19
M  V30 19 1 19 20
M  V30 20 2 20 21
M  V30 21 2 20 22
M  V30 22 1 20 23
M  V30 23 1 23 24
M  V30 24 1 24 25
M  V30 25 1 25 26
M  V30 26 1 26 27
M  V30 27 1 27 28
M  V30 28 1 28 29
M  V30 29 1 29 30
M  V30 30 1 19 31
M  V30 31 1 31 32
M  V30 32 2 15 33
M  V30 33 1 33 34
M  V30 34 1 34 35
M  V30 35 1 35 4
M  V30 36 1 12 7
M  V30 37 2 35 14
M  V30 38 1 32 16
M  V30 39 1 30 25
M  V30 40 1 1 36
M  V30 41 1 1 37
M  V30 42 1 5 38
M  V30 43 1 8 39
M  V30 44 1 9 40
M  V30 45 1 10 41
M  V30 46 1 11 42
M  V30 47 1 12 43
M  V30 48 1 13 44
M  V30 49 1 16 45
M  V30 50 1 17 46
M  V30 51 1 17 47
M  V30 52 1 18 48
M  V30 53 1 18 49
M  V30 54 1 23 50
M  V30 55 1 23 51
M  V30 56 1 24 52
M  V30 57 1 24 53
M  V30 58 1 26 54
M  V30 59 1 26 55
M  V30 60 1 27 56
M  V30 61 1 27 57
M  V30 62 1 29 58
M  V30 63 1 29 59
M  V30 64 1 30 60
M  V30 65 1 30 61
M  V30 66 1 31 62
M  V30 67 1 31 63
M  V30 68 1 32 64
M  V30 69 1 32 65
M  V30 70 1 33 66
M  V30 71 1 34 67
M  V30 END BOND
M  V30 END CTAB
M  END
>  <Dataset>  (15) 
ChEMBL_Kinases

>  <Ligand_Instance>  (15) 
nan

>  <PDB_ID>  (15) 
nan

>  <Standardized_SMILES>  (15) 
NC(=O)c1cc(-c2ccccc2)cc2c(C3CCN(S(=O)(=O)CCN4CCOCC4)CC3)c[nH]c12

>  <Name>  (15) 
nan

>  <Pocket>  (15) 
nan

>  <ATP_Site>  (15) 
nan

>  <Peripheral>  (15) 
nan

>  <Num_H_Atoms_ProtBoundConf>  (15) 
nan

>  <Num_Resolved_Atoms>  (15) 
nan

>  <Num_Not_Resolved_Atoms>  (15) 
nan

$$$$
CHEMBL4473390
     RDKit          3D

  0  0  0  0  0  0  0  0  0  0999 V3000
M  V30 BEGIN CTAB
M  V30 COUNTS 76 81 0 0 0
M  V30 BEGIN ATOM
M  V30 1 C 3.991392 -2.988374 1.236494 0
M  V30 2 C 3.444580 -1.807128 0.526512 0
M  V30 3 C 2.171896 -1.386477 0.829910 0
M  V30 4 C 1.634694 -0.301236 0.194661 0
M  V30 5 C 0.339500 0.346853 0.322819 0
M  V30 6 C 0.185572 1.734404 0.404770 0
M  V30 7 N -1.123812 2.006360 0.503245 0
M  V30 8 N -1.818862 0.891881 0.489397 0
M  V30 9 C -3.151172 0.797062 0.573695 0
M  V30 10 N -4.043308 1.892211 0.655223 0
M  V30 11 C -3.937250 3.286409 0.478686 0
M  V30 12 C -3.985436 3.761380 -0.945275 0
M  V30 13 C -2.939488 3.276782 -1.871839 0
M  V30 14 C -1.707620 4.174136 -1.884075 0
M  V30 15 O -1.545330 4.884117 -0.699377 0
M  V30 16 C -2.600512 5.743602 -0.416221 0
M  V30 17 C -3.928500 5.287510 -0.946029 0
M  V30 18 C -3.650588 -0.497173 0.547744 0
M  V30 19 C -2.751022 -1.563368 0.437361 0
M  V30 20 N -3.319534 -2.873302 0.402650 0
M  V30 21 C -2.673395 -4.150626 0.341819 0 CFG=2
M  V30 22 C -3.643273 -5.319313 0.249928 0
M  V30 23 C -4.621047 -5.252943 1.433882 0
M  V30 24 C -3.895189 -4.683897 2.645435 0
M  V30 25 C -2.485537 -5.170564 2.564630 0
M  V30 26 C -1.744642 -4.448055 1.477469 0 CFG=1
M  V30 27 O -0.700844 -5.304885 1.052785 0
M  V30 28 N -1.416149 -1.384348 0.354576 0
M  V30 29 C -0.949673 -0.126186 0.381486 0
M  V30 30 C 2.459476 0.321526 -0.756202 0
M  V30 31 C 3.737213 -0.097690 -1.063892 0
M  V30 32 C 4.259634 -1.206755 -0.399336 0
M  V30 33 C 5.612748 -1.595737 -0.755003 0
M  V30 34 O 5.498774 -2.088590 -1.933476 0
M  V30 35 N 6.827019 -1.489611 -0.033673 0
M  V30 36 C 8.023137 -1.974269 -0.694410 0
M  V30 37 C 9.160845 -2.502302 0.097698 0
M  V30 38 C 9.244552 -1.100111 -0.477943 0
M  V30 39 H 3.842989 -3.923981 0.677288 0
M  V30 40 H 3.536673 -3.012076 2.261710 0
M  V30 41 H 5.087580 -2.792701 1.409073 0
M  V30 42 H 1.503688 -1.834582 1.544884 0
M  V30 43 H 0.925317 2.516831 0.397949 0
M  V30 44 H -5.042415 1.602793 0.911638 0
M  V30 45 H -4.804390 3.797457 0.986649 0
M  V30 46 H -3.038932 3.729621 1.000683 0
M  V30 47 H -5.000698 3.542428 -1.401918 0
M  V30 48 H -2.627012 2.242668 -1.797823 0
M  V30 49 H -3.343047 3.369147 -2.933689 0
M  V30 50 H -1.664408 4.825960 -2.776645 0
M  V30 51 H -0.819711 3.512401 -1.964947 0
M  V30 52 H -2.373669 6.744400 -0.874347 0
M  V30 53 H -2.643671 5.910653 0.672261 0
M  V30 54 H -4.723742 5.664629 -0.274794 0
M  V30 55 H -4.070168 5.724902 -1.946324 0
M  V30 56 H -4.735014 -0.679545 0.610269 0
M  V30 57 H -4.362179 -2.968183 0.411634 0
M  V30 58 H -2.073134 -4.180813 -0.603251 0
M  V30 59 H -3.097503 -6.273991 0.347854 0
M  V30 60 H -4.233886 -5.328538 -0.670830 0
M  V30 61 H -4.895508 -6.302244 1.658166 0
M  V30 62 H -5.508918 -4.677061 1.204019 0
M  V30 63 H -4.422089 -4.964281 3.585598 0
M  V30 64 H -3.874485 -3.579656 2.638878 0
M  V30 65 H -1.999956 -5.046690 3.561965 0
M  V30 66 H -2.526995 -6.267829 2.293921 0
M  V30 67 H -1.234988 -3.548709 1.880368 0
M  V30 68 H -0.514092 -5.906740 1.812735 0
M  V30 69 H 2.134692 1.205669 -1.329694 0
M  V30 70 H 4.334279 0.416908 -1.799528 0
M  V30 71 H 6.698302 -1.067918 0.897190 0
M  V30 72 H 7.905086 -2.372760 -1.731632 0
M  V30 73 H 9.013607 -2.626597 1.168268 0
M  V30 74 H 9.775285 -3.295252 -0.383404 0
M  V30 75 H 9.219253 -0.265662 0.230205 0
M  V30 76 H 9.927616 -0.961780 -1.313048 0
M  V30 END ATOM
M  V30 BEGIN BOND
M  V30 1 1 1 2
M  V30 2 2 2 3
M  V30 3 1 3 4
M  V30 4 1 4 5
M  V30 5 1 5 6
M  V30 6 2 6 7
M  V30 7 1 7 8
M  V30 8 1 8 9
M  V30 9 1 9 10
M  V30 10 1 10 11
M  V30 11 1 11 12
M  V30 12 1 12 13
M  V30 13 1 13 14
M  V30 14 1 14 15
M  V30 15 1 15 16
M  V30 16 1 16 17
M  V30 17 2 9 18
M  V30 18 1 18 19
M  V30 19 1 19 20
M  V30 20 1 20 21
M  V30 21 1 21 22
M  V30 22 1 22 23
M  V30 23 1 23 24
M  V30 24 1 24 25
M  V30 25 1 25 26
M  V30 26 1 26 27
M  V30 27 2 19 28
M  V30 28 1 28 29
M  V30 29 2 4 30
M  V30 30 1 30 31
M  V30 31 2 31 32
M  V30 32 1 32 33
M  V30 33 2 33 34
M  V30 34 1 33 35
M  V30 35 1 35 36
M  V30 36 1 36 37
M  V30 37 1 37 38
M  V30 38 1 32 2
M  V30 39 1 38 36
M  V30 40 2 29 5
M  V30 41 1 29 8
M  V30 42 1 17 12
M  V30 43 1 26 21
M  V30 44 1 1 39
M  V30 45 1 1 40
M  V30 46 1 1 41
M  V30 47 1 3 42
M  V30 48 1 6 43
M  V30 49 1 10 44
M  V30 50 1 11 45
M  V30 51 1 11 46
M  V30 52 1 12 47
M  V30 53 1 13 48
M  V30 54 1 13 49
M  V30 55 1 14 50
M  V30 56 1 14 51
M  V30 57 1 16 52
M  V30 58 1 16 53
M  V30 59 1 17 54
M  V30 60 1 17 55
M  V30 61 1 18 56
M  V30 62 1 20 57
M  V30 63 1 21 58 CFG=3
M  V30 64 1 22 59
M  V30 65 1 22 60
M  V30 66 1 23 61
M  V30 67 1 23 62
M  V30 68 1 24 63
M  V30 69 1 24 64
M  V30 70 1 25 65
M  V30 71 1 25 66
M  V30 72 1 26 67 CFG=1
M  V30 73 1 27 68
M  V30 74 1 30 69
M  V30 75 1 31 70
M  V30 76 1 35 71
M  V30 77 1 36 72
M  V30 78 1 37 73
M  V30 79 1 37 74
M  V30 80 1 38 75
M  V30 81 1 38 76
M  V30 END BOND
M  V30 END CTAB
M  END
>  <Dataset>  (16) 
ChEMBL_Kinases

>  <Ligand_Instance>  (16) 
nan

>  <PDB_ID>  (16) 
nan

>  <Standardized_SMILES>  (16) 
Cc1cc(-c2cnn3c(NCC4CCOCC4)cc(N[C@@H]4CCCC[C@H]4O)nc23)ccc1C(=O)NC1CC1

>  <Name>  (16) 
nan

>  <Pocket>  (16) 
nan

>  <ATP_Site>  (16) 
nan

>  <Peripheral>  (16) 
nan

>  <Num_H_Atoms_ProtBoundConf>  (16) 
nan

>  <Num_Resolved_Atoms>  (16) 
nan

>  <Num_Not_Resolved_Atoms>  (16) 
nan

$$$$
CHEMBL468125
     RDKit          3D

  0  0  0  0  0  0  0  0  0  0999 V3000
M  V30 BEGIN CTAB
M  V30 COUNTS 47 50 0 0 0
M  V30 BEGIN ATOM
M  V30 1 C -2.560340 -0.603944 0.056362 0
M  V30 2 C -1.675609 -1.553087 0.860099 0 CFG=1
M  V30 3 N -1.879309 -1.359136 2.272368 0
M  V30 4 C -1.643881 -0.133418 2.932698 0
M  V30 5 C -0.427599 0.158686 3.464916 0
M  V30 6 N 0.943463 -0.192888 3.740305 0
M  V30 7 C 2.068691 0.090013 2.879163 0
M  V30 8 C 3.345883 -0.285430 3.226897 0
M  V30 9 C 4.343678 0.035536 2.329973 0
M  V30 10 N 4.129881 0.678713 1.167754 0
M  V30 11 C 2.896704 1.060799 0.794754 0
M  V30 12 C 2.657613 1.759212 -0.465213 0
M  V30 13 C 1.432714 2.188212 -0.930006 0
M  V30 14 C 1.330445 2.842269 -2.144775 0
M  V30 15 C 2.429119 3.097815 -2.945876 0
M  V30 16 C 3.656776 2.669867 -2.483875 0
M  V30 17 C 3.740166 2.022951 -1.277277 0
M  V30 18 F 4.981190 1.622609 -0.871617 0
M  V30 19 C 1.887874 0.747246 1.680740 0
M  V30 20 C -0.851637 1.410388 3.924568 0
M  V30 21 O -0.747315 2.528362 4.491188 0
M  V30 22 C -2.103323 1.109508 3.376729 0
M  V30 23 O -3.315928 1.431515 3.138434 0
M  V30 24 C -2.025312 -2.970495 0.529383 0
M  V30 25 C -1.268703 -3.800995 -0.275388 0
M  V30 26 C -1.686729 -5.095993 -0.514944 0
M  V30 27 C -2.862501 -5.606367 0.033097 0
M  V30 28 C -3.618848 -4.755640 0.845593 0
M  V30 29 C -3.200136 -3.464805 1.083089 0
M  V30 30 H -2.269013 -0.644153 -1.005655 0
M  V30 31 H -2.364226 0.420580 0.435034 0
M  V30 32 H -3.603530 -0.933898 0.170209 0
M  V30 33 H -0.608044 -1.387912 0.635250 0
M  V30 34 H -2.223214 -2.137618 2.907976 0
M  V30 35 H 1.140150 -0.692664 4.634680 0
M  V30 36 H 3.505232 -0.800567 4.161157 0
M  V30 37 H 5.360591 -0.241902 2.565939 0
M  V30 38 H 0.576576 1.990342 -0.308149 0
M  V30 39 H 0.308754 3.142062 -2.422062 0
M  V30 40 H 2.300776 3.612775 -3.888582 0
M  V30 41 H 4.554192 2.853911 -3.091263 0
M  V30 42 H 0.868544 1.018138 1.457898 0
M  V30 43 H -0.362868 -3.395458 -0.692795 0
M  V30 44 H -1.086487 -5.755256 -1.153552 0
M  V30 45 H -3.125416 -6.628259 -0.198479 0
M  V30 46 H -4.538640 -5.153759 1.274765 0
M  V30 47 H -3.820317 -2.842137 1.720085 0
M  V30 END ATOM
M  V30 BEGIN BOND
M  V30 1 1 1 2
M  V30 2 1 2 3
M  V30 3 1 3 4
M  V30 4 2 4 5
M  V30 5 1 5 6
M  V30 6 1 6 7
M  V30 7 2 7 8
M  V30 8 1 8 9
M  V30 9 2 9 10
M  V30 10 1 10 11
M  V30 11 1 11 12
M  V30 12 2 12 13
M  V30 13 1 13 14
M  V30 14 2 14 15
M  V30 15 1 15 16
M  V30 16 2 16 17
M  V30 17 1 17 18
M  V30 18 2 11 19
M  V30 19 1 5 20
M  V30 20 2 20 21
M  V30 21 1 20 22
M  V30 22 2 22 23
M  V30 23 1 2 24
M  V30 24 2 24 25
M  V30 25 1 25 26
M  V30 26 2 26 27
M  V30 27 1 27 28
M  V30 28 2 28 29
M  V30 29 1 22 4
M  V30 30 1 29 24
M  V30 31 1 19 7
M  V30 32 1 17 12
M  V30 33 1 1 30
M  V30 34 1 1 31
M  V30 35 1 1 32
M  V30 36 1 2 33 CFG=1
M  V30 37 1 3 34
M  V30 38 1 6 35
M  V30 39 1 8 36
M  V30 40 1 9 37
M  V30 41 1 13 38
M  V30 42 1 14 39
M  V30 43 1 15 40
M  V30 44 1 16 41
M  V30 45 1 19 42
M  V30 46 1 25 43
M  V30 47 1 26 44
M  V30 48 1 27 45
M  V30 49 1 28 46
M  V30 50 1 29 47
M  V30 END BOND
M  V30 END CTAB
M  END
>  <Dataset>  (17) 
ChEMBL_Kinases

>  <Ligand_Instance>  (17) 
nan

>  <PDB_ID>  (17) 
nan

>  <Standardized_SMILES>  (17) 
C[C@@H](Nc1c(Nc2ccnc(-c3ccccc3F)c2)c(=O)c1=O)c1ccccc1

>  <Name>  (17) 
nan

>  <Pocket>  (17) 
nan

>  <ATP_Site>  (17) 
nan

>  <Peripheral>  (17) 
nan

>  <Num_H_Atoms_ProtBoundConf>  (17) 
nan

>  <Num_Resolved_Atoms>  (17) 
nan

>  <Num_Not_Resolved_Atoms>  (17) 
nan

$$$$
CHEMBL4473364
     RDKit          3D

  0  0  0  0  0  0  0  0  0  0999 V3000
M  V30 BEGIN CTAB
M  V30 COUNTS 48 51 0 0 0
M  V30 BEGIN ATOM
M  V30 1 C 5.522829 -2.806841 3.393413 0
M  V30 2 S 5.132311 -2.433624 1.701385 0
M  V30 3 O 5.780087 -1.155460 1.238141 0
M  V30 4 O 5.749975 -3.527373 0.846882 0
M  V30 5 C 3.421837 -2.371646 1.432737 0
M  V30 6 C 2.618249 -3.447081 1.069079 0
M  V30 7 C 1.241621 -3.261652 0.881589 0
M  V30 8 C 0.582802 -2.033637 1.036628 0
M  V30 9 C 1.482688 -1.067312 1.392737 0
M  V30 10 C 2.807003 -1.148049 1.593889 0
M  V30 11 C 0.759997 0.151716 1.521961 0
M  V30 12 O 1.197209 1.093611 0.842814 0
M  V30 13 N -0.288678 0.791239 2.109258 0
M  V30 14 C -1.248199 1.665564 2.533448 0
M  V30 15 C -1.779094 2.316386 3.575325 0
M  V30 16 C -2.856185 3.089099 3.195136 0
M  V30 17 C -3.286570 3.143735 1.893082 0
M  V30 18 C -2.671021 2.436655 0.906985 0
M  V30 19 N -1.625565 1.682065 1.245042 0
M  V30 20 C -2.862451 2.244213 -0.503168 0
M  V30 21 N -3.563514 3.133704 -1.212415 0
M  V30 22 N -3.612568 2.748503 -2.485685 0
M  V30 23 C -2.907719 1.588538 -2.499531 0
M  V30 24 N -2.423739 1.245760 -1.268382 0
M  V30 25 C -1.632062 0.052413 -0.994905 0
M  V30 26 C -1.925433 -1.050482 -1.946949 0
M  V30 27 C -1.116024 -2.279923 -1.673520 0
M  V30 28 C -1.282884 -2.873701 -0.330894 0
M  V30 29 O -0.737649 -2.254627 0.772149 0
M  V30 30 H 6.119254 -1.952822 3.778804 0
M  V30 31 H 4.596864 -2.920185 4.022690 0
M  V30 32 H 6.147656 -3.712750 3.485454 0
M  V30 33 H 3.180092 -4.364509 0.964712 0
M  V30 34 H 0.839628 -4.250235 0.604293 0
M  V30 35 H 3.249569 -0.194364 1.865937 0
M  V30 36 H -0.549977 0.004717 2.739271 0
M  V30 37 H -1.181616 2.010998 4.388156 0
M  V30 38 H -3.296392 3.619027 4.010108 0
M  V30 39 H -4.112807 3.721738 1.534204 0
M  V30 40 H -2.795579 1.054959 -3.453913 0
M  V30 41 H -1.836660 -0.271794 0.034723 0
M  V30 42 H -0.563594 0.308752 -1.071351 0
M  V30 43 H -3.026814 -1.325012 -1.885474 0
M  V30 44 H -1.732255 -0.697688 -3.000519 0
M  V30 45 H -0.037760 -1.979868 -1.867200 0
M  V30 46 H -1.385322 -3.036569 -2.478129 0
M  V30 47 H -2.409116 -2.901209 -0.134949 0
M  V30 48 H -0.938397 -3.952189 -0.308319 0
M  V30 END ATOM
M  V30 BEGIN BOND
M  V30 1 1 1 2
M  V30 2 2 2 3
M  V30 3 2 2 4
M  V30 4 1 2 5
M  V30 5 2 5 6
M  V30 6 1 6 7
M  V30 7 2 7 8
M  V30 8 1 8 9
M  V30 9 2 9 10
M  V30 10 1 9 11
M  V30 11 2 11 12
M  V30 12 1 11 13
M  V30 13 1 13 14
M  V30 14 2 14 15
M  V30 15 1 15 16
M  V30 16 2 16 17
M  V30 17 1 17 18
M  V30 18 2 18 19
M  V30 19 1 18 20
M  V30 20 2 20 21
M  V30 21 1 21 22
M  V30 22 2 22 23
M  V30 23 1 23 24
M  V30 24 1 24 25
M  V30 25 1 25 26
M  V30 26 1 26 27
M  V30 27 1 27 28
M  V30 28 1 28 29
M  V30 29 1 10 5
M  V30 30 1 19 14
M  V30 31 1 24 20
M  V30 32 1 29 8
M  V30 33 1 1 30
M  V30 34 1 1 31
M  V30 35 1 1 32
M  V30 36 1 6 33
M  V30 37 1 7 34
M  V30 38 1 10 35
M  V30 39 1 13 36
M  V30 40 1 15 37
M  V30 41 1 16 38
M  V30 42 1 17 39
M  V30 43 1 23 40
M  V30 44 1 25 41
M  V30 45 1 25 42
M  V30 46 1 26 43
M  V30 47 1 26 44
M  V30 48 1 27 45
M  V30 49 1 27 46
M  V30 50 1 28 47
M  V30 51 1 28 48
M  V30 END BOND
M  V30 END CTAB
M  END
>  <Dataset>  (18) 
ChEMBL_Kinases

>  <Ligand_Instance>  (18) 
nan

>  <PDB_ID>  (18) 
nan

>  <Standardized_SMILES>  (18) 
CS(=O)(=O)c1ccc2c(c1)C(=O)Nc1cccc(n1)-c1nncn1CCCCO2

>  <Name>  (18) 
nan

>  <Pocket>  (18) 
nan

>  <ATP_Site>  (18) 
nan

>  <Peripheral>  (18) 
nan

>  <Num_H_Atoms_ProtBoundConf>  (18) 
nan

>  <Num_Resolved_Atoms>  (18) 
nan

>  <Num_Not_Resolved_Atoms>  (18) 
nan

$$$$
CHEMBL4473363
     RDKit          3D

  0  0  0  0  0  0  0  0  0  0999 V3000
M  V30 BEGIN CTAB
M  V30 COUNTS 53 56 0 0 0
M  V30 BEGIN ATOM
M  V30 1 C 1.198890 -3.265840 3.549644 0
M  V30 2 N 0.400577 -3.719147 2.407196 0
M  V30 3 C 0.652352 -3.337270 1.060294 0
M  V30 4 N 1.683518 -2.510293 0.812145 0
M  V30 5 C 1.994183 -2.096232 -0.430235 0
M  V30 6 N 3.036868 -1.242901 -0.852138 0
M  V30 7 C 2.892101 0.177031 -0.884254 0
M  V30 8 C 3.933395 0.952685 -1.362100 0
M  V30 9 N 3.809400 2.295121 -1.392278 0
M  V30 10 C 2.685400 2.888522 -0.963447 0
M  V30 11 C 2.580594 4.312252 -1.001465 0
M  V30 12 N 2.516627 5.450828 -1.035094 0
M  V30 13 C 1.595124 2.226227 -0.472330 0
M  V30 14 O 0.400539 2.583166 0.000967 0
M  V30 15 C -0.331092 3.703162 0.217991 0
M  V30 16 C -0.634135 3.943366 1.710246 0
M  V30 17 C -1.146221 2.664394 2.317828 0
M  V30 18 C -1.826184 1.763503 1.345234 0
M  V30 19 N -2.266654 2.290765 0.121868 0
M  V30 20 C -1.730276 3.505573 -0.362047 0
M  V30 21 C 1.736053 0.829307 -0.445706 0
M  V30 22 N 1.242014 -2.524796 -1.484850 0
M  V30 23 C 0.193435 -3.356843 -1.296728 0
M  V30 24 C -0.113674 -3.776526 0.002694 0
M  V30 25 C -1.220050 -4.676370 0.354674 0
M  V30 26 C -1.122525 -6.050294 0.416207 0
M  V30 27 C -2.254742 -6.792353 0.765014 0
M  V30 28 C -3.462186 -6.220229 1.049995 0
M  V30 29 C -3.562116 -4.840535 0.989004 0
M  V30 30 C -2.461861 -4.116939 0.649930 0
M  V30 31 F -2.591843 -2.772527 0.599106 0
M  V30 32 H 0.565327 -2.603532 4.205511 0
M  V30 33 H 2.085897 -2.723590 3.213267 0
M  V30 34 H 1.503462 -4.107931 4.185772 0
M  V30 35 H -0.404660 -4.361474 2.574267 0
M  V30 36 H 3.918015 -1.675637 -1.139873 0
M  V30 37 H 4.867394 0.544165 -1.723714 0
M  V30 38 H 0.104440 4.650940 -0.140475 0
M  V30 39 H -1.455763 4.687254 1.723335 0
M  V30 40 H 0.220351 4.383770 2.243515 0
M  V30 41 H -1.780469 2.886508 3.199103 0
M  V30 42 H -0.236785 2.148743 2.713986 0
M  V30 43 H -2.720286 1.319707 1.877323 0
M  V30 44 H -1.191127 0.873205 1.123429 0
M  V30 45 H -3.213434 2.052282 -0.183311 0
M  V30 46 H -1.586859 3.416918 -1.471540 0
M  V30 47 H -2.315988 4.383188 -0.065133 0
M  V30 48 H 0.998109 0.117006 -0.097256 0
M  V30 49 H -0.446628 -3.737822 -2.082596 0
M  V30 50 H -0.164389 -6.500605 0.189499 0
M  V30 51 H -2.142513 -7.871741 0.803835 0
M  V30 52 H -4.325498 -6.828827 1.318545 0
M  V30 53 H -4.520042 -4.353316 1.212750 0
M  V30 END ATOM
M  V30 BEGIN BOND
M  V30 1 1 1 2
M  V30 2 1 2 3
M  V30 3 2 3 4
M  V30 4 1 4 5
M  V30 5 1 5 6
M  V30 6 1 6 7
M  V30 7 2 7 8
M  V30 8 1 8 9
M  V30 9 2 9 10
M  V30 10 1 10 11
M  V30 11 3 11 12
M  V30 12 1 10 13
M  V30 13 1 13 14
M  V30 14 1 14 15
M  V30 15 1 15 16
M  V30 16 1 16 17
M  V30 17 1 17 18
M  V30 18 1 18 19
M  V30 19 1 19 20
M  V30 20 2 13 21
M  V30 21 2 5 22
M  V30 22 1 22 23
M  V30 23 2 23 24
M  V30 24 1 24 25
M  V30 25 2 25 26
M  V30 26 1 26 27
M  V30 27 2 27 28
M  V30 28 1 28 29
M  V30 29 2 29 30
M  V30 30 1 30 31
M  V30 31 1 24 3
M  V30 32 1 30 25
M  V30 33 1 21 7
M  V30 34 1 20 15
M  V30 35 1 1 32
M  V30 36 1 1 33
M  V30 37 1 1 34
M  V30 38 1 2 35
M  V30 39 1 6 36
M  V30 40 1 8 37
M  V30 41 1 15 38
M  V30 42 1 16 39
M  V30 43 1 16 40
M  V30 44 1 17 41
M  V30 45 1 17 42
M  V30 46 1 18 43
M  V30 47 1 18 44
M  V30 48 1 19 45
M  V30 49 1 20 46
M  V30 50 1 20 47
M  V30 51 1 21 48
M  V30 52 1 23 49
M  V30 53 1 26 50
M  V30 54 1 27 51
M  V30 55 1 28 52
M  V30 56 1 29 53
M  V30 END BOND
M  V30 END CTAB
M  END
>  <Dataset>  (19) 
ChEMBL_Kinases

>  <Ligand_Instance>  (19) 
nan

>  <PDB_ID>  (19) 
nan

>  <Standardized_SMILES>  (19) 
CNc1nc(Nc2cnc(C#N)c(OC3CCCNC3)c2)ncc1-c1ccccc1F

>  <Name>  (19) 
nan

>  <Pocket>  (19) 
nan

>  <ATP_Site>  (19) 
nan

>  <Peripheral>  (19) 
nan

>  <Num_H_Atoms_ProtBoundConf>  (19) 
nan

>  <Num_Resolved_Atoms>  (19) 
nan

>  <Num_Not_Resolved_Atoms>  (19) 
nan

$$$$
CHEMBL4473326
     RDKit          3D

  0  0  0  0  0  0  0  0  0  0999 V3000
M  V30 BEGIN CTAB
M  V30 COUNTS 41 44 0 0 0
M  V30 BEGIN ATOM
M  V30 1 O 2.792968 -1.145251 1.133295 0
M  V30 2 C 1.588797 -1.437879 0.882541 0
M  V30 3 N 1.331696 -2.574722 0.076438 0
M  V30 4 C 2.499780 -3.371720 -0.443243 0
M  V30 5 N 3.334887 -4.146252 -0.525091 0
M  V30 6 C 4.214432 -4.304915 -1.503896 0
M  V30 7 C 5.191134 -5.282465 -1.503041 0
M  V30 8 C 6.051440 -5.350244 -2.579862 0
M  V30 9 C 6.011694 -4.508143 -3.670066 0
M  V30 10 F 6.812188 -4.506507 -4.759608 0
M  V30 11 C 5.036512 -3.533716 -3.669465 0
M  V30 12 C 4.175420 -3.475214 -2.578730 0
M  V30 13 S 2.765527 -2.421670 -2.096153 0
M  V30 14 C 0.473709 -0.647531 1.392962 0
M  V30 15 C -0.871465 -0.876295 1.172601 0
M  V30 16 C -1.867713 -0.078410 1.694576 0
M  V30 17 C -1.579533 0.998617 2.469758 0
M  V30 18 N -2.601048 1.817371 2.998844 0
M  V30 19 C -4.021197 1.663664 2.790584 0
M  V30 20 C -4.589996 2.877679 2.060146 0
M  V30 21 O -3.713603 3.950692 2.034670 0
M  V30 22 C -3.156192 4.202009 3.280521 0
M  V30 23 C -2.472964 2.977352 3.851729 0
M  V30 24 C -0.255600 1.257844 2.711123 0
M  V30 25 C 0.741590 0.468681 2.195767 0
M  V30 26 H 0.399654 -2.906868 -0.188757 0
M  V30 27 H 5.393935 -6.050291 -0.738055 0
M  V30 28 H 6.837956 -6.101846 -2.626956 0
M  V30 29 H 4.829958 -2.775191 -4.419227 0
M  V30 30 H -1.088556 -1.738874 0.552360 0
M  V30 31 H -2.855085 -0.398502 1.425646 0
M  V30 32 H -4.560003 1.583930 3.764296 0
M  V30 33 H -4.291807 0.740491 2.219488 0
M  V30 34 H -5.606645 3.128234 2.414085 0
M  V30 35 H -4.700315 2.570263 0.980124 0
M  V30 36 H -2.399666 5.003817 3.149750 0
M  V30 37 H -3.901742 4.629979 4.006507 0
M  V30 38 H -1.404512 3.188779 4.036382 0
M  V30 39 H -2.891353 2.719785 4.866004 0
M  V30 40 H 0.100499 2.081825 3.309847 0
M  V30 41 H 1.798053 0.675444 2.387187 0
M  V30 END ATOM
M  V30 BEGIN BOND
M  V30 1 2 1 2
M  V30 2 1 2 3
M  V30 3 1 3 4
M  V30 4 2 4 5
M  V30 5 1 5 6
M  V30 6 2 6 7
M  V30 7 1 7 8
M  V30 8 2 8 9
M  V30 9 1 9 10
M  V30 10 1 9 11
M  V30 11 2 11 12
M  V30 12 1 12 13
M  V30 13 1 2 14
M  V30 14 2 14 15
M  V30 15 1 15 16
M  V30 16 2 16 17
M  V30 17 1 17 18
M  V30 18 1 18 19
M  V30 19 1 19 20
M  V30 20 1 20 21
M  V30 21 1 21 22
M  V30 22 1 22 23
M  V30 23 1 17 24
M  V30 24 2 24 25
M  V30 25 1 13 4
M  V30 26 1 25 14
M  V30 27 1 12 6
M  V30 28 1 23 18
M  V30 29 1 3 26
M  V30 30 1 7 27
M  V30 31 1 8 28
M  V30 32 1 11 29
M  V30 33 1 15 30
M  V30 34 1 16 31
M  V30 35 1 19 32
M  V30 36 1 19 33
M  V30 37 1 20 34
M  V30 38 1 20 35
M  V30 39 1 22 36
M  V30 40 1 22 37
M  V30 41 1 23 38
M  V30 42 1 23 39
M  V30 43 1 24 40
M  V30 44 1 25 41
M  V30 END BOND
M  V30 END CTAB
M  END
>  <Dataset>  (20) 
ChEMBL_Kinases

>  <Ligand_Instance>  (20) 
nan

>  <PDB_ID>  (20) 
nan

>  <Standardized_SMILES>  (20) 
O=C(Nc1nc2ccc(F)cc2s1)c1ccc(N2CCOCC2)cc1

>  <Name>  (20) 
nan

>  <Pocket>  (20) 
nan

>  <ATP_Site>  (20) 
nan

>  <Peripheral>  (20) 
nan

>  <Num_H_Atoms_ProtBoundConf>  (20) 
nan

>  <Num_Resolved_Atoms>  (20) 
nan

>  <Num_Not_Resolved_Atoms>  (20) 
nan

$$$$
CHEMBL4473297
     RDKit          3D

  0  0  0  0  0  0  0  0  0  0999 V3000
M  V30 BEGIN CTAB
M  V30 COUNTS 72 75 0 0 0
M  V30 BEGIN ATOM
M  V30 1 C 7.167762 0.049511 1.335088 0
M  V30 2 C 5.762321 -0.221116 0.785229 0
M  V30 3 C 4.846424 0.769178 1.416683 0 CFG=2
M  V30 4 C 4.811142 0.654140 2.893509 0
M  V30 5 O 5.920160 0.452710 3.452191 0
M  V30 6 N 3.695271 0.740157 3.772282 0
M  V30 7 C 3.854069 0.658465 5.210982 0
M  V30 8 C 2.431576 0.909475 3.139067 0
M  V30 9 C 1.290413 1.003137 3.905229 0
M  V30 10 N 0.109814 1.162158 3.271624 0
M  V30 11 C 0.044799 1.229532 1.906679 0
M  V30 12 N -1.295212 1.392763 1.473232 0
M  V30 13 C -2.181204 0.479237 0.812630 0
M  V30 14 C -1.529960 -0.713769 0.495041 0
M  V30 15 C -2.224672 -1.690037 -0.160181 0
M  V30 16 C -3.546688 -1.503578 -0.503554 0
M  V30 17 C -4.425793 -2.425917 -1.213716 0
M  V30 18 O -5.681808 -2.292865 -1.368927 0
M  V30 19 N -3.942324 -3.611912 -1.828459 0
M  V30 20 C -4.691991 -4.598965 -2.544566 0
M  V30 21 C -4.306085 -4.515923 -4.035436 0
M  V30 22 C -2.851784 -4.929837 -3.975299 0
M  V30 23 C -2.765285 -5.915657 -2.851164 0
M  V30 24 C -4.158291 -5.969221 -2.213508 0
M  V30 25 C -4.147874 -0.311511 -0.170297 0
M  V30 26 C -3.519414 0.714865 0.486152 0
M  V30 27 O -3.872397 1.955082 0.919032 0
M  V30 28 C -5.116171 2.544185 0.792310 0
M  V30 29 C -6.261128 1.882196 1.480068 0
M  V30 30 O -7.437111 2.637966 1.230806 0
M  V30 31 N 1.181679 1.133543 1.193520 0
M  V30 32 C 2.387369 0.973434 1.764191 0
M  V30 33 N 3.527065 0.879595 0.908720 0
M  V30 34 C 3.332414 0.886711 -0.552906 0
M  V30 35 C 4.103312 1.965222 -1.241198 0
M  V30 36 C 3.480266 -0.483657 -1.151530 0
M  V30 37 H 7.932100 -0.059998 0.509087 0
M  V30 38 H 7.278915 1.113896 1.648437 0
M  V30 39 H 7.459069 -0.670346 2.117944 0
M  V30 40 H 5.567367 -1.273637 1.074430 0
M  V30 41 H 5.824325 -0.040379 -0.283545 0
M  V30 42 H 5.330496 1.780866 1.231778 0
M  V30 43 H 3.909829 1.650679 5.703316 0
M  V30 44 H 4.856026 0.178753 5.392636 0
M  V30 45 H 3.133771 -0.042406 5.680878 0
M  V30 46 H 1.409556 0.943023 4.971784 0
M  V30 47 H -1.635877 2.335876 1.694319 0
M  V30 48 H -0.518567 -0.949618 0.717684 0
M  V30 49 H -1.816372 -2.652345 -0.453150 0
M  V30 50 H -2.898710 -3.802074 -1.753351 0
M  V30 51 H -5.791917 -4.496697 -2.446151 0
M  V30 52 H -4.899202 -5.281082 -4.547335 0
M  V30 53 H -4.456629 -3.483233 -4.407562 0
M  V30 54 H -2.276301 -4.018330 -3.679746 0
M  V30 55 H -2.504389 -5.318125 -4.956577 0
M  V30 56 H -2.494949 -6.900690 -3.284511 0
M  V30 57 H -2.065247 -5.643158 -2.050666 0
M  V30 58 H -4.722834 -6.779432 -2.737166 0
M  V30 59 H -4.083294 -6.161464 -1.115463 0
M  V30 60 H -5.158391 -0.079055 -0.410242 0
M  V30 61 H -5.349555 2.612053 -0.303012 0
M  V30 62 H -5.022101 3.601421 1.131346 0
M  V30 63 H -6.504763 0.868954 1.205180 0
M  V30 64 H -6.139143 1.969628 2.598082 0
M  V30 65 H -8.088993 2.470957 1.959669 0
M  V30 66 H 2.246246 1.162290 -0.731452 0
M  V30 67 H 4.682048 1.462684 -2.068264 0
M  V30 68 H 3.474159 2.725225 -1.749175 0
M  V30 69 H 4.777834 2.550136 -0.582168 0
M  V30 70 H 2.530872 -0.858663 -1.642406 0
M  V30 71 H 4.201984 -0.442370 -1.992990 0
M  V30 72 H 3.704244 -1.280771 -0.404527 0
M  V30 END ATOM
M  V30 BEGIN BOND
M  V30 1 1 1 2
M  V30 2 1 2 3
M  V30 3 1 3 4
M  V30 4 2 4 5
M  V30 5 1 4 6
M  V30 6 1 6 7
M  V30 7 1 6 8
M  V30 8 2 8 9
M  V30 9 1 9 10
M  V30 10 2 10 11
M  V30 11 1 11 12
M  V30 12 1 12 13
M  V30 13 2 13 14
M  V30 14 1 14 15
M  V30 15 2 15 16
M  V30 16 1 16 17
M  V30 17 2 17 18
M  V30 18 1 17 19
M  V30 19 1 19 20
M  V30 20 1 20 21
M  V30 21 1 21 22
M  V30 22 1 22 23
M  V30 23 1 23 24
M  V30 24 1 16 25
M  V30 25 2 25 26
M  V30 26 1 26 27
M  V30 27 1 27 28
M  V30 28 1 28 29
M  V30 29 1 29 30
M  V30 30 1 11 31
M  V30 31 2 31 32
M  V30 32 1 32 33
M  V30 33 1 33 34
M  V30 34 1 34 35
M  V30 35 1 34 36
M  V30 36 1 33 3
M  V30 37 1 32 8
M  V30 38 1 26 13
M  V30 39 1 24 20
M  V30 40 1 1 37
M  V30 41 1 1 38
M  V30 42 1 1 39
M  V30 43 1 2 40
M  V30 44 1 2 41
M  V30 45 1 3 42 CFG=1
M  V30 46 1 7 43
M  V30 47 1 7 44
M  V30 48 1 7 45
M  V30 49 1 9 46
M  V30 50 1 12 47
M  V30 51 1 14 48
M  V30 52 1 15 49
M  V30 53 1 19 50
M  V30 54 1 20 51
M  V30 55 1 21 52
M  V30 56 1 21 53
M  V30 57 1 22 54
M  V30 58 1 22 55
M  V30 59 1 23 56
M  V30 60 1 23 57
M  V30 61 1 24 58
M  V30 62 1 24 59
M  V30 63 1 25 60
M  V30 64 1 28 61
M  V30 65 1 28 62
M  V30 66 1 29 63
M  V30 67 1 29 64
M  V30 68 1 30 65
M  V30 69 1 34 66
M  V30 70 1 35 67
M  V30 71 1 35 68
M  V30 72 1 35 69
M  V30 73 1 36 70
M  V30 74 1 36 71
M  V30 75 1 36 72
M  V30 END BOND
M  V30 END CTAB
M  END
>  <Dataset>  (21) 
ChEMBL_Kinases

>  <Ligand_Instance>  (21) 
nan

>  <PDB_ID>  (21) 
nan

>  <Standardized_SMILES>  (21) 
CC[C@@H]1C(=O)N(C)c2cnc(Nc3ccc(C(=O)NC4CCCC4)cc3OCCO)nc2N1C(C)C

>  <Name>  (21) 
nan

>  <Pocket>  (21) 
nan

>  <ATP_Site>  (21) 
nan

>  <Peripheral>  (21) 
nan

>  <Num_H_Atoms_ProtBoundConf>  (21) 
nan

>  <Num_Resolved_Atoms>  (21) 
nan

>  <Num_Not_Resolved_Atoms>  (21) 
nan

$$$$
CHEMBL4473180
     RDKit          3D

  0  0  0  0  0  0  0  0  0  0999 V3000
M  V30 BEGIN CTAB
M  V30 COUNTS 41 44 0 0 0
M  V30 BEGIN ATOM
M  V30 1 C 2.193175 -4.518128 2.278961 0
M  V30 2 C 2.088055 -4.489493 0.776790 0
M  V30 3 O 3.198179 -4.902422 0.108565 0
M  V30 4 C 1.825730 -3.107000 0.297949 0
M  V30 5 C 1.601019 -1.979164 -0.074051 0
M  V30 6 C 1.309216 -0.635241 -0.509569 0
M  V30 7 C 1.092784 -0.359279 -1.865725 0
M  V30 8 C 0.818360 0.949243 -2.211358 0
M  V30 9 C 0.745331 1.991421 -1.308754 0
M  V30 10 F 0.469207 3.261634 -1.723033 0
M  V30 11 C 0.967383 1.673903 0.033335 0
M  V30 12 C 0.878845 2.814496 0.951475 0
M  V30 13 C 1.752879 3.761938 1.465376 0
M  V30 14 N 1.052200 4.568397 2.282054 0
M  V30 15 C -0.239852 4.192506 2.326322 0
M  V30 16 C -1.265202 4.772294 3.050387 0
M  V30 17 N -2.494839 4.197098 2.921893 0
M  V30 18 C -2.647717 3.117117 2.114686 0
M  V30 19 N -3.893767 2.462825 1.928446 0
M  V30 20 N -1.617106 2.599208 1.437791 0
M  V30 21 C -0.364847 3.096390 1.499136 0
M  V30 22 C 1.244677 0.375817 0.417146 0
M  V30 23 C 0.858583 -5.345206 0.461512 0
M  V30 24 N -0.295611 -5.273969 0.309832 0
M  V30 25 C -1.117724 -6.262842 0.031335 0
M  V30 26 C -0.546039 -7.530659 -0.095625 0
M  V30 27 S 1.279468 -7.128728 0.228652 0
M  V30 28 H 3.208972 -4.207842 2.616191 0
M  V30 29 H 1.846138 -5.464082 2.696929 0
M  V30 30 H 1.505348 -3.709713 2.644444 0
M  V30 31 H 3.979866 -4.846148 0.738272 0
M  V30 32 H 1.140278 -1.145212 -2.607727 0
M  V30 33 H 0.647436 1.181320 -3.262102 0
M  V30 34 H 2.783659 3.703954 1.149281 0
M  V30 35 H 1.571160 5.351651 2.760351 0
M  V30 36 H -1.108496 5.632119 3.683858 0
M  V30 37 H -3.887709 1.587029 2.491846 0
M  V30 38 H -4.810483 2.531698 1.439313 0
M  V30 39 H 1.404008 0.220583 1.484184 0
M  V30 40 H -2.155888 -5.895238 -0.055332 0
M  V30 41 H -1.463840 -8.338328 -0.357953 0
M  V30 END ATOM
M  V30 BEGIN BOND
M  V30 1 1 1 2
M  V30 2 1 2 3
M  V30 3 1 2 4
M  V30 4 3 4 5
M  V30 5 1 5 6
M  V30 6 2 6 7
M  V30 7 1 7 8
M  V30 8 2 8 9
M  V30 9 1 9 10
M  V30 10 1 9 11
M  V30 11 1 11 12
M  V30 12 2 12 13
M  V30 13 1 13 14
M  V30 14 1 14 15
M  V30 15 2 15 16
M  V30 16 1 16 17
M  V30 17 2 17 18
M  V30 18 1 18 19
M  V30 19 1 18 20
M  V30 20 2 20 21
M  V30 21 2 11 22
M  V30 22 1 2 23
M  V30 23 2 23 24
M  V30 24 1 24 25
M  V30 25 2 25 26
M  V30 26 1 26 27
M  V30 27 1 22 6
M  V30 28 1 27 23
M  V30 29 1 21 12
M  V30 30 1 21 15
M  V30 31 1 1 28
M  V30 32 1 1 29
M  V30 33 1 1 30
M  V30 34 1 3 31
M  V30 35 1 7 32
M  V30 36 1 8 33
M  V30 37 1 13 34
M  V30 38 1 14 35
M  V30 39 1 16 36
M  V30 40 1 19 37
M  V30 41 1 19 38
M  V30 42 1 22 39
M  V30 43 1 25 40
M  V30 44 1 26 41
M  V30 END BOND
M  V30 END CTAB
M  END
>  <Dataset>  (22) 
ChEMBL_Kinases

>  <Ligand_Instance>  (22) 
nan

>  <PDB_ID>  (22) 
nan

>  <Standardized_SMILES>  (22) 
CC(O)(C#Cc1ccc(F)c(-c2c[nH]c3cnc(N)nc23)c1)c1nccs1

>  <Name>  (22) 
nan

>  <Pocket>  (22) 
nan

>  <ATP_Site>  (22) 
nan

>  <Peripheral>  (22) 
nan

>  <Num_H_Atoms_ProtBoundConf>  (22) 
nan

>  <Num_Resolved_Atoms>  (22) 
nan

>  <Num_Not_Resolved_Atoms>  (22) 
nan

$$$$
CHEMBL447317
     RDKit          3D

  0  0  0  0  0  0  0  0  0  0999 V3000
M  V30 BEGIN CTAB
M  V30 COUNTS 56 61 0 0 0
M  V30 BEGIN ATOM
M  V30 1 C 4.753056 -2.626158 6.005372 0
M  V30 2 N 5.062473 -1.521829 5.105711 0
M  V30 3 C 4.052362 -0.731555 4.469793 0
M  V30 4 N 2.955854 -0.576595 5.161402 0
M  V30 5 S 4.417897 -0.071308 2.839628 0
M  V30 6 C 2.990612 0.900563 2.225930 0
M  V30 7 C 3.364051 1.415583 0.874101 0
M  V30 8 C 2.289653 2.243730 0.222387 0
M  V30 9 N 1.056363 1.502908 0.029718 0
M  V30 10 C 0.736455 0.732495 -1.148814 0
M  V30 11 O 1.451424 0.588646 -2.168097 0
M  V30 12 C -0.592980 0.197829 -0.836861 0
M  V30 13 C -1.039607 0.588805 0.376849 0
M  V30 14 C -0.016790 1.432596 0.982972 0
M  V30 15 O -0.095275 1.962870 2.096613 0
M  V30 16 N -2.307652 0.250595 0.979388 0
M  V30 17 C -2.579911 0.438640 2.261339 0
M  V30 18 C -3.871968 0.010314 2.482664 0
M  V30 19 C -4.319557 -0.430758 1.260129 0
M  V30 20 C -5.580440 -0.950551 0.998844 0
M  V30 21 C -5.840276 -1.333544 -0.300190 0
M  V30 22 C -4.872287 -1.187654 -1.240890 0
M  V30 23 C -3.608787 -0.681771 -1.043043 0
M  V30 24 C -3.345538 -0.293267 0.271727 0
M  V30 25 C -2.687963 -0.594212 -2.171979 0
M  V30 26 C -2.827228 -1.704811 -3.140337 0
M  V30 27 C -1.462225 -2.317860 -3.252513 0
M  V30 28 C -1.161561 -3.384486 -4.075524 0
M  V30 29 C 0.154189 -3.848717 -3.981766 0
M  V30 30 C 1.103056 -3.283352 -3.121576 0
M  V30 31 C 0.712586 -2.231774 -2.346348 0
M  V30 32 C -0.557567 -1.731688 -2.395203 0
M  V30 33 N -1.295852 -0.659659 -1.767773 0
M  V30 34 H 3.653922 -2.586024 6.250152 0
M  V30 35 H 4.948563 -3.592401 5.473392 0
M  V30 36 H 5.282194 -2.551648 6.973912 0
M  V30 37 H 6.090164 -1.330294 4.943431 0
M  V30 38 H 2.181176 -0.014437 4.760050 0
M  V30 39 H 2.145877 0.192468 2.210217 0
M  V30 40 H 2.771992 1.735931 2.938560 0
M  V30 41 H 3.602576 0.542394 0.237399 0
M  V30 42 H 4.246861 2.075800 0.989798 0
M  V30 43 H 2.054436 3.128812 0.845609 0
M  V30 44 H 2.667209 2.523027 -0.782818 0
M  V30 45 H -1.926529 0.844044 2.989300 0
M  V30 46 H -4.388965 0.032423 3.430128 0
M  V30 47 H -6.338689 -1.059567 1.760509 0
M  V30 48 H -6.811891 -1.741238 -0.534895 0
M  V30 49 H -5.140025 -1.495423 -2.240220 0
M  V30 50 H -2.857238 0.376214 -2.735300 0
M  V30 51 H -3.511645 -2.490872 -2.738510 0
M  V30 52 H -3.205136 -1.371337 -4.120037 0
M  V30 53 H -1.858148 -3.855547 -4.755344 0
M  V30 54 H 0.440437 -4.684339 -4.608201 0
M  V30 55 H 2.075310 -3.722827 -3.135981 0
M  V30 56 H 1.464488 -1.865045 -1.681959 0
M  V30 END ATOM
M  V30 BEGIN BOND
M  V30 1 1 1 2
M  V30 2 1 2 3
M  V30 3 2 3 4 CFG=2
M  V30 4 1 3 5
M  V30 5 1 5 6
M  V30 6 1 6 7
M  V30 7 1 7 8
M  V30 8 1 8 9
M  V30 9 1 9 10
M  V30 10 2 10 11
M  V30 11 1 10 12
M  V30 12 2 12 13
M  V30 13 1 13 14
M  V30 14 2 14 15
M  V30 15 1 13 16
M  V30 16 1 16 17
M  V30 17 2 17 18
M  V30 18 1 18 19
M  V30 19 2 19 20
M  V30 20 1 20 21
M  V30 21 2 21 22
M  V30 22 1 22 23
M  V30 23 2 23 24
M  V30 24 1 23 25
M  V30 25 1 25 26
M  V30 26 1 26 27
M  V30 27 2 27 28
M  V30 28 1 28 29
M  V30 29 2 29 30
M  V30 30 1 30 31
M  V30 31 2 31 32
M  V30 32 1 32 33
M  V30 33 1 14 9
M  V30 34 1 24 16
M  V30 35 1 33 25
M  V30 36 1 33 12
M  V30 37 1 24 19
M  V30 38 1 32 27
M  V30 39 1 1 34
M  V30 40 1 1 35
M  V30 41 1 1 36
M  V30 42 1 2 37
M  V30 43 1 4 38
M  V30 44 1 6 39
M  V30 45 1 6 40
M  V30 46 1 7 41
M  V30 47 1 7 42
M  V30 48 1 8 43
M  V30 49 1 8 44
M  V30 50 1 17 45
M  V30 51 1 18 46
M  V30 52 1 20 47
M  V30 53 1 21 48
M  V30 54 1 22 49
M  V30 55 1 25 50
M  V30 56 1 26 51
M  V30 57 1 26 52
M  V30 58 1 28 53
M  V30 59 1 29 54
M  V30 60 1 30 55
M  V30 61 1 31 56
M  V30 END BOND
M  V30 END CTAB
M  END
>  <Dataset>  (23) 
ChEMBL_Kinases

>  <Ligand_Instance>  (23) 
nan

>  <PDB_ID>  (23) 
nan

>  <Standardized_SMILES>  (23) 
CNC(=N)SCCCN1C(=O)C2=C(C1=O)n1ccc3cccc(c31)C1Cc3ccccc3N21

>  <Name>  (23) 
nan

>  <Pocket>  (23) 
nan

>  <ATP_Site>  (23) 
nan

>  <Peripheral>  (23) 
nan

>  <Num_H_Atoms_ProtBoundConf>  (23) 
nan

>  <Num_Resolved_Atoms>  (23) 
nan

>  <Num_Not_Resolved_Atoms>  (23) 
nan

$$$$
CHEMBL4473150
     RDKit          3D

  0  0  0  0  0  0  0  0  0  0999 V3000
M  V30 BEGIN CTAB
M  V30 COUNTS 44 47 0 0 0
M  V30 BEGIN ATOM
M  V30 1 C 0.998493 -5.271141 1.949606 0
M  V30 2 N 0.815748 -4.510970 0.710845 0
M  V30 3 C 0.929555 -3.177286 0.616540 0
M  V30 4 C 0.700782 -2.758030 -0.679084 0
M  V30 5 C 0.741154 -1.375059 -1.148463 0
M  V30 6 C 0.487937 -1.111322 -2.486090 0
M  V30 7 C 0.542421 0.234411 -2.869763 0
M  V30 8 N 0.306533 0.571614 -4.159547 0
M  V30 9 C 0.366122 1.879659 -4.500682 0
M  V30 10 C 0.657393 2.878618 -3.585611 0
M  V30 11 N 0.890517 2.528762 -2.302979 0
M  V30 12 C 0.837395 1.233283 -1.936914 0
M  V30 13 C 1.076709 0.881574 -0.623700 0
M  V30 14 O 1.374702 1.798498 0.362814 0
M  V30 15 C 1.627868 1.525627 1.704424 0
M  V30 16 C 0.526477 0.856893 2.454404 0
M  V30 17 C 0.914816 0.607884 3.910544 0
M  V30 18 N -0.088468 -0.167358 4.575226 0
M  V30 19 C -1.351492 -0.189982 3.879683 0
M  V30 20 C -1.769257 1.177560 3.397373 0
M  V30 21 F -2.083082 2.016472 4.430626 0
M  V30 22 F -2.947608 0.974155 2.666732 0
M  V30 23 C -0.696286 1.749611 2.516189 0
M  V30 24 N 1.026517 -0.414055 -0.243460 0
M  V30 25 C 0.441926 -3.914974 -1.363549 0
M  V30 26 N 0.519648 -4.942811 -0.499220 0
M  V30 27 H 1.078068 -6.337795 1.729077 0
M  V30 28 H 1.846668 -4.856101 2.512943 0
M  V30 29 H 0.092022 -5.127634 2.579598 0
M  V30 30 H 1.170512 -2.520186 1.454840 0
M  V30 31 H 0.260968 -1.894915 -3.196587 0
M  V30 32 H 0.169053 2.073686 -5.536265 0
M  V30 33 H 0.665859 3.870866 -4.019960 0
M  V30 34 H 1.902695 2.510586 2.178350 0
M  V30 35 H 2.555433 0.913219 1.768990 0
M  V30 36 H 0.319078 -0.121362 2.020122 0
M  V30 37 H 1.868869 0.020347 3.906994 0
M  V30 38 H 1.093026 1.600757 4.408637 0
M  V30 39 H 0.198148 -1.126295 4.792885 0
M  V30 40 H -2.142293 -0.562005 4.563490 0
M  V30 41 H -1.304686 -0.872039 3.009627 0
M  V30 42 H -1.093583 1.876660 1.510964 0
M  V30 43 H -0.344818 2.754131 2.842125 0
M  V30 44 H 0.216348 -3.954373 -2.424187 0
M  V30 END ATOM
M  V30 BEGIN BOND
M  V30 1 1 1 2
M  V30 2 1 2 3
M  V30 3 2 3 4
M  V30 4 1 4 5
M  V30 5 2 5 6
M  V30 6 1 6 7
M  V30 7 2 7 8
M  V30 8 1 8 9
M  V30 9 2 9 10
M  V30 10 1 10 11
M  V30 11 2 11 12
M  V30 12 1 12 13
M  V30 13 1 13 14
M  V30 14 1 14 15
M  V30 15 1 15 16
M  V30 16 1 16 17
M  V30 17 1 17 18
M  V30 18 1 18 19
M  V30 19 1 19 20
M  V30 20 1 20 21
M  V30 21 1 20 22
M  V30 22 1 20 23
M  V30 23 2 13 24
M  V30 24 1 4 25
M  V30 25 2 25 26
M  V30 26 1 26 2
M  V30 27 1 24 5
M  V30 28 1 12 7
M  V30 29 1 23 16
M  V30 30 1 1 27
M  V30 31 1 1 28
M  V30 32 1 1 29
M  V30 33 1 3 30
M  V30 34 1 6 31
M  V30 35 1 9 32
M  V30 36 1 10 33
M  V30 37 1 15 34
M  V30 38 1 15 35
M  V30 39 1 16 36
M  V30 40 1 17 37
M  V30 41 1 17 38
M  V30 42 1 18 39
M  V30 43 1 19 40
M  V30 44 1 19 41
M  V30 45 1 23 42
M  V30 46 1 23 43
M  V30 47 1 25 44
M  V30 END BOND
M  V30 END CTAB
M  END
>  <Dataset>  (24) 
ChEMBL_Kinases

>  <Ligand_Instance>  (24) 
nan

>  <PDB_ID>  (24) 
nan

>  <Standardized_SMILES>  (24) 
Cn1cc(-c2cc3nccnc3c(OCC3CNCC(F)(F)C3)n2)cn1

>  <Name>  (24) 
nan

>  <Pocket>  (24) 
nan

>  <ATP_Site>  (24) 
nan

>  <Peripheral>  (24) 
nan

>  <Num_H_Atoms_ProtBoundConf>  (24) 
nan

>  <Num_Resolved_Atoms>  (24) 
nan

>  <Num_Not_Resolved_Atoms>  (24) 
nan

$$$$
CHEMBL4473141
     RDKit          3D

  0  0  0  0  0  0  0  0  0  0999 V3000
M  V30 BEGIN CTAB
M  V30 COUNTS 46 49 0 0 0
M  V30 BEGIN ATOM
M  V30 1 C -2.131530 -2.905465 4.865030 0
M  V30 2 C -1.366771 -2.231232 3.787358 0
M  V30 3 C -0.065191 -1.785044 3.916361 0
M  V30 4 C 0.603907 -1.157255 2.867101 0
M  V30 5 O 1.901661 -0.823687 3.307405 0
M  V30 6 C -0.063083 -0.972576 1.643666 0
M  V30 7 C 0.929387 -0.312507 0.839817 0
M  V30 8 C 1.921042 -0.883946 -0.000794 0
M  V30 9 C 2.839068 -0.062234 -0.619418 0
M  V30 10 C 2.790859 1.300826 -0.420802 0
M  V30 11 C 3.817938 2.115175 -1.125320 0 CFG=1
M  V30 12 C 5.145181 1.768664 -0.449936 0
M  V30 13 N 3.866888 1.600384 -2.484566 0
M  V30 14 C 1.851093 1.904122 0.383136 0
M  V30 15 C 0.929630 1.095834 1.006031 0
M  V30 16 C -1.330831 -1.421071 1.557502 0
M  V30 17 C -1.981787 -2.035910 2.589447 0
M  V30 18 N -3.245526 -2.450023 2.410496 0
M  V30 19 C -3.911829 -2.289844 1.256862 0
M  V30 20 O -5.084726 -2.681180 1.110071 0
M  V30 21 C -3.228268 -1.663128 0.226963 0
M  V30 22 C -3.911424 -1.497620 -0.954985 0
M  V30 23 F -5.180356 -1.935890 -1.072432 0
M  V30 24 C -3.238546 -0.875797 -1.977934 0
M  V30 25 C -1.921554 -0.406159 -1.897122 0
M  V30 26 C -1.354882 -0.632964 -0.667389 0
M  V30 27 C -1.946871 -1.232782 0.379127 0
M  V30 28 H -1.413015 -3.068808 5.718071 0
M  V30 29 H -2.906424 -2.224894 5.308185 0
M  V30 30 H -2.563062 -3.857790 4.540047 0
M  V30 31 H 0.328291 -1.991925 4.912406 0
M  V30 32 H 2.655361 -1.483958 3.167956 0
M  V30 33 H 1.823131 -1.963834 -0.052039 0
M  V30 34 H 3.545395 -0.580984 -1.231353 0
M  V30 35 H 3.643626 3.195036 -1.063751 0
M  V30 36 H 5.515951 0.827445 -0.876978 0
M  V30 37 H 4.986268 1.731616 0.647387 0
M  V30 38 H 5.885475 2.602179 -0.600330 0
M  V30 39 H 4.785355 1.191270 -2.729712 0
M  V30 40 H 3.511164 2.327870 -3.136865 0
M  V30 41 H 1.847375 2.977564 0.512862 0
M  V30 42 H 0.213759 1.616642 1.625633 0
M  V30 43 H -3.768938 -2.924531 3.184271 0
M  V30 44 H -3.831137 -0.772245 -2.891889 0
M  V30 45 H -1.595752 0.048518 -2.820249 0
M  V30 46 H -0.408005 -0.224333 -0.801429 0
M  V30 END ATOM
M  V30 BEGIN BOND
M  V30 1 1 1 2
M  V30 2 2 2 3
M  V30 3 1 3 4
M  V30 4 1 4 5
M  V30 5 2 4 6
M  V30 6 1 6 7
M  V30 7 2 7 8
M  V30 8 1 8 9
M  V30 9 2 9 10
M  V30 10 1 10 11
M  V30 11 1 11 12
M  V30 12 1 11 13
M  V30 13 1 10 14
M  V30 14 2 14 15
M  V30 15 1 6 16
M  V30 16 2 16 17
M  V30 17 1 17 18
M  V30 18 1 18 19
M  V30 19 2 19 20
M  V30 20 1 19 21
M  V30 21 2 21 22
M  V30 22 1 22 23
M  V30 23 1 22 24
M  V30 24 2 24 25
M  V30 25 1 25 26
M  V30 26 2 26 27
M  V30 27 1 17 2
M  V30 28 1 27 21
M  V30 29 1 15 7
M  V30 30 1 27 16
M  V30 31 1 1 28
M  V30 32 1 1 29
M  V30 33 1 1 30
M  V30 34 1 3 31
M  V30 35 1 5 32
M  V30 36 1 8 33
M  V30 37 1 9 34
M  V30 38 1 11 35 CFG=3
M  V30 39 1 12 36
M  V30 40 1 12 37
M  V30 41 1 12 38
M  V30 42 1 13 39
M  V30 43 1 13 40
M  V30 44 1 14 41
M  V30 45 1 15 42
M  V30 46 1 18 43
M  V30 47 1 24 44
M  V30 48 1 25 45
M  V30 49 1 26 46
M  V30 END BOND
M  V30 END CTAB
M  END
>  <Dataset>  (25) 
ChEMBL_Kinases

>  <Ligand_Instance>  (25) 
nan

>  <PDB_ID>  (25) 
nan

>  <Standardized_SMILES>  (25) 
Cc1cc(O)c(-c2ccc([C@@H](C)N)cc2)c2c1[nH]c(=O)c1c(F)cccc12

>  <Name>  (25) 
nan

>  <Pocket>  (25) 
nan

>  <ATP_Site>  (25) 
nan

>  <Peripheral>  (25) 
nan

>  <Num_H_Atoms_ProtBoundConf>  (25) 
nan

>  <Num_Resolved_Atoms>  (25) 
nan

>  <Num_Not_Resolved_Atoms>  (25) 
nan

$$$$
CHEMBL4473011
     RDKit          3D

  0  0  0  0  0  0  0  0  0  0999 V3000
M  V30 BEGIN CTAB
M  V30 COUNTS 50 54 0 0 0
M  V30 BEGIN ATOM
M  V30 1 C -0.181388 -4.513916 2.753028 0
M  V30 2 C 1.095229 -4.321590 3.241453 0
M  V30 3 C 1.749836 -3.233888 2.744122 0
M  V30 4 N 2.953236 -2.714215 2.946864 0
M  V30 5 N 3.105729 -1.633629 2.207254 0
M  V30 6 C 1.983320 -1.386632 1.467245 0
M  V30 7 C 1.961367 -0.225951 0.596728 0
M  V30 8 C 3.019976 -0.069896 -0.319195 0
M  V30 9 N 2.854979 1.096146 -1.013927 0
M  V30 10 N 1.758219 1.692744 -0.598174 0
M  V30 11 C 1.171939 2.945965 -1.030714 0
M  V30 12 C 2.216427 3.880070 -1.595481 0
M  V30 13 C 2.747943 4.687491 -0.439856 0
M  V30 14 C 1.674401 4.665427 0.611441 0
M  V30 15 C 0.596169 3.737282 0.098090 0
M  V30 16 C 1.209553 0.931175 0.355445 0
M  V30 17 C 1.141777 -2.411400 1.820428 0
M  V30 18 C -0.132882 -2.633930 1.353096 0
M  V30 19 N -0.798312 -1.861903 0.356228 0
M  V30 20 C -2.164002 -2.201218 0.018805 0
M  V30 21 C -3.090285 -2.053547 1.196721 0
M  V30 22 C -4.209229 -3.027568 1.256851 0
M  V30 23 O -3.746602 -4.307096 1.087124 0
M  V30 24 C -3.318194 -4.443414 -0.207571 0
M  V30 25 C -2.215538 -3.553864 -0.642080 0
M  V30 26 N -0.759140 -3.711545 1.858287 0
M  V30 27 H -0.789608 -5.353742 3.087050 0
M  V30 28 H 1.539887 -4.991318 3.968556 0
M  V30 29 H 3.690368 -3.100542 3.602501 0
M  V30 30 H 3.883335 -0.652743 -0.566564 0
M  V30 31 H 0.390648 2.742900 -1.802424 0
M  V30 32 H 3.001749 3.360512 -2.174844 0
M  V30 33 H 1.667256 4.584742 -2.273500 0
M  V30 34 H 2.878836 5.756507 -0.739579 0
M  V30 35 H 3.700859 4.242674 -0.089424 0
M  V30 36 H 2.138141 4.293825 1.571652 0
M  V30 37 H 1.268073 5.656397 0.849298 0
M  V30 38 H -0.337318 4.264677 -0.162835 0
M  V30 39 H 0.369043 3.046500 0.935232 0
M  V30 40 H 0.322356 1.011998 0.973895 0
M  V30 41 H -0.434925 -1.074541 -0.199079 0
M  V30 42 H -2.526395 -1.481746 -0.739394 0
M  V30 43 H -2.481990 -2.116957 2.118946 0
M  V30 44 H -3.549587 -1.028204 1.232266 0
M  V30 45 H -4.642630 -2.975712 2.282994 0
M  V30 46 H -5.054718 -2.773684 0.582537 0
M  V30 47 H -4.211026 -4.309670 -0.874773 0
M  V30 48 H -3.040842 -5.531542 -0.330075 0
M  V30 49 H -1.251599 -4.073501 -0.441212 0
M  V30 50 H -2.252920 -3.469365 -1.764168 0
M  V30 END ATOM
M  V30 BEGIN BOND
M  V30 1 2 1 2
M  V30 2 1 2 3
M  V30 3 1 3 4
M  V30 4 1 4 5
M  V30 5 2 5 6
M  V30 6 1 6 7
M  V30 7 1 7 8
M  V30 8 2 8 9
M  V30 9 1 9 10
M  V30 10 1 10 11
M  V30 11 1 11 12
M  V30 12 1 12 13
M  V30 13 1 13 14
M  V30 14 1 14 15
M  V30 15 1 10 16
M  V30 16 1 6 17
M  V30 17 1 17 18
M  V30 18 1 18 19
M  V30 19 1 19 20
M  V30 20 1 20 21
M  V30 21 1 21 22
M  V30 22 1 22 23
M  V30 23 1 23 24
M  V30 24 1 24 25
M  V30 25 2 18 26
M  V30 26 1 26 1
M  V30 27 2 17 3
M  V30 28 1 25 20
M  V30 29 2 16 7
M  V30 30 1 15 11
M  V30 31 1 1 27
M  V30 32 1 2 28
M  V30 33 1 4 29
M  V30 34 1 8 30
M  V30 35 1 11 31
M  V30 36 1 12 32
M  V30 37 1 12 33
M  V30 38 1 13 34
M  V30 39 1 13 35
M  V30 40 1 14 36
M  V30 41 1 14 37
M  V30 42 1 15 38
M  V30 43 1 15 39
M  V30 44 1 16 40
M  V30 45 1 19 41
M  V30 46 1 20 42
M  V30 47 1 21 43
M  V30 48 1 21 44
M  V30 49 1 22 45
M  V30 50 1 22 46
M  V30 51 1 24 47
M  V30 52 1 24 48
M  V30 53 1 25 49
M  V30 54 1 25 50
M  V30 END BOND
M  V30 END CTAB
M  END
>  <Dataset>  (26) 
ChEMBL_Kinases

>  <Ligand_Instance>  (26) 
nan

>  <PDB_ID>  (26) 
nan

>  <Standardized_SMILES>  (26) 
c1cc2[nH]nc(-c3cnn(C4CCCC4)c3)c2c(NC2CCOCC2)n1

>  <Name>  (26) 
nan

>  <Pocket>  (26) 
nan

>  <ATP_Site>  (26) 
nan

>  <Peripheral>  (26) 
nan

>  <Num_H_Atoms_ProtBoundConf>  (26) 
nan

>  <Num_Resolved_Atoms>  (26) 
nan

>  <Num_Not_Resolved_Atoms>  (26) 
nan

$$$$
CHEMBL4472973
     RDKit          3D

  0  0  0  0  0  0  0  0  0  0999 V3000
M  V30 BEGIN CTAB
M  V30 COUNTS 41 43 0 0 0
M  V30 BEGIN ATOM
M  V30 1 C -1.847030 -3.111582 3.090298 0
M  V30 2 C -1.042005 -2.928201 1.869653 0
M  V30 3 N -0.212060 -1.743275 1.786931 0
M  V30 4 C -0.302823 -0.634061 0.895943 0
M  V30 5 N 0.791928 -0.628503 0.077252 0
M  V30 6 C 0.971422 0.305875 -0.888667 0
M  V30 7 C 2.131081 0.327831 -1.771916 0
M  V30 8 C 3.117051 -0.630275 -1.654952 0
M  V30 9 C 4.247453 -0.693516 -2.441189 0
M  V30 10 N 4.393950 0.248289 -3.387340 0
M  V30 11 C 3.439320 1.204042 -3.525604 0
M  V30 12 C 2.305602 1.282995 -2.751071 0
M  V30 13 N 0.039850 1.287629 -1.070817 0
M  V30 14 C -1.055322 1.325537 -0.290163 0
M  V30 15 C -2.077968 2.248782 -0.346668 0
M  V30 16 N -3.136832 2.211052 0.479918 0
M  V30 17 C -3.264268 1.244706 1.436232 0
M  V30 18 C -2.279614 0.287374 1.551316 0
M  V30 19 C -1.218084 0.368449 0.683596 0
M  V30 20 C 0.910537 -1.637654 2.697809 0
M  V30 21 C 1.734961 -0.386527 2.512124 0
M  V30 22 C 0.537652 -1.689633 4.152054 0
M  V30 23 H -1.954688 -2.274115 3.774573 0
M  V30 24 H -1.479525 -4.044257 3.597184 0
M  V30 25 H -2.908419 -3.398272 2.804940 0
M  V30 26 H -1.711578 -3.008248 0.960903 0
M  V30 27 H -0.316117 -3.784470 1.696623 0
M  V30 28 H 3.002153 -1.399239 -0.885623 0
M  V30 29 H 4.979394 -1.493942 -2.275070 0
M  V30 30 H 3.608851 1.942050 -4.307507 0
M  V30 31 H 1.552915 2.031754 -2.855601 0
M  V30 32 H -1.981074 3.024494 -1.110499 0
M  V30 33 H -4.156872 1.306256 2.050096 0
M  V30 34 H -2.389154 -0.463620 2.308364 0
M  V30 35 H 1.616549 -2.506671 2.541006 0
M  V30 36 H 1.070343 0.490684 2.336079 0
M  V30 37 H 2.317943 -0.239899 3.450209 0
M  V30 38 H 2.502612 -0.527139 1.721700 0
M  V30 39 H 1.499206 -1.426060 4.699229 0
M  V30 40 H -0.163227 -0.889067 4.465309 0
M  V30 41 H 0.278720 -2.695624 4.478428 0
M  V30 END ATOM
M  V30 BEGIN BOND
M  V30 1 1 1 2
M  V30 2 1 2 3
M  V30 3 1 3 4
M  V30 4 2 4 5
M  V30 5 1 5 6
M  V30 6 1 6 7
M  V30 7 2 7 8
M  V30 8 1 8 9
M  V30 9 2 9 10
M  V30 10 1 10 11
M  V30 11 2 11 12
M  V30 12 2 6 13
M  V30 13 1 13 14
M  V30 14 2 14 15
M  V30 15 1 15 16
M  V30 16 2 16 17
M  V30 17 1 17 18
M  V30 18 2 18 19
M  V30 19 1 3 20
M  V30 20 1 20 21
M  V30 21 1 20 22
M  V30 22 1 19 4
M  V30 23 1 12 7
M  V30 24 1 19 14
M  V30 25 1 1 23
M  V30 26 1 1 24
M  V30 27 1 1 25
M  V30 28 1 2 26
M  V30 29 1 2 27
M  V30 30 1 8 28
M  V30 31 1 9 29
M  V30 32 1 11 30
M  V30 33 1 12 31
M  V30 34 1 15 32
M  V30 35 1 17 33
M  V30 36 1 18 34
M  V30 37 1 20 35
M  V30 38 1 21 36
M  V30 39 1 21 37
M  V30 40 1 21 38
M  V30 41 1 22 39
M  V30 42 1 22 40
M  V30 43 1 22 41
M  V30 END BOND
M  V30 END CTAB
M  END
>  <Dataset>  (27) 
ChEMBL_Kinases

>  <Ligand_Instance>  (27) 
nan

>  <PDB_ID>  (27) 
nan

>  <Standardized_SMILES>  (27) 
CCN(c1nc(-c2ccncc2)nc2cnccc12)C(C)C

>  <Name>  (27) 
nan

>  <Pocket>  (27) 
nan

>  <ATP_Site>  (27) 
nan

>  <Peripheral>  (27) 
nan

>  <Num_H_Atoms_ProtBoundConf>  (27) 
nan

>  <Num_Resolved_Atoms>  (27) 
nan

>  <Num_Not_Resolved_Atoms>  (27) 
nan

$$$$
CHEMBL4472951
     RDKit          3D

  0  0  0  0  0  0  0  0  0  0999 V3000
M  V30 BEGIN CTAB
M  V30 COUNTS 55 58 0 0 0
M  V30 BEGIN ATOM
M  V30 1 C -0.314741 3.818216 0.939338 0
M  V30 2 O -0.283151 2.459874 1.317376 0
M  V30 3 C 0.784245 1.616989 1.105100 0
M  V30 4 C 2.015768 1.816232 0.528504 0
M  V30 5 C 2.949865 0.820125 0.415086 0
M  V30 6 C 4.232317 1.066873 -0.176318 0
M  V30 7 O 4.768448 0.179503 -0.877479 0
M  V30 8 N 5.244843 2.035163 -0.288924 0
M  V30 9 C 6.336407 1.540554 -1.100483 0
M  V30 10 C 5.207628 3.354411 0.321256 0
M  V30 11 C 2.703140 -0.450122 0.875518 0
M  V30 12 C 1.479487 -0.700048 1.462501 0
M  V30 13 C 0.526011 0.321048 1.579077 0
M  V30 14 N -0.695659 -0.072302 2.245490 0
M  V30 15 C -0.995226 -1.416778 2.598009 0
M  V30 16 N -1.771396 -1.882436 1.587631 0
M  V30 17 C -2.277751 -3.133096 1.526178 0
M  V30 18 O -3.087163 -3.475246 0.388548 0
M  V30 19 C -3.221262 -2.408427 -0.534777 0
M  V30 20 C -4.619787 -1.903270 -0.689441 0
M  V30 21 C -5.070912 -1.883674 -2.138044 0
M  V30 22 O -4.174436 -1.347850 -3.016992 0
M  V30 23 C -2.855932 -1.376351 -2.673906 0
M  V30 24 C -2.636395 -2.686335 -1.892962 0
M  V30 25 C -1.994743 -4.017666 2.554515 0
M  V30 26 C -2.380190 -5.328612 2.717626 0
M  V30 27 C -1.779569 -5.663099 3.921314 0
M  V30 28 N -1.092214 -4.588219 4.405696 0
M  V30 29 C -1.201079 -3.538366 3.581478 0
M  V30 30 N -0.719306 -2.286335 3.604951 0
M  V30 31 H -1.058844 3.884348 0.099335 0
M  V30 32 H 0.645157 4.144044 0.464359 0
M  V30 33 H -0.601793 4.479894 1.754849 0
M  V30 34 H 2.147308 2.826488 0.184386 0
M  V30 35 H 7.091487 2.327359 -1.252316 0
M  V30 36 H 5.922732 1.207463 -2.072464 0
M  V30 37 H 6.799039 0.633694 -0.604321 0
M  V30 38 H 5.264032 3.293211 1.406705 0
M  V30 39 H 6.025894 3.994593 -0.099415 0
M  V30 40 H 4.272673 3.862956 0.011506 0
M  V30 41 H 3.461089 -1.234379 0.773137 0
M  V30 42 H 1.257706 -1.701881 1.836834 0
M  V30 43 H -1.440274 0.591042 2.512403 0
M  V30 44 H -2.625075 -1.510723 -0.150023 0
M  V30 45 H -5.379029 -2.468075 -0.118084 0
M  V30 46 H -4.740193 -0.840244 -0.339912 0
M  V30 47 H -5.442244 -2.869679 -2.488542 0
M  V30 48 H -5.986034 -1.215405 -2.169329 0
M  V30 49 H -2.574513 -0.552232 -1.977904 0
M  V30 50 H -2.216314 -1.301002 -3.546192 0
M  V30 51 H -3.100689 -3.517949 -2.428966 0
M  V30 52 H -1.524175 -2.786640 -1.789841 0
M  V30 53 H -2.986790 -5.943610 2.086284 0
M  V30 54 H -1.821721 -6.619187 4.430750 0
M  V30 55 H -0.521598 -4.495781 5.298141 0
M  V30 END ATOM
M  V30 BEGIN BOND
M  V30 1 1 1 2
M  V30 2 1 2 3
M  V30 3 2 3 4
M  V30 4 1 4 5
M  V30 5 1 5 6
M  V30 6 2 6 7
M  V30 7 1 6 8
M  V30 8 1 8 9
M  V30 9 1 8 10
M  V30 10 2 5 11
M  V30 11 1 11 12
M  V30 12 2 12 13
M  V30 13 1 13 14
M  V30 14 1 14 15
M  V30 15 2 15 16
M  V30 16 1 16 17
M  V30 17 1 17 18
M  V30 18 1 18 19
M  V30 19 1 19 20
M  V30 20 1 20 21
M  V30 21 1 21 22
M  V30 22 1 22 23
M  V30 23 1 23 24
M  V30 24 2 17 25
M  V30 25 1 25 26
M  V30 26 2 26 27
M  V30 27 1 27 28
M  V30 28 1 28 29
M  V30 29 2 29 30
M  V30 30 1 13 3
M  V30 31 1 30 15
M  V30 32 1 24 19
M  V30 33 1 29 25
M  V30 34 1 1 31
M  V30 35 1 1 32
M  V30 36 1 1 33
M  V30 37 1 4 34
M  V30 38 1 9 35
M  V30 39 1 9 36
M  V30 40 1 9 37
M  V30 41 1 10 38
M  V30 42 1 10 39
M  V30 43 1 10 40
M  V30 44 1 11 41
M  V30 45 1 12 42
M  V30 46 1 14 43
M  V30 47 1 19 44
M  V30 48 1 20 45
M  V30 49 1 20 46
M  V30 50 1 21 47
M  V30 51 1 21 48
M  V30 52 1 23 49
M  V30 53 1 23 50
M  V30 54 1 24 51
M  V30 55 1 24 52
M  V30 56 1 26 53
M  V30 57 1 27 54
M  V30 58 1 28 55
M  V30 END BOND
M  V30 END CTAB
M  END
>  <Dataset>  (28) 
ChEMBL_Kinases

>  <Ligand_Instance>  (28) 
nan

>  <PDB_ID>  (28) 
nan

>  <Standardized_SMILES>  (28) 
COc1cc(C(=O)N(C)C)ccc1Nc1nc(OC2CCOCC2)c2cc[nH]c2n1

>  <Name>  (28) 
nan

>  <Pocket>  (28) 
nan

>  <ATP_Site>  (28) 
nan

>  <Peripheral>  (28) 
nan

>  <Num_H_Atoms_ProtBoundConf>  (28) 
nan

>  <Num_Resolved_Atoms>  (28) 
nan

>  <Num_Not_Resolved_Atoms>  (28) 
nan

$$$$
CHEMBL4472870
     RDKit          3D

  0  0  0  0  0  0  0  0  0  0999 V3000
M  V30 BEGIN CTAB
M  V30 COUNTS 42 45 0 0 0
M  V30 BEGIN ATOM
M  V30 1 C -0.124864 -4.402967 1.980196 0
M  V30 2 C -0.058302 -3.066076 1.299506 0
M  V30 3 N 1.318186 -2.629920 1.037947 0
M  V30 4 C 1.550060 -1.389436 0.381767 0
M  V30 5 N 0.505062 -0.634488 0.005702 0
M  V30 6 C 0.729030 0.551556 -0.624535 0
M  V30 7 C -0.349652 1.409257 -1.056815 0
M  V30 8 C -1.681822 1.102316 -0.876064 0
M  V30 9 C -2.747444 1.887663 -1.271777 0
M  V30 10 N -2.478929 3.066612 -1.893722 0
M  V30 11 C -1.195302 3.434036 -2.105483 0
M  V30 12 C -0.166078 2.631301 -1.700098 0
M  V30 13 N 1.984861 1.014201 -0.894965 0
M  V30 14 C 3.040825 0.293360 -0.537097 0
M  V30 15 C 4.325693 0.740870 -0.800174 0
M  V30 16 N 5.369749 -0.026845 -0.417341 0
M  V30 17 C 5.200055 -1.204843 0.207439 0
M  V30 18 C 3.920190 -1.635099 0.461310 0
M  V30 19 C 2.809746 -0.906939 0.100736 0
M  V30 20 C -0.745604 -2.004374 2.123786 0
M  V30 21 C -2.010440 -1.474359 1.967049 0
M  V30 22 C -2.413738 -0.503746 2.859335 0
M  V30 23 C -1.598818 -0.063894 3.878740 0
M  V30 24 C -0.314317 -0.595902 4.045252 0
M  V30 25 C 0.084861 -1.567873 3.148833 0
M  V30 26 H -1.032675 -4.982038 1.645463 0
M  V30 27 H 0.723751 -5.017871 1.560705 0
M  V30 28 H -0.125618 -4.368447 3.069674 0
M  V30 29 H -0.586778 -3.174567 0.324960 0
M  V30 30 H 2.031870 -3.294751 1.369665 0
M  V30 31 H -1.971114 0.194060 -0.396439 0
M  V30 32 H -3.770805 1.618087 -1.115191 0
M  V30 33 H -1.035262 4.370234 -2.598576 0
M  V30 34 H 0.860910 2.962385 -1.888980 0
M  V30 35 H 4.436751 1.685340 -1.300569 0
M  V30 36 H 6.073555 -1.763270 0.483501 0
M  V30 37 H 3.850427 -2.584376 0.963394 0
M  V30 38 H -2.540206 -1.901303 1.138616 0
M  V30 39 H -3.418984 -0.125372 2.684377 0
M  V30 40 H -1.959037 0.695652 4.549476 0
M  V30 41 H 0.282473 -0.214084 4.861965 0
M  V30 42 H 1.092627 -1.916637 3.360145 0
M  V30 END ATOM
M  V30 BEGIN BOND
M  V30 1 1 1 2
M  V30 2 1 2 3
M  V30 3 1 3 4
M  V30 4 2 4 5
M  V30 5 1 5 6
M  V30 6 1 6 7
M  V30 7 2 7 8
M  V30 8 1 8 9
M  V30 9 2 9 10
M  V30 10 1 10 11
M  V30 11 2 11 12
M  V30 12 2 6 13
M  V30 13 1 13 14
M  V30 14 2 14 15
M  V30 15 1 15 16
M  V30 16 2 16 17
M  V30 17 1 17 18
M  V30 18 2 18 19
M  V30 19 1 2 20
M  V30 20 2 20 21
M  V30 21 1 21 22
M  V30 22 2 22 23
M  V30 23 1 23 24
M  V30 24 2 24 25
M  V30 25 1 19 4
M  V30 26 1 25 20
M  V30 27 1 12 7
M  V30 28 1 19 14
M  V30 29 1 1 26
M  V30 30 1 1 27
M  V30 31 1 1 28
M  V30 32 1 2 29
M  V30 33 1 3 30
M  V30 34 1 8 31
M  V30 35 1 9 32
M  V30 36 1 11 33
M  V30 37 1 12 34
M  V30 38 1 15 35
M  V30 39 1 17 36
M  V30 40 1 18 37
M  V30 41 1 21 38
M  V30 42 1 22 39
M  V30 43 1 23 40
M  V30 44 1 24 41
M  V30 45 1 25 42
M  V30 END BOND
M  V30 END CTAB
M  END
>  <Dataset>  (29) 
ChEMBL_Kinases

>  <Ligand_Instance>  (29) 
nan

>  <PDB_ID>  (29) 
nan

>  <Standardized_SMILES>  (29) 
CC(Nc1nc(-c2ccncc2)nc2cnccc12)c1ccccc1

>  <Name>  (29) 
nan

>  <Pocket>  (29) 
nan

>  <ATP_Site>  (29) 
nan

>  <Peripheral>  (29) 
nan

>  <Num_H_Atoms_ProtBoundConf>  (29) 
nan

>  <Num_Resolved_Atoms>  (29) 
nan

>  <Num_Not_Resolved_Atoms>  (29) 
nan

$$$$
CHEMBL4473365
     RDKit          3D

  0  0  0  0  0  0  0  0  0  0999 V3000
M  V30 BEGIN CTAB
M  V30 COUNTS 77 79 0 0 0
M  V30 BEGIN ATOM
M  V30 1 C 0.089773 -4.656742 0.736465 0
M  V30 2 C 0.344661 -3.437602 1.182600 0
M  V30 3 C -0.746510 -2.519943 0.843580 0
M  V30 4 O -1.620070 -3.155314 0.221492 0
M  V30 5 N -0.784881 -1.134603 1.177718 0
M  V30 6 C -1.994589 -0.571644 0.686245 0
M  V30 7 C -2.107051 -0.031174 -0.576308 0
M  V30 8 C -3.248276 0.529741 -1.111678 0
M  V30 9 N -3.342332 1.072505 -2.408591 0
M  V30 10 C -2.353994 1.192223 -3.394261 0
M  V30 11 N -2.662082 1.722918 -4.588592 0
M  V30 12 C -1.801347 1.889846 -5.596835 0
M  V30 13 C -0.494017 1.495462 -5.420732 0
M  V30 14 Cl 0.729956 1.660153 -6.665487 0
M  V30 15 C -0.134733 0.946682 -4.211906 0
M  V30 16 N 1.177727 0.509571 -3.904780 0
M  V30 17 C 1.969354 -0.665803 -4.008159 0
M  V30 18 C 1.361240 -1.768488 -4.568603 0
M  V30 19 C 2.150969 -2.907128 -4.659965 0
M  V30 20 C 3.454891 -2.887444 -4.205517 0
M  V30 21 C 3.988841 -1.737616 -3.655419 0
M  V30 22 C 3.257363 -0.554543 -3.529839 0
M  V30 23 S 3.849625 0.915665 -2.858610 0
M  V30 24 O 3.771001 2.073593 -3.797870 0
M  V30 25 O 3.077982 1.318776 -1.615164 0
M  V30 26 C 5.533347 0.695028 -2.342693 0
M  V30 27 C 6.456359 0.317047 -3.472638 0
M  V30 28 C 5.652448 -0.352147 -1.256264 0
M  V30 29 N -1.078281 0.827428 -3.275619 0
M  V30 30 C -4.322006 0.507706 -0.243699 0
M  V30 31 O -5.526601 1.045142 -0.672174 0
M  V30 32 C -6.670800 1.057438 0.165601 0
M  V30 33 C -4.266701 -0.018322 1.026347 0
M  V30 34 C -3.100075 -0.565850 1.508675 0
M  V30 35 N -3.128778 -1.085210 2.824082 0
M  V30 36 C -2.896534 -2.460913 3.280367 0
M  V30 37 C -3.427628 -0.137308 3.908424 0
M  V30 38 C -2.145953 -0.007031 4.707321 0
M  V30 39 N -2.265744 0.905912 5.827172 0
M  V30 40 C -0.956933 0.928070 6.502626 0
M  V30 41 C -2.480327 2.277020 5.360599 0
M  V30 42 H -0.797058 -4.989021 0.184894 0
M  V30 43 H 0.676869 -5.543897 0.817407 0
M  V30 44 H 1.291289 -3.365082 1.699441 0
M  V30 45 H 0.063302 -0.839934 1.699059 0
M  V30 46 H -1.202143 -0.079139 -1.142724 0
M  V30 47 H -4.312064 1.439053 -2.656066 0
M  V30 48 H -2.097827 2.322703 -6.542105 0
M  V30 49 H 1.519085 1.429790 -3.497636 0
M  V30 50 H 0.341196 -1.724404 -4.905415 0
M  V30 51 H 1.738572 -3.808570 -5.089199 0
M  V30 52 H 4.075656 -3.769354 -4.273056 0
M  V30 53 H 4.999581 -1.745240 -3.310150 0
M  V30 54 H 5.887869 1.665375 -1.915893 0
M  V30 55 H 7.081327 -0.563423 -3.243990 0
M  V30 56 H 5.924521 0.152531 -4.439147 0
M  V30 57 H 7.196133 1.139062 -3.682829 0
M  V30 58 H 5.994407 0.114567 -0.291304 0
M  V30 59 H 4.654517 -0.801229 -1.111275 0
M  V30 60 H 6.439286 -1.093948 -1.521309 0
M  V30 61 H -6.413747 1.531940 1.143908 0
M  V30 62 H -7.076721 0.021076 0.342155 0
M  V30 63 H -7.499365 1.628407 -0.288227 0
M  V30 64 H -5.154380 0.003662 1.642229 0
M  V30 65 H -1.854136 -2.519271 3.647034 0
M  V30 66 H -3.550299 -2.701910 4.143524 0
M  V30 67 H -3.136033 -3.214065 2.512913 0
M  V30 68 H -4.211460 -0.652600 4.508688 0
M  V30 69 H -3.846315 0.804604 3.558671 0
M  V30 70 H -1.897479 -1.020037 5.082990 0
M  V30 71 H -1.312882 0.324518 4.066457 0
M  V30 72 H -0.921507 1.780013 7.191014 0
M  V30 73 H -0.216120 1.084346 5.690008 0
M  V30 74 H -0.751981 -0.047159 6.986139 0
M  V30 75 H -3.495312 2.565499 5.729359 0
M  V30 76 H -1.726506 2.988029 5.754637 0
M  V30 77 H -2.413770 2.338317 4.255726 0
M  V30 END ATOM
M  V30 BEGIN BOND
M  V30 1 2 1 2
M  V30 2 1 2 3
M  V30 3 2 3 4
M  V30 4 1 3 5
M  V30 5 1 5 6
M  V30 6 2 6 7
M  V30 7 1 7 8
M  V30 8 1 8 9
M  V30 9 1 9 10
M  V30 10 2 10 11
M  V30 11 1 11 12
M  V30 12 2 12 13
M  V30 13 1 13 14
M  V30 14 1 13 15
M  V30 15 1 15 16
M  V30 16 1 16 17
M  V30 17 2 17 18
M  V30 18 1 18 19
M  V30 19 2 19 20
M  V30 20 1 20 21
M  V30 21 2 21 22
M  V30 22 1 22 23
M  V30 23 2 23 24
M  V30 24 2 23 25
M  V30 25 1 23 26
M  V30 26 1 26 27
M  V30 27 1 26 28
M  V30 28 2 15 29
M  V30 29 2 8 30
M  V30 30 1 30 31
M  V30 31 1 31 32
M  V30 32 1 30 33
M  V30 33 2 33 34
M  V30 34 1 34 35
M  V30 35 1 35 36
M  V30 36 1 35 37
M  V30 37 1 37 38
M  V30 38 1 38 39
M  V30 39 1 39 40
M  V30 40 1 39 41
M  V30 41 1 34 6
M  V30 42 1 29 10
M  V30 43 1 22 17
M  V30 44 1 1 42
M  V30 45 1 1 43
M  V30 46 1 2 44
M  V30 47 1 5 45
M  V30 48 1 7 46
M  V30 49 1 9 47
M  V30 50 1 12 48
M  V30 51 1 16 49
M  V30 52 1 18 50
M  V30 53 1 19 51
M  V30 54 1 20 52
M  V30 55 1 21 53
M  V30 56 1 26 54
M  V30 57 1 27 55
M  V30 58 1 27 56
M  V30 59 1 27 57
M  V30 60 1 28 58
M  V30 61 1 28 59
M  V30 62 1 28 60
M  V30 63 1 32 61
M  V30 64 1 32 62
M  V30 65 1 32 63
M  V30 66 1 33 64
M  V30 67 1 36 65
M  V30 68 1 36 66
M  V30 69 1 36 67
M  V30 70 1 37 68
M  V30 71 1 37 69
M  V30 72 1 38 70
M  V30 73 1 38 71
M  V30 74 1 40 72
M  V30 75 1 40 73
M  V30 76 1 40 74
M  V30 77 1 41 75
M  V30 78 1 41 76
M  V30 79 1 41 77
M  V30 END BOND
M  V30 END CTAB
M  END
>  <Dataset>  (30) 
ChEMBL_Kinases

>  <Ligand_Instance>  (30) 
nan

>  <PDB_ID>  (30) 
nan

>  <Standardized_SMILES>  (30) 
C=CC(=O)Nc1cc(Nc2ncc(Cl)c(Nc3ccccc3S(=O)(=O)C(C)C)n2)c(OC)cc1N(C)CCN(C)C

>  <Name>  (30) 
nan

>  <Pocket>  (30) 
nan

>  <ATP_Site>  (30) 
nan

>  <Peripheral>  (30) 
nan

>  <Num_H_Atoms_ProtBoundConf>  (30) 
nan

>  <Num_Resolved_Atoms>  (30) 
nan

>  <Num_Not_Resolved_Atoms>  (30) 
nan

$$$$
CHEMBL468167
     RDKit          3D

  0  0  0  0  0  0  0  0  0  0999 V3000
M  V30 BEGIN CTAB
M  V30 COUNTS 14 14 0 0 0
M  V30 BEGIN ATOM
M  V30 1 N 1.432061 -1.660368 4.317540 0
M  V30 2 C 1.446403 -1.218183 3.242048 0
M  V30 3 C 1.467350 -0.660651 1.937034 0
M  V30 4 C 2.349244 -1.118627 0.973222 0
M  V30 5 Cl 3.456933 -2.420152 1.400851 0
M  V30 6 C 2.421398 -0.618740 -0.317691 0
M  V30 7 Cl 3.571661 -1.263005 -1.468925 0
M  V30 8 C 1.553578 0.388165 -0.623902 0
M  V30 9 Cl 1.566050 1.093107 -2.242222 0
M  V30 10 C 0.652691 0.878081 0.310867 0
M  V30 11 C -0.238453 1.934920 -0.055189 0
M  V30 12 N -0.973560 2.789675 -0.351756 0
M  V30 13 C 0.617414 0.347568 1.587364 0
M  V30 14 Cl -0.494914 0.927466 2.797950 0
M  V30 END ATOM
M  V30 BEGIN BOND
M  V30 1 3 1 2
M  V30 2 1 2 3
M  V30 3 2 3 4
M  V30 4 1 4 5
M  V30 5 1 4 6
M  V30 6 1 6 7
M  V30 7 2 6 8
M  V30 8 1 8 9
M  V30 9 1 8 10
M  V30 10 1 10 11
M  V30 11 3 11 12
M  V30 12 2 10 13
M  V30 13 1 13 14
M  V30 14 1 13 3
M  V30 END BOND
M  V30 END CTAB
M  END
>  <Dataset>  (31) 
ChEMBL_Kinases

>  <Ligand_Instance>  (31) 
nan

>  <PDB_ID>  (31) 
nan

>  <Standardized_SMILES>  (31) 
N#Cc1c(Cl)c(Cl)c(Cl)c(C#N)c1Cl

>  <Name>  (31) 
CHLOROTHALONIL

>  <Pocket>  (31) 
nan

>  <ATP_Site>  (31) 
nan

>  <Peripheral>  (31) 
nan

>  <Num_H_Atoms_ProtBoundConf>  (31) 
nan

>  <Num_Resolved_Atoms>  (31) 
nan

>  <Num_Not_Resolved_Atoms>  (31) 
nan

$$$$
CHEMBL447491
     RDKit          3D

  0  0  0  0  0  0  0  0  0  0999 V3000
M  V30 BEGIN CTAB
M  V30 COUNTS 42 45 0 0 0
M  V30 BEGIN ATOM
M  V30 1 C 1.876945 -7.541492 0.930118 0
M  V30 2 N 1.327963 -6.212857 1.078120 0
M  V30 3 C 1.954277 -5.197388 0.319100 0
M  V30 4 O 2.913457 -5.518031 -0.405028 0
M  V30 5 C 1.525973 -3.803240 0.350179 0
M  V30 6 C 2.242151 -2.915612 -0.452202 0
M  V30 7 C 1.884377 -1.578578 -0.467200 0
M  V30 8 N 0.847405 -1.107280 0.284212 0
M  V30 9 C 0.276069 0.107363 0.474071 0
M  V30 10 C 0.775211 1.289747 -0.215692 0
M  V30 11 C 0.171677 2.079738 -1.157405 0
M  V30 12 C 0.771037 3.177471 -1.721818 0
M  V30 13 N 2.032077 3.489310 -1.317752 0
M  V30 14 C 2.645502 2.713900 -0.383102 0
M  V30 15 N 3.955644 3.157466 -0.055062 0
M  V30 16 N 2.040776 1.644744 0.155654 0
M  V30 17 C -0.761898 -0.037981 1.370246 0
M  V30 18 C -1.636976 1.027792 1.842586 0
M  V30 19 C -2.554804 1.699420 1.079562 0
M  V30 20 C -3.368231 2.709688 1.542098 0
M  V30 21 C -3.277094 3.092579 2.853732 0
M  V30 22 F -4.076504 4.083769 3.313670 0
M  V30 23 C -2.353579 2.429872 3.660151 0
M  V30 24 C -1.527626 1.402828 3.187721 0
M  V30 25 N -0.792871 -1.343050 1.701078 0
M  V30 26 C 0.183499 -2.011010 1.046894 0
M  V30 27 C 0.473086 -3.359477 1.121400 0
M  V30 28 H 2.059501 -7.813642 -0.124483 0
M  V30 29 H 2.811960 -7.707920 1.495841 0
M  V30 30 H 1.121737 -8.254732 1.363422 0
M  V30 31 H 0.517419 -5.985924 1.696508 0
M  V30 32 H 3.085350 -3.190478 -1.090639 0
M  V30 33 H 2.409578 -0.852911 -1.073422 0
M  V30 34 H -0.816676 1.764242 -1.421676 0
M  V30 35 H 0.171002 3.703689 -2.452559 0
M  V30 36 H 4.047701 3.875914 0.697012 0
M  V30 37 H 4.880886 2.869332 -0.460575 0
M  V30 38 H -2.657508 1.425248 0.043689 0
M  V30 39 H -4.087061 3.219123 0.890585 0
M  V30 40 H -2.324872 2.776786 4.700381 0
M  V30 41 H -0.829616 0.936527 3.899462 0
M  V30 42 H -0.072051 -4.037493 1.732837 0
M  V30 END ATOM
M  V30 BEGIN BOND
M  V30 1 1 1 2
M  V30 2 1 2 3
M  V30 3 2 3 4
M  V30 4 1 3 5
M  V30 5 1 5 6
M  V30 6 2 6 7
M  V30 7 1 7 8
M  V30 8 1 8 9
M  V30 9 1 9 10
M  V30 10 2 10 11
M  V30 11 1 11 12
M  V30 12 2 12 13
M  V30 13 1 13 14
M  V30 14 1 14 15
M  V30 15 2 14 16
M  V30 16 2 9 17
M  V30 17 1 17 18
M  V30 18 2 18 19
M  V30 19 1 19 20
M  V30 20 2 20 21
M  V30 21 1 21 22
M  V30 22 1 21 23
M  V30 23 2 23 24
M  V30 24 1 17 25
M  V30 25 2 25 26
M  V30 26 1 26 27
M  V30 27 2 27 5
M  V30 28 1 26 8
M  V30 29 1 16 10
M  V30 30 1 24 18
M  V30 31 1 1 28
M  V30 32 1 1 29
M  V30 33 1 1 30
M  V30 34 1 2 31
M  V30 35 1 6 32
M  V30 36 1 7 33
M  V30 37 1 11 34
M  V30 38 1 12 35
M  V30 39 1 15 36
M  V30 40 1 15 37
M  V30 41 1 19 38
M  V30 42 1 20 39
M  V30 43 1 23 40
M  V30 44 1 24 41
M  V30 45 1 27 42
M  V30 END BOND
M  V30 END CTAB
M  END
>  <Dataset>  (32) 
ChEMBL_Kinases

>  <Ligand_Instance>  (32) 
nan

>  <PDB_ID>  (32) 
nan

>  <Standardized_SMILES>  (32) 
CNC(=O)c1ccn2c(-c3ccnc(N)n3)c(-c3ccc(F)cc3)nc2c1

>  <Name>  (32) 
nan

>  <Pocket>  (32) 
nan

>  <ATP_Site>  (32) 
nan

>  <Peripheral>  (32) 
nan

>  <Num_H_Atoms_ProtBoundConf>  (32) 
nan

>  <Num_Resolved_Atoms>  (32) 
nan

>  <Num_Not_Resolved_Atoms>  (32) 
nan

$$$$
CHEMBL468292
     RDKit          3D

  0  0  0  0  0  0  0  0  0  0999 V3000
M  V30 BEGIN CTAB
M  V30 COUNTS 44 46 0 0 0
M  V30 BEGIN ATOM
M  V30 1 C 0.352613 -6.523247 4.008071 0
M  V30 2 C -0.514839 -5.622786 3.211915 0
M  V30 3 O -1.735342 -5.565170 3.511254 0
M  V30 4 N 0.097476 -4.871137 2.145448 0
M  V30 5 C -0.508274 -3.942034 1.236838 0
M  V30 6 C -0.575164 -2.607213 1.550658 0
M  V30 7 C -1.146917 -1.677116 0.710632 0
M  V30 8 N -1.217869 -0.286327 1.035371 0
M  V30 9 C -1.803671 0.676942 0.170638 0
M  V30 10 C -0.972934 1.275192 -0.736334 0
M  V30 11 N 0.245236 1.567186 -1.418124 0
M  V30 12 C 1.265625 2.560088 -1.172490 0 CFG=2
M  V30 13 C 2.362577 2.436493 -2.219665 0
M  V30 14 C 1.816405 2.529350 0.189182 0
M  V30 15 C 1.147874 2.491619 1.386810 0
M  V30 16 C 1.779548 2.458168 2.610191 0
M  V30 17 C 3.155202 2.461415 2.690159 0
M  V30 18 C 3.886230 2.498797 1.522149 0
M  V30 19 C 3.210365 2.531315 0.320691 0
M  V30 20 C -2.076162 2.006486 -1.189362 0
M  V30 21 O -2.667564 2.858836 -1.932426 0
M  V30 22 C -2.896810 1.393844 -0.269467 0
M  V30 23 O -3.990417 1.173735 0.308541 0
M  V30 24 C -1.683039 -2.098675 -0.511864 0
M  V30 25 C -1.602533 -3.463569 -0.808326 0
M  V30 26 N -1.028837 -4.326863 0.058047 0
M  V30 27 H -0.184783 -7.474189 4.214616 0
M  V30 28 H 1.326662 -6.677169 3.506392 0
M  V30 29 H 0.579569 -6.045012 4.988996 0
M  V30 30 H 1.123883 -4.968003 1.950523 0
M  V30 31 H -0.178353 -2.231904 2.476865 0
M  V30 32 H -0.808731 0.006162 1.964627 0
M  V30 33 H 0.397700 0.914116 -2.249898 0
M  V30 34 H 0.758405 3.548898 -1.392323 0
M  V30 35 H 3.000811 3.340753 -2.239833 0
M  V30 36 H 1.941580 2.321126 -3.230020 0
M  V30 37 H 2.940832 1.493285 -2.036734 0
M  V30 38 H 0.075340 2.494815 1.325780 0
M  V30 39 H 1.165388 2.429091 3.512027 0
M  V30 40 H 3.684481 2.436061 3.627287 0
M  V30 41 H 4.961345 2.501932 1.567319 0
M  V30 42 H 3.861440 2.560186 -0.563811 0
M  V30 43 H -2.146072 -1.417282 -1.216100 0
M  V30 44 H -2.000393 -3.839013 -1.736665 0
M  V30 END ATOM
M  V30 BEGIN BOND
M  V30 1 1 1 2
M  V30 2 2 2 3
M  V30 3 1 2 4
M  V30 4 1 4 5
M  V30 5 2 5 6
M  V30 6 1 6 7
M  V30 7 1 7 8
M  V30 8 1 8 9
M  V30 9 2 9 10
M  V30 10 1 10 11
M  V30 11 1 11 12
M  V30 12 1 12 13
M  V30 13 1 12 14
M  V30 14 2 14 15
M  V30 15 1 15 16
M  V30 16 2 16 17
M  V30 17 1 17 18
M  V30 18 2 18 19
M  V30 19 1 10 20
M  V30 20 2 20 21
M  V30 21 1 20 22
M  V30 22 2 22 23
M  V30 23 2 7 24
M  V30 24 1 24 25
M  V30 25 2 25 26
M  V30 26 1 26 5
M  V30 27 1 22 9
M  V30 28 1 19 14
M  V30 29 1 1 27
M  V30 30 1 1 28
M  V30 31 1 1 29
M  V30 32 1 4 30
M  V30 33 1 6 31
M  V30 34 1 8 32
M  V30 35 1 11 33
M  V30 36 1 12 34 CFG=3
M  V30 37 1 13 35
M  V30 38 1 13 36
M  V30 39 1 13 37
M  V30 40 1 15 38
M  V30 41 1 16 39
M  V30 42 1 17 40
M  V30 43 1 18 41
M  V30 44 1 19 42
M  V30 45 1 24 43
M  V30 46 1 25 44
M  V30 END BOND
M  V30 END CTAB
M  END
>  <Dataset>  (33) 
ChEMBL_Kinases

>  <Ligand_Instance>  (33) 
nan

>  <PDB_ID>  (33) 
nan

>  <Standardized_SMILES>  (33) 
CC(=O)Nc1cc(Nc2c(N[C@H](C)c3ccccc3)c(=O)c2=O)ccn1

>  <Name>  (33) 
nan

>  <Pocket>  (33) 
nan

>  <ATP_Site>  (33) 
nan

>  <Peripheral>  (33) 
nan

>  <Num_H_Atoms_ProtBoundConf>  (33) 
nan

>  <Num_Resolved_Atoms>  (33) 
nan

>  <Num_Not_Resolved_Atoms>  (33) 
nan

$$$$
CHEMBL447486
     RDKit          3D

  0  0  0  0  0  0  0  0  0  0999 V3000
M  V30 BEGIN CTAB
M  V30 COUNTS 34 37 0 0 0
M  V30 BEGIN ATOM
M  V30 1 N -0.056680 -5.153956 2.506919 0
M  V30 2 C 0.132990 -3.814967 2.056742 0
M  V30 3 N 0.885149 -3.219066 1.444836 0
M  V30 4 C 0.893785 -1.937563 1.119570 0
M  V30 5 C 1.938842 -1.308968 0.315348 0
M  V30 6 C 2.131493 -1.784191 -0.983681 0
M  V30 7 C 3.096482 -1.261860 -1.843273 0
M  V30 8 C 3.908257 -0.234299 -1.423485 0
M  V30 9 Cl 5.156608 0.515483 -2.390640 0
M  V30 10 C 3.683230 0.202578 -0.136245 0
M  V30 11 N 2.748941 -0.309820 0.683000 0
M  V30 12 C -0.128095 -1.206429 1.566191 0
M  V30 13 C -0.542646 0.182077 1.478941 0
M  V30 14 C 0.237565 1.169038 2.057328 0
M  V30 15 C -0.132400 2.501044 1.988819 0
M  V30 16 N -1.268895 2.830712 1.347796 0
M  V30 17 C -2.052989 1.894636 0.772802 0
M  V30 18 C -3.231145 2.258152 0.110422 0
M  V30 19 C -3.994330 1.259063 -0.459463 0
M  V30 20 C -3.625619 -0.084954 -0.392998 0
M  V30 21 C -2.470391 -0.458168 0.254439 0
M  V30 22 C -1.705508 0.559021 0.827875 0
M  V30 23 S -1.132390 -2.438323 2.491844 0
M  V30 24 H 0.463429 -5.374996 3.402079 0
M  V30 25 H -0.654187 -5.888232 2.018887 0
M  V30 26 H 1.518637 -2.596081 -1.367908 0
M  V30 27 H 3.240910 -1.634170 -2.845901 0
M  V30 28 H 4.244095 1.001826 0.325903 0
M  V30 29 H 1.158497 0.977527 2.585798 0
M  V30 30 H 0.432361 3.332120 2.420519 0
M  V30 31 H -3.499126 3.305855 0.069468 0
M  V30 32 H -4.916879 1.522590 -0.979887 0
M  V30 33 H -4.263921 -0.847602 -0.861624 0
M  V30 34 H -2.197673 -1.501564 0.297824 0
M  V30 END ATOM
M  V30 BEGIN BOND
M  V30 1 1 1 2
M  V30 2 2 2 3
M  V30 3 1 3 4
M  V30 4 1 4 5
M  V30 5 2 5 6
M  V30 6 1 6 7
M  V30 7 2 7 8
M  V30 8 1 8 9
M  V30 9 1 8 10
M  V30 10 2 10 11
M  V30 11 2 4 12
M  V30 12 1 12 13
M  V30 13 2 13 14
M  V30 14 1 14 15
M  V30 15 2 15 16
M  V30 16 1 16 17
M  V30 17 2 17 18
M  V30 18 1 18 19
M  V30 19 2 19 20
M  V30 20 1 20 21
M  V30 21 2 21 22
M  V30 22 1 12 23
M  V30 23 1 23 2
M  V30 24 1 11 5
M  V30 25 1 22 13
M  V30 26 1 22 17
M  V30 27 1 1 24
M  V30 28 1 1 25
M  V30 29 1 6 26
M  V30 30 1 7 27
M  V30 31 1 10 28
M  V30 32 1 14 29
M  V30 33 1 15 30
M  V30 34 1 18 31
M  V30 35 1 19 32
M  V30 36 1 20 33
M  V30 37 1 21 34
M  V30 END BOND
M  V30 END CTAB
M  END
>  <Dataset>  (34) 
ChEMBL_Kinases

>  <Ligand_Instance>  (34) 
nan

>  <PDB_ID>  (34) 
nan

>  <Standardized_SMILES>  (34) 
Nc1nc(-c2ccc(Cl)cn2)c(-c2ccnc3ccccc23)s1

>  <Name>  (34) 
nan

>  <Pocket>  (34) 
nan

>  <ATP_Site>  (34) 
nan

>  <Peripheral>  (34) 
nan

>  <Num_H_Atoms_ProtBoundConf>  (34) 
nan

>  <Num_Resolved_Atoms>  (34) 
nan

>  <Num_Not_Resolved_Atoms>  (34) 
nan

$$$$
CHEMBL4474849
     RDKit          3D

  0  0  0  0  0  0  0  0  0  0999 V3000
M  V30 BEGIN CTAB
M  V30 COUNTS 35 38 0 0 0
M  V30 BEGIN ATOM
M  V30 1 Cl 2.012824 -1.795398 5.819795 0
M  V30 2 C 1.938618 -2.036697 4.069398 0
M  V30 3 C 1.904197 -3.304894 3.489138 0
M  V30 4 C 1.844272 -3.407778 2.105431 0
M  V30 5 C 1.817485 -2.301033 1.284596 0
M  V30 6 C 1.853789 -1.074220 1.908141 0
M  V30 7 N 1.831010 0.114299 1.134663 0
M  V30 8 C 1.738362 0.316057 -0.259353 0
M  V30 9 N 2.896335 0.237204 -0.884074 0
M  V30 10 C 3.102198 0.385262 -2.180364 0
M  V30 11 N 2.020835 0.640889 -2.926120 0
M  V30 12 C 0.810341 0.732766 -2.340761 0
M  V30 13 S -0.806549 1.062026 -3.024268 0
M  V30 14 C -1.703630 0.976094 -1.447493 0
M  V30 15 C -0.670944 0.692533 -0.477083 0
M  V30 16 C 0.595049 0.575197 -0.965839 0
M  V30 17 C -1.303333 0.609313 0.856057 0
M  V30 18 C -2.367575 -0.492481 0.772482 0
M  V30 19 C -3.520489 -0.025192 -0.090553 0
M  V30 20 C -3.100734 1.113030 -0.998682 0
M  V30 21 C 1.913611 -0.893086 3.275028 0
M  V30 22 H 1.926855 -4.115966 4.192406 0
M  V30 23 H 1.820669 -4.439862 1.732514 0
M  V30 24 H 1.769243 -2.430034 0.210880 0
M  V30 25 H 1.882470 1.080255 1.521382 0
M  V30 26 H 4.015091 0.330246 -2.730234 0
M  V30 27 H -0.611100 0.385681 1.657609 0
M  V30 28 H -1.838600 1.587573 1.037130 0
M  V30 29 H -2.718000 -0.777802 1.788637 0
M  V30 30 H -1.875230 -1.338776 0.255932 0
M  V30 31 H -3.945070 -0.886947 -0.628970 0
M  V30 32 H -4.306686 0.364409 0.586759 0
M  V30 33 H -3.234215 2.101176 -0.538976 0
M  V30 34 H -3.735406 1.051547 -1.901338 0
M  V30 35 H 1.938469 0.093154 3.725420 0
M  V30 END ATOM
M  V30 BEGIN BOND
M  V30 1 1 1 2
M  V30 2 2 2 3
M  V30 3 1 3 4
M  V30 4 2 4 5
M  V30 5 1 5 6
M  V30 6 1 6 7
M  V30 7 1 7 8
M  V30 8 2 8 9
M  V30 9 1 9 10
M  V30 10 2 10 11
M  V30 11 1 11 12
M  V30 12 1 12 13
M  V30 13 1 13 14
M  V30 14 2 14 15
M  V30 15 1 15 16
M  V30 16 1 15 17
M  V30 17 1 17 18
M  V30 18 1 18 19
M  V30 19 1 19 20
M  V30 20 2 6 21
M  V30 21 1 21 2
M  V30 22 1 16 8
M  V30 23 2 16 12
M  V30 24 1 20 14
M  V30 25 1 3 22
M  V30 26 1 4 23
M  V30 27 1 5 24
M  V30 28 1 7 25
M  V30 29 1 10 26
M  V30 30 1 17 27
M  V30 31 1 17 28
M  V30 32 1 18 29
M  V30 33 1 18 30
M  V30 34 1 19 31
M  V30 35 1 19 32
M  V30 36 1 20 33
M  V30 37 1 20 34
M  V30 38 1 21 35
M  V30 END BOND
M  V30 END CTAB
M  END
>  <Dataset>  (35) 
ChEMBL_Kinases

>  <Ligand_Instance>  (35) 
nan

>  <PDB_ID>  (35) 
nan

>  <Standardized_SMILES>  (35) 
Clc1cccc(Nc2ncnc3sc4c(c23)CCCC4)c1

>  <Name>  (35) 
nan

>  <Pocket>  (35) 
nan

>  <ATP_Site>  (35) 
nan

>  <Peripheral>  (35) 
nan

>  <Num_H_Atoms_ProtBoundConf>  (35) 
nan

>  <Num_Resolved_Atoms>  (35) 
nan

>  <Num_Not_Resolved_Atoms>  (35) 
nan

$$$$
CHEMBL4474836
     RDKit          3D

  0  0  0  0  0  0  0  0  0  0999 V3000
M  V30 BEGIN CTAB
M  V30 COUNTS 41 43 0 0 0
M  V30 BEGIN ATOM
M  V30 1 C 0.609646 -4.952344 3.655329 0
M  V30 2 O 0.176172 -3.608885 3.490714 0
M  V30 3 C 0.802453 -2.842114 2.505229 0
M  V30 4 C 1.804348 -3.382705 1.727056 0
M  V30 5 C 2.398821 -2.594187 0.764306 0
M  V30 6 C 2.004948 -1.285970 0.575333 0
M  V30 7 C 2.421059 -0.276604 -0.300673 0
M  V30 8 C 3.412282 -0.381235 -1.254385 0
M  V30 9 C 3.638082 0.756429 -1.983270 0
M  V30 10 N 2.928960 1.852536 -1.750260 0
M  V30 11 C 1.950060 1.970097 -0.814255 0
M  V30 12 C 1.217814 3.230897 -0.597626 0
M  V30 13 C 1.663980 0.844982 -0.031500 0
M  V30 14 N 0.795068 0.588207 0.966300 0
M  V30 15 C -0.175094 1.494155 1.513095 0
M  V30 16 C -1.540598 1.418360 0.869987 0
M  V30 17 C -2.193943 0.063624 0.992289 0
M  V30 18 C -3.548422 0.097305 0.327346 0
M  V30 19 N -4.188568 -1.146206 0.435566 0
M  V30 20 O -4.129599 1.037282 -0.268437 0
M  V30 21 C 1.007258 -0.714609 1.335113 0
M  V30 22 C 0.437185 -1.536036 2.287949 0
M  V30 23 H 0.641211 -5.485744 2.668838 0
M  V30 24 H -0.092896 -5.535621 4.278655 0
M  V30 25 H 1.614288 -4.922921 4.097842 0
M  V30 26 H 2.143837 -4.384544 1.833144 0
M  V30 27 H 3.186792 -3.021251 0.153146 0
M  V30 28 H 3.968161 -1.283071 -1.417818 0
M  V30 29 H 4.407847 0.744828 -2.755080 0
M  V30 30 H 1.589476 3.785006 0.300460 0
M  V30 31 H 1.555133 3.924581 -1.430499 0
M  V30 32 H 0.144370 3.205041 -0.728497 0
M  V30 33 H 0.158832 2.509469 1.705682 0
M  V30 34 H -0.368761 1.108729 2.566218 0
M  V30 35 H -2.245164 2.154356 1.307058 0
M  V30 36 H -1.506560 1.643894 -0.214138 0
M  V30 37 H -2.387141 -0.250163 2.036426 0
M  V30 38 H -1.659757 -0.734069 0.485883 0
M  V30 39 H -4.670243 -2.063081 0.528405 0
M  V30 40 H -4.070808 -1.970017 -0.222734 0
M  V30 41 H -0.347693 -1.154451 2.916885 0
M  V30 END ATOM
M  V30 BEGIN BOND
M  V30 1 1 1 2
M  V30 2 1 2 3
M  V30 3 2 3 4
M  V30 4 1 4 5
M  V30 5 2 5 6
M  V30 6 1 6 7
M  V30 7 2 7 8
M  V30 8 1 8 9
M  V30 9 2 9 10
M  V30 10 1 10 11
M  V30 11 1 11 12
M  V30 12 2 11 13
M  V30 13 1 13 14
M  V30 14 1 14 15
M  V30 15 1 15 16
M  V30 16 1 16 17
M  V30 17 1 17 18
M  V30 18 1 18 19
M  V30 19 2 18 20
M  V30 20 1 14 21
M  V30 21 2 21 22
M  V30 22 1 22 3
M  V30 23 1 21 6
M  V30 24 1 13 7
M  V30 25 1 1 23
M  V30 26 1 1 24
M  V30 27 1 1 25
M  V30 28 1 4 26
M  V30 29 1 5 27
M  V30 30 1 8 28
M  V30 31 1 9 29
M  V30 32 1 12 30
M  V30 33 1 12 31
M  V30 34 1 12 32
M  V30 35 1 15 33
M  V30 36 1 15 34
M  V30 37 1 16 35
M  V30 38 1 16 36
M  V30 39 1 17 37
M  V30 40 1 17 38
M  V30 41 1 19 39
M  V30 42 1 19 40
M  V30 43 1 22 41
M  V30 END BOND
M  V30 END CTAB
M  END
>  <Dataset>  (36) 
ChEMBL_Kinases

>  <Ligand_Instance>  (36) 
nan

>  <PDB_ID>  (36) 
nan

>  <Standardized_SMILES>  (36) 
COc1ccc2c3ccnc(C)c3n(CCCC(N)=O)c2c1

>  <Name>  (36) 
nan

>  <Pocket>  (36) 
nan

>  <ATP_Site>  (36) 
nan

>  <Peripheral>  (36) 
nan

>  <Num_H_Atoms_ProtBoundConf>  (36) 
nan

>  <Num_Resolved_Atoms>  (36) 
nan

>  <Num_Not_Resolved_Atoms>  (36) 
nan

$$$$
CHEMBL4474810
     RDKit          3D

  0  0  0  0  0  0  0  0  0  0999 V3000
M  V30 BEGIN CTAB
M  V30 COUNTS 46 49 0 0 0
M  V30 BEGIN ATOM
M  V30 1 C -0.120325 -6.557129 2.817180 0
M  V30 2 C 0.158397 -6.294517 1.363050 0
M  V30 3 C 0.355075 -7.389727 0.513760 0
M  V30 4 S 0.651776 -6.662869 -1.102051 0
M  V30 5 C 0.484557 -4.908803 -0.495542 0
M  V30 6 C 0.631430 -3.751809 -1.407407 0
M  V30 7 C 0.894505 -4.007436 -2.713821 0
M  V30 8 N 1.009464 -2.877232 -3.458887 0
M  V30 9 C 0.871773 -1.649221 -2.928584 0
M  V30 10 N 1.009136 -0.501105 -3.790411 0
M  V30 11 C 0.600954 -1.428874 -1.577706 0
M  V30 12 N 0.454189 -0.134150 -1.010319 0
M  V30 13 C 1.202552 0.875948 -1.297706 0
M  V30 14 C 0.992825 2.186245 -0.671712 0
M  V30 15 C 1.791247 3.271843 -0.975597 0
M  V30 16 C 1.559684 4.490173 -0.362583 0
M  V30 17 N 0.549337 4.622219 0.537468 0
M  V30 18 C -0.243330 3.563849 0.845806 0
M  V30 19 N -1.318991 3.624470 1.776703 0
M  V30 20 C -0.842774 3.307263 3.070985 0
M  V30 21 O 0.398618 3.032978 3.197415 0
M  V30 22 C -1.620783 3.250833 4.333583 0
M  V30 23 C -1.156275 2.316782 5.404912 0
M  V30 24 C -0.877606 3.775949 5.568214 0
M  V30 25 C -0.028387 2.336284 0.243693 0
M  V30 26 C 0.470863 -2.554112 -0.756131 0
M  V30 27 C 0.219618 -5.031160 0.873243 0
M  V30 28 H 0.785864 -6.724961 3.403811 0
M  V30 29 H -0.670938 -5.717471 3.282774 0
M  V30 30 H -0.831872 -7.430787 2.899266 0
M  V30 31 H 0.341864 -8.404904 0.723951 0
M  V30 32 H 0.999994 -5.003550 -3.112338 0
M  V30 33 H 0.267135 0.241457 -3.895678 0
M  V30 34 H 1.923445 -0.459468 -4.316511 0
M  V30 35 H 1.997936 0.741803 -2.016576 0
M  V30 36 H 2.594439 3.167633 -1.690848 0
M  V30 37 H 2.187904 5.341820 -0.602552 0
M  V30 38 H -2.337719 3.840902 1.723825 0
M  V30 39 H -2.711991 3.477058 4.310065 0
M  V30 40 H -0.252023 1.708086 5.136844 0
M  V30 41 H -1.859153 1.875367 6.120115 0
M  V30 42 H 0.141006 4.150443 5.436920 0
M  V30 43 H -1.492927 4.336136 6.323504 0
M  V30 44 H -0.644301 1.461029 0.465165 0
M  V30 45 H 0.265058 -2.438336 0.277688 0
M  V30 46 H 0.087045 -4.115421 1.420919 0
M  V30 END ATOM
M  V30 BEGIN BOND
M  V30 1 1 1 2
M  V30 2 2 2 3
M  V30 3 1 3 4
M  V30 4 1 4 5
M  V30 5 1 5 6
M  V30 6 2 6 7
M  V30 7 1 7 8
M  V30 8 2 8 9
M  V30 9 1 9 10
M  V30 10 1 9 11
M  V30 11 1 11 12
M  V30 12 2 12 13
M  V30 13 1 13 14
M  V30 14 2 14 15
M  V30 15 1 15 16
M  V30 16 2 16 17
M  V30 17 1 17 18
M  V30 18 1 18 19
M  V30 19 1 19 20
M  V30 20 2 20 21
M  V30 21 1 20 22
M  V30 22 1 22 23
M  V30 23 1 23 24
M  V30 24 2 18 25
M  V30 25 2 11 26
M  V30 26 2 5 27
M  V30 27 1 27 2
M  V30 28 1 26 6
M  V30 29 1 25 14
M  V30 30 1 24 22
M  V30 31 1 1 28
M  V30 32 1 1 29
M  V30 33 1 1 30
M  V30 34 1 3 31
M  V30 35 1 7 32
M  V30 36 1 10 33
M  V30 37 1 10 34
M  V30 38 1 13 35
M  V30 39 1 15 36
M  V30 40 1 16 37
M  V30 41 1 19 38
M  V30 42 1 22 39
M  V30 43 1 23 40
M  V30 44 1 23 41
M  V30 45 1 24 42
M  V30 46 1 24 43
M  V30 47 1 25 44
M  V30 48 1 26 45
M  V30 49 1 27 46
M  V30 END BOND
M  V30 END CTAB
M  END
>  <Dataset>  (37) 
ChEMBL_Kinases

>  <Ligand_Instance>  (37) 
nan

>  <PDB_ID>  (37) 
nan

>  <Standardized_SMILES>  (37) 
Cc1csc(-c2cnc(N)c(/N=C/c3ccnc(NC(=O)C4CC4)c3)c2)c1

>  <Name>  (37) 
nan

>  <Pocket>  (37) 
nan

>  <ATP_Site>  (37) 
nan

>  <Peripheral>  (37) 
nan

>  <Num_H_Atoms_ProtBoundConf>  (37) 
nan

>  <Num_Resolved_Atoms>  (37) 
nan

>  <Num_Not_Resolved_Atoms>  (37) 
nan

$$$$
CHEMBL468322
     RDKit          3D

  0  0  0  0  0  0  0  0  0  0999 V3000
M  V30 BEGIN CTAB
M  V30 COUNTS 50 53 0 0 0
M  V30 BEGIN ATOM
M  V30 1 C 1.209953 -2.981461 -1.615224 0
M  V30 2 C 1.070732 -3.339312 -0.137986 0 CFG=1
M  V30 3 N 0.306192 -2.292064 0.494207 0
M  V30 4 C -0.083713 -2.118388 1.868291 0
M  V30 5 C 0.852464 -1.417538 2.636660 0
M  V30 6 N 2.099254 -0.717264 2.813988 0
M  V30 7 C 2.180352 0.692937 2.614239 0
M  V30 8 C 3.332200 1.427889 2.763206 0
M  V30 9 C 3.383308 2.793363 2.563681 0
M  V30 10 N 2.238402 3.442447 2.202251 0
M  V30 11 C 1.088183 2.746357 2.047637 0
M  V30 12 N -0.148844 3.357363 1.671107 0
M  V30 13 C -0.268658 3.362977 0.258025 0
M  V30 14 O 0.693163 2.852159 -0.367516 0
M  V30 15 C -1.398614 3.905390 -0.489595 0
M  V30 16 C -1.322593 3.813574 -1.863508 0
M  V30 17 C -2.369886 4.313591 -2.624729 0
M  V30 18 C -3.441775 4.881165 -1.967302 0
M  V30 19 N -3.469618 4.947318 -0.626970 0
M  V30 20 C -2.475930 4.475124 0.152740 0
M  V30 21 C 1.019689 1.381233 2.243144 0
M  V30 22 C 0.069655 -1.515253 3.765756 0
M  V30 23 O -0.238721 -1.343846 4.972668 0
M  V30 24 C -0.847969 -2.204376 3.003298 0
M  V30 25 O -1.953039 -2.821187 2.858059 0
M  V30 26 C 0.413560 -4.651171 -0.004523 0
M  V30 27 C -0.085478 -5.266289 1.113058 0
M  V30 28 C -0.689599 -6.493821 1.121221 0
M  V30 29 C -0.834961 -7.207159 -0.038518 0
M  V30 30 C -0.358781 -6.653296 -1.194647 0
M  V30 31 C 0.236883 -5.425031 -1.153950 0
M  V30 32 H 1.982099 -3.601083 -2.113094 0
M  V30 33 H 0.209666 -3.077725 -2.063960 0
M  V30 34 H 1.577214 -1.920600 -1.626914 0
M  V30 35 H 2.089107 -3.394818 0.339088 0
M  V30 36 H -0.057231 -1.498767 -0.101392 0
M  V30 37 H 2.999475 -1.181353 3.092151 0
M  V30 38 H 4.186194 0.844861 3.048094 0
M  V30 39 H 4.310367 3.334600 2.691334 0
M  V30 40 H -0.929040 3.773505 2.225133 0
M  V30 41 H -0.478248 3.366468 -2.382470 0
M  V30 42 H -2.278863 4.225048 -3.718865 0
M  V30 43 H -4.236440 5.258468 -2.599011 0
M  V30 44 H -2.530918 4.544665 1.227031 0
M  V30 45 H 0.097870 0.813384 2.120783 0
M  V30 46 H 0.025866 -4.726130 2.036630 0
M  V30 47 H -1.049247 -6.880773 2.081598 0
M  V30 48 H -1.321534 -8.159832 0.067995 0
M  V30 49 H -0.481220 -7.227403 -2.096331 0
M  V30 50 H 0.580594 -5.079385 -2.137307 0
M  V30 END ATOM
M  V30 BEGIN BOND
M  V30 1 1 1 2
M  V30 2 1 2 3
M  V30 3 1 3 4
M  V30 4 2 4 5
M  V30 5 1 5 6
M  V30 6 1 6 7
M  V30 7 2 7 8
M  V30 8 1 8 9
M  V30 9 2 9 10
M  V30 10 1 10 11
M  V30 11 1 11 12
M  V30 12 1 12 13
M  V30 13 2 13 14
M  V30 14 1 13 15
M  V30 15 2 15 16
M  V30 16 1 16 17
M  V30 17 2 17 18
M  V30 18 1 18 19
M  V30 19 2 19 20
M  V30 20 2 11 21
M  V30 21 1 5 22
M  V30 22 2 22 23
M  V30 23 1 22 24
M  V30 24 2 24 25
M  V30 25 1 2 26
M  V30 26 2 26 27
M  V30 27 1 27 28
M  V30 28 2 28 29
M  V30 29 1 29 30
M  V30 30 2 30 31
M  V30 31 1 24 4
M  V30 32 1 31 26
M  V30 33 1 21 7
M  V30 34 1 20 15
M  V30 35 1 1 32
M  V30 36 1 1 33
M  V30 37 1 1 34
M  V30 38 1 2 35 CFG=1
M  V30 39 1 3 36
M  V30 40 1 6 37
M  V30 41 1 8 38
M  V30 42 1 9 39
M  V30 43 1 12 40
M  V30 44 1 16 41
M  V30 45 1 17 42
M  V30 46 1 18 43
M  V30 47 1 20 44
M  V30 48 1 21 45
M  V30 49 1 27 46
M  V30 50 1 28 47
M  V30 51 1 29 48
M  V30 52 1 30 49
M  V30 53 1 31 50
M  V30 END BOND
M  V30 END CTAB
M  END
>  <Dataset>  (38) 
ChEMBL_Kinases

>  <Ligand_Instance>  (38) 
nan

>  <PDB_ID>  (38) 
nan

>  <Standardized_SMILES>  (38) 
C[C@@H](Nc1c(Nc2ccnc(NC(=O)c3cccnc3)c2)c(=O)c1=O)c1ccccc1

>  <Name>  (38) 
nan

>  <Pocket>  (38) 
nan

>  <ATP_Site>  (38) 
nan

>  <Peripheral>  (38) 
nan

>  <Num_H_Atoms_ProtBoundConf>  (38) 
nan

>  <Num_Resolved_Atoms>  (38) 
nan

>  <Num_Not_Resolved_Atoms>  (38) 
nan

$$$$
CHEMBL4474776
     RDKit          3D

  0  0  0  0  0  0  0  0  0  0999 V3000
M  V30 BEGIN CTAB
M  V30 COUNTS 47 50 0 0 0
M  V30 BEGIN ATOM
M  V30 1 C -0.789599 -3.528346 4.956263 0
M  V30 2 C -0.376323 -2.735895 3.785102 0
M  V30 3 C 0.934626 -2.501571 3.416843 0
M  V30 4 C 1.268656 -1.739916 2.292220 0
M  V30 5 O 2.670396 -1.689381 2.192182 0
M  V30 6 C 0.237747 -1.193149 1.508306 0
M  V30 7 C 0.960489 -0.501596 0.475945 0
M  V30 8 C 1.407376 -0.983402 -0.783443 0
M  V30 9 C 2.168783 -0.162586 -1.587937 0
M  V30 10 C 2.487405 1.094277 -1.178364 0
M  V30 11 C 3.314739 1.875465 -2.142990 0 CFG=1
M  V30 12 C 3.929611 3.018131 -1.359204 0
M  V30 13 N 4.408798 1.106297 -2.695337 0
M  V30 14 C 2.086715 1.624190 0.030855 0
M  V30 15 C 1.324969 0.817331 0.847412 0
M  V30 16 C -1.036141 -1.442309 1.897974 0
M  V30 17 C -1.344386 -2.185185 2.994401 0
M  V30 18 N -2.636645 -2.377532 3.300527 0
M  V30 19 C -3.637011 -1.867029 2.569525 0
M  V30 20 O -4.836423 -2.063910 2.880451 0
M  V30 21 C -3.295463 -1.110625 1.453030 0
M  V30 22 C -4.329762 -0.598088 0.722073 0
M  V30 23 O -5.638649 -0.836237 1.095367 0
M  V30 24 C -3.983543 0.149775 -0.379402 0
M  V30 25 C -2.678823 0.408379 -0.782507 0
M  V30 26 C -1.740802 -0.165511 0.040012 0
M  V30 27 C -1.994739 -0.909804 1.134277 0
M  V30 28 H 0.134392 -4.010178 5.353222 0
M  V30 29 H -1.189792 -2.903716 5.790973 0
M  V30 30 H -1.521810 -4.322973 4.726343 0
M  V30 31 H 1.632224 -2.979981 4.106559 0
M  V30 32 H 3.107422 -2.569100 1.888368 0
M  V30 33 H 1.056623 -1.998732 -0.933428 0
M  V30 34 H 2.437400 -0.647186 -2.504251 0
M  V30 35 H 2.707321 2.325489 -2.963957 0
M  V30 36 H 4.750590 3.515227 -1.937416 0
M  V30 37 H 4.377180 2.678343 -0.406883 0
M  V30 38 H 3.172527 3.817962 -1.154181 0
M  V30 39 H 4.135891 0.406162 -3.396150 0
M  V30 40 H 4.984928 0.734677 -1.909256 0
M  V30 41 H 2.361642 2.626931 0.317476 0
M  V30 42 H 1.032392 1.270814 1.784649 0
M  V30 43 H -2.908929 -2.945597 4.139433 0
M  V30 44 H -6.217769 -0.134565 1.556474 0
M  V30 45 H -4.850676 0.539708 -0.934103 0
M  V30 46 H -2.639548 1.015887 -1.672634 0
M  V30 47 H -0.853923 0.134784 -0.413221 0
M  V30 END ATOM
M  V30 BEGIN BOND
M  V30 1 1 1 2
M  V30 2 2 2 3
M  V30 3 1 3 4
M  V30 4 1 4 5
M  V30 5 2 4 6
M  V30 6 1 6 7
M  V30 7 2 7 8
M  V30 8 1 8 9
M  V30 9 2 9 10
M  V30 10 1 10 11
M  V30 11 1 11 12
M  V30 12 1 11 13
M  V30 13 1 10 14
M  V30 14 2 14 15
M  V30 15 1 6 16
M  V30 16 2 16 17
M  V30 17 1 17 18
M  V30 18 1 18 19
M  V30 19 2 19 20
M  V30 20 1 19 21
M  V30 21 2 21 22
M  V30 22 1 22 23
M  V30 23 1 22 24
M  V30 24 2 24 25
M  V30 25 1 25 26
M  V30 26 2 26 27
M  V30 27 1 17 2
M  V30 28 1 27 21
M  V30 29 1 15 7
M  V30 30 1 27 16
M  V30 31 1 1 28
M  V30 32 1 1 29
M  V30 33 1 1 30
M  V30 34 1 3 31
M  V30 35 1 5 32
M  V30 36 1 8 33
M  V30 37 1 9 34
M  V30 38 1 11 35 CFG=3
M  V30 39 1 12 36
M  V30 40 1 12 37
M  V30 41 1 12 38
M  V30 42 1 13 39
M  V30 43 1 13 40
M  V30 44 1 14 41
M  V30 45 1 15 42
M  V30 46 1 18 43
M  V30 47 1 23 44
M  V30 48 1 24 45
M  V30 49 1 25 46
M  V30 50 1 26 47
M  V30 END BOND
M  V30 END CTAB
M  END
>  <Dataset>  (39) 
ChEMBL_Kinases

>  <Ligand_Instance>  (39) 
nan

>  <PDB_ID>  (39) 
nan

>  <Standardized_SMILES>  (39) 
Cc1cc(O)c(-c2ccc([C@@H](C)N)cc2)c2c1[nH]c(=O)c1c(O)cccc12

>  <Name>  (39) 
nan

>  <Pocket>  (39) 
nan

>  <ATP_Site>  (39) 
nan

>  <Peripheral>  (39) 
nan

>  <Num_H_Atoms_ProtBoundConf>  (39) 
nan

>  <Num_Resolved_Atoms>  (39) 
nan

>  <Num_Not_Resolved_Atoms>  (39) 
nan

$$$$
CHEMBL469
     RDKit          3D

  0  0  0  0  0  0  0  0  0  0999 V3000
M  V30 BEGIN CTAB
M  V30 COUNTS 32 34 0 0 0
M  V30 BEGIN ATOM
M  V30 1 O 0.101051 -3.575749 -0.368539 0
M  V30 2 C 0.436017 -2.436034 0.141606 0
M  V30 3 C 1.405679 -2.638286 1.170174 0
M  V30 4 C 2.376099 -1.757799 1.573746 0
M  V30 5 C 3.289488 -1.910502 2.589667 0
M  V30 6 C 3.238137 -3.087599 3.300011 0
M  V30 7 C 2.302784 -4.035688 2.972921 0
M  V30 8 C 1.427450 -3.797963 1.940513 0
M  V30 9 C -0.226604 -1.289642 -0.434810 0
M  V30 10 C -0.934433 -1.438804 -1.608855 0
M  V30 11 C -1.499544 -0.203175 -1.918766 0
M  V30 12 C -1.091971 0.622320 -0.899223 0
M  V30 13 N -0.326013 -0.001293 0.007036 0
M  V30 14 C 0.053364 0.909626 1.039618 0
M  V30 15 C -0.424825 2.273117 0.608349 0
M  V30 16 C -1.332971 2.075630 -0.572716 0
M  V30 17 C -2.735932 2.242561 -0.041831 0
M  V30 18 O -3.076707 2.717055 1.078529 0
M  V30 19 O -3.937119 1.915042 -0.660209 0
M  V30 20 H 2.484382 -0.825941 1.039193 0
M  V30 21 H 4.027838 -1.196069 2.868282 0
M  V30 22 H 3.885698 -3.338516 4.112198 0
M  V30 23 H 2.237881 -4.975036 3.514207 0
M  V30 24 H 0.695697 -4.594136 1.721776 0
M  V30 25 H -1.131107 -2.263898 -2.304613 0
M  V30 26 H -2.121893 0.024645 -2.780984 0
M  V30 27 H 1.146257 1.018503 1.204199 0
M  V30 28 H -0.358090 0.625546 2.050021 0
M  V30 29 H -0.926690 2.720590 1.486108 0
M  V30 30 H 0.424720 2.922444 0.248822 0
M  V30 31 H -1.121299 2.730296 -1.423226 0
M  V30 32 H -4.589459 1.224460 -0.245831 0
M  V30 END ATOM
M  V30 BEGIN BOND
M  V30 1 2 1 2
M  V30 2 1 2 3
M  V30 3 2 3 4
M  V30 4 1 4 5
M  V30 5 2 5 6
M  V30 6 1 6 7
M  V30 7 2 7 8
M  V30 8 1 2 9
M  V30 9 2 9 10
M  V30 10 1 10 11
M  V30 11 2 11 12
M  V30 12 1 12 13
M  V30 13 1 13 14
M  V30 14 1 14 15
M  V30 15 1 15 16
M  V30 16 1 16 17
M  V30 17 2 17 18
M  V30 18 1 17 19
M  V30 19 1 8 3
M  V30 20 1 13 9
M  V30 21 1 16 12
M  V30 22 1 4 20
M  V30 23 1 5 21
M  V30 24 1 6 22
M  V30 25 1 7 23
M  V30 26 1 8 24
M  V30 27 1 10 25
M  V30 28 1 11 26
M  V30 29 1 14 27
M  V30 30 1 14 28
M  V30 31 1 15 29
M  V30 32 1 15 30
M  V30 33 1 16 31
M  V30 34 1 19 32
M  V30 END BOND
M  V30 END CTAB
M  END
>  <Dataset>  (40) 
ChEMBL_Kinases

>  <Ligand_Instance>  (40) 
nan

>  <PDB_ID>  (40) 
nan

>  <Standardized_SMILES>  (40) 
O=C(c1ccccc1)c1ccc2n1CCC2C(=O)O

>  <Name>  (40) 
KETOROLAC

>  <Pocket>  (40) 
nan

>  <ATP_Site>  (40) 
nan

>  <Peripheral>  (40) 
nan

>  <Num_H_Atoms_ProtBoundConf>  (40) 
nan

>  <Num_Resolved_Atoms>  (40) 
nan

>  <Num_Not_Resolved_Atoms>  (40) 
nan

$$$$
CHEMBL469124
     RDKit          3D

  0  0  0  0  0  0  0  0  0  0999 V3000
M  V30 BEGIN CTAB
M  V30 COUNTS 47 50 0 0 0
M  V30 BEGIN ATOM
M  V30 1 C -2.111305 -1.151961 3.423546 0
M  V30 2 C -2.032045 -1.405691 1.924851 0 CFG=1
M  V30 3 N -0.648853 -1.551654 1.496072 0
M  V30 4 C -0.230209 -1.781564 0.163378 0
M  V30 5 C 0.901378 -1.961327 -0.573131 0
M  V30 6 N 2.302475 -2.000287 -0.255742 0
M  V30 7 C 3.067721 -0.784146 -0.248796 0
M  V30 8 C 4.428811 -0.771165 -0.011921 0
M  V30 9 C 5.149280 0.429596 -0.007922 0
M  V30 10 N 4.476974 1.594581 -0.243781 0
M  V30 11 C 3.151365 1.604785 -0.476272 0
M  V30 12 N 2.520383 2.881662 -0.715302 0
M  V30 13 C 2.059583 3.591767 0.446927 0
M  V30 14 C 1.422518 4.831793 0.386909 0
M  V30 15 C 1.018389 5.442613 1.541694 0
M  V30 16 N 1.199392 4.911572 2.767427 0
M  V30 17 C 1.817659 3.709922 2.807744 0
M  V30 18 N 2.216105 3.104328 1.694278 0
M  V30 19 C 2.450462 0.411478 -0.477993 0
M  V30 20 C 0.189135 -2.098199 -1.760830 0
M  V30 21 O 0.582628 -2.302299 -2.951398 0
M  V30 22 C -0.957092 -1.913127 -0.996601 0
M  V30 23 O -2.117018 -1.915898 -1.481257 0
M  V30 24 C -2.830009 -2.621933 1.580373 0
M  V30 25 C -4.087895 -2.610171 1.008352 0
M  V30 26 C -4.706840 -3.816188 0.746681 0
M  V30 27 C -4.075424 -5.015844 1.053627 0
M  V30 28 C -2.808271 -5.023235 1.629968 0
M  V30 29 C -2.189995 -3.802789 1.890892 0
M  V30 30 H -3.137316 -0.861667 3.683932 0
M  V30 31 H -1.462228 -0.279186 3.651825 0
M  V30 32 H -1.820993 -2.029873 4.026165 0
M  V30 33 H -2.491165 -0.531508 1.422899 0
M  V30 34 H 0.120941 -1.487627 2.199462 0
M  V30 35 H 2.809177 -2.868477 -0.025935 0
M  V30 36 H 4.940653 -1.721209 0.174479 0
M  V30 37 H 6.224526 0.438179 0.179006 0
M  V30 38 H 2.341481 3.383262 -1.629467 0
M  V30 39 H 1.265142 5.279168 -0.583152 0
M  V30 40 H 0.521943 6.404815 1.520503 0
M  V30 41 H 2.065534 3.102544 3.677108 0
M  V30 42 H 1.390372 0.468699 -0.669690 0
M  V30 43 H -4.512573 -1.626400 0.800229 0
M  V30 44 H -5.702126 -3.791587 0.293642 0
M  V30 45 H -4.595500 -5.954702 0.832855 0
M  V30 46 H -2.319093 -5.969114 1.867681 0
M  V30 47 H -1.207989 -3.886206 2.338276 0
M  V30 END ATOM
M  V30 BEGIN BOND
M  V30 1 1 1 2
M  V30 2 1 2 3
M  V30 3 1 3 4
M  V30 4 2 4 5
M  V30 5 1 5 6
M  V30 6 1 6 7
M  V30 7 2 7 8
M  V30 8 1 8 9
M  V30 9 2 9 10
M  V30 10 1 10 11
M  V30 11 1 11 12
M  V30 12 1 12 13
M  V30 13 2 13 14
M  V30 14 1 14 15
M  V30 15 2 15 16
M  V30 16 1 16 17
M  V30 17 2 17 18
M  V30 18 2 11 19
M  V30 19 1 5 20
M  V30 20 2 20 21
M  V30 21 1 20 22
M  V30 22 2 22 23
M  V30 23 1 2 24
M  V30 24 2 24 25
M  V30 25 1 25 26
M  V30 26 2 26 27
M  V30 27 1 27 28
M  V30 28 2 28 29
M  V30 29 1 22 4
M  V30 30 1 29 24
M  V30 31 1 19 7
M  V30 32 1 18 13
M  V30 33 1 1 30
M  V30 34 1 1 31
M  V30 35 1 1 32
M  V30 36 1 2 33 CFG=3
M  V30 37 1 3 34
M  V30 38 1 6 35
M  V30 39 1 8 36
M  V30 40 1 9 37
M  V30 41 1 12 38
M  V30 42 1 14 39
M  V30 43 1 15 40
M  V30 44 1 17 41
M  V30 45 1 19 42
M  V30 46 1 25 43
M  V30 47 1 26 44
M  V30 48 1 27 45
M  V30 49 1 28 46
M  V30 50 1 29 47
M  V30 END BOND
M  V30 END CTAB
M  END
>  <Dataset>  (41) 
ChEMBL_Kinases

>  <Ligand_Instance>  (41) 
nan

>  <PDB_ID>  (41) 
nan

>  <Standardized_SMILES>  (41) 
C[C@@H](Nc1c(Nc2ccnc(Nc3ccncn3)c2)c(=O)c1=O)c1ccccc1

>  <Name>  (41) 
nan

>  <Pocket>  (41) 
nan

>  <ATP_Site>  (41) 
nan

>  <Peripheral>  (41) 
nan

>  <Num_H_Atoms_ProtBoundConf>  (41) 
nan

>  <Num_Resolved_Atoms>  (41) 
nan

>  <Num_Not_Resolved_Atoms>  (41) 
nan

$$$$
CHEMBL4474078
     RDKit          3D

  0  0  0  0  0  0  0  0  0  0999 V3000
M  V30 BEGIN CTAB
M  V30 COUNTS 45 48 0 0 0
M  V30 BEGIN ATOM
M  V30 1 C 0.346645 -5.876754 3.127134 0
M  V30 2 O -0.022724 -5.585615 1.823465 0
M  V30 3 C 0.224866 -4.431204 1.124727 0
M  V30 4 C 0.935930 -3.441661 1.817233 0
M  V30 5 C 1.261885 -2.213487 1.237533 0
M  V30 6 C 0.833957 -2.032233 -0.077615 0
M  V30 7 C 1.058029 -0.792511 -0.865641 0
M  V30 8 C 1.222582 -0.765760 -2.263098 0
M  V30 9 N 1.377168 0.463327 -2.767448 0
M  V30 10 C 1.384462 1.598279 -2.065989 0
M  V30 11 N 1.526960 2.881962 -2.414432 0
M  V30 12 C 1.454877 3.619735 -1.308909 0
M  V30 13 C 1.258080 2.841230 -0.155769 0
M  V30 14 C 1.101088 3.385626 1.176660 0
M  V30 15 O 2.091308 4.172191 1.384581 0
M  V30 16 C 0.134055 3.245552 2.243074 0
M  V30 17 C -0.812284 2.285707 2.468788 0
M  V30 18 C -1.736919 2.139180 3.462714 0
M  V30 19 C -1.663227 3.178289 4.390512 0
M  V30 20 C -0.752090 4.207655 4.275198 0
M  V30 21 C 0.123887 4.243223 3.233199 0
M  V30 22 C 1.224631 1.578843 -0.704172 0
M  V30 23 C 1.058480 0.363263 -0.080750 0
M  V30 24 C 0.137384 -2.964946 -0.799468 0
M  V30 25 C -0.153179 -4.156285 -0.169638 0
M  V30 26 O -0.849704 -5.237985 -0.715628 0
M  V30 27 C -1.381656 -5.284119 -2.018040 0
M  V30 28 H 1.334896 -6.359597 3.225993 0
M  V30 29 H -0.415273 -6.584793 3.549640 0
M  V30 30 H 0.370119 -4.994756 3.801643 0
M  V30 31 H 1.321426 -3.470814 2.845890 0
M  V30 32 H 1.801331 -1.401261 1.691767 0
M  V30 33 H 1.205386 -1.714018 -2.758761 0
M  V30 34 H 1.666675 3.202430 -3.396128 0
M  V30 35 H 1.547980 4.716241 -1.331421 0
M  V30 36 H -0.863347 1.486301 1.727027 0
M  V30 37 H -2.435739 1.353922 3.562154 0
M  V30 38 H -2.319027 3.230094 5.248285 0
M  V30 39 H -0.735773 5.010750 5.032231 0
M  V30 40 H 0.821836 5.069251 3.183452 0
M  V30 41 H 0.950350 0.318970 0.980944 0
M  V30 42 H -0.196082 -2.843661 -1.806933 0
M  V30 43 H -2.419428 -5.691384 -2.032192 0
M  V30 44 H -0.743924 -5.868982 -2.735893 0
M  V30 45 H -1.447062 -4.253199 -2.425775 0
M  V30 END ATOM
M  V30 BEGIN BOND
M  V30 1 1 1 2
M  V30 2 1 2 3
M  V30 3 2 3 4
M  V30 4 1 4 5
M  V30 5 2 5 6
M  V30 6 1 6 7
M  V30 7 2 7 8
M  V30 8 1 8 9
M  V30 9 2 9 10
M  V30 10 1 10 11
M  V30 11 1 11 12
M  V30 12 2 12 13
M  V30 13 1 13 14
M  V30 14 2 14 15
M  V30 15 1 14 16
M  V30 16 2 16 17
M  V30 17 1 17 18
M  V30 18 2 18 19
M  V30 19 1 19 20
M  V30 20 2 20 21
M  V30 21 1 13 22
M  V30 22 2 22 23
M  V30 23 1 6 24
M  V30 24 2 24 25
M  V30 25 1 25 26
M  V30 26 1 26 27
M  V30 27 1 25 3
M  V30 28 1 23 7
M  V30 29 1 22 10
M  V30 30 1 21 16
M  V30 31 1 1 28
M  V30 32 1 1 29
M  V30 33 1 1 30
M  V30 34 1 4 31
M  V30 35 1 5 32
M  V30 36 1 8 33
M  V30 37 1 11 34
M  V30 38 1 12 35
M  V30 39 1 17 36
M  V30 40 1 18 37
M  V30 41 1 19 38
M  V30 42 1 20 39
M  V30 43 1 21 40
M  V30 44 1 23 41
M  V30 45 1 24 42
M  V30 46 1 27 43
M  V30 47 1 27 44
M  V30 48 1 27 45
M  V30 END BOND
M  V30 END CTAB
M  END
>  <Dataset>  (42) 
ChEMBL_Kinases

>  <Ligand_Instance>  (42) 
nan

>  <PDB_ID>  (42) 
nan

>  <Standardized_SMILES>  (42) 
COc1ccc(-c2cnc3[nH]cc(C(=O)c4ccccc4)c3c2)cc1OC

>  <Name>  (42) 
nan

>  <Pocket>  (42) 
nan

>  <ATP_Site>  (42) 
nan

>  <Peripheral>  (42) 
nan

>  <Num_H_Atoms_ProtBoundConf>  (42) 
nan

>  <Num_Resolved_Atoms>  (42) 
nan

>  <Num_Not_Resolved_Atoms>  (42) 
nan

$$$$
CHEMBL4474636
     RDKit          3D

  0  0  0  0  0  0  0  0  0  0999 V3000
M  V30 BEGIN CTAB
M  V30 COUNTS 62 67 0 0 0
M  V30 BEGIN ATOM
M  V30 1 O -1.505048 0.114909 1.627374 0
M  V30 2 C -1.816931 -0.851112 2.453538 0
M  V30 3 N -0.673237 -1.658314 2.507624 0
M  V30 4 C 0.219385 -0.987877 1.634006 0
M  V30 5 C 0.965723 -0.056461 2.320030 0
M  V30 6 C 1.912563 0.732133 1.624545 0
M  V30 7 S 3.060356 2.025231 1.987677 0
M  V30 8 C 3.619858 2.142892 0.175238 0
M  V30 9 N 4.593762 3.067462 -0.350635 0
M  V30 10 C 5.735133 2.995920 -1.261950 0
M  V30 11 C 5.264504 3.743155 -2.508167 0
M  V30 12 O 4.940831 5.036355 -2.190501 0
M  V30 13 C 4.023980 5.204959 -1.181532 0
M  V30 14 C 4.413873 4.460204 0.093180 0
M  V30 15 N 2.947941 1.324060 -0.279160 0
M  V30 16 C 2.060154 0.543661 0.290717 0
M  V30 17 C 1.289359 -0.403255 -0.353874 0
M  V30 18 C 0.361792 -1.185808 0.275358 0
M  V30 19 N -0.430954 -2.166828 -0.389056 0
M  V30 20 C -0.959515 -1.858805 -1.710433 0
M  V30 21 C -1.349155 -3.087227 -2.502527 0
M  V30 22 C -2.288047 -3.985228 -1.773817 0
M  V30 23 C -1.997343 -5.400130 -2.222816 0
M  V30 24 O -0.686103 -5.797915 -1.956385 0
M  V30 25 C -2.159166 -3.906674 -0.280117 0
M  V30 26 C -0.778294 -3.491486 0.094227 0
M  V30 27 C -3.155583 -0.785436 3.010627 0
M  V30 28 C -4.006617 0.282054 2.877649 0
M  V30 29 N -5.133947 0.027618 3.516079 0
M  V30 30 N -5.086825 -1.146364 4.068134 0
M  V30 31 C -6.023274 -1.795321 4.810941 0
M  V30 32 C -5.667412 -3.061284 5.266855 0
M  V30 33 C -4.418844 -3.620911 4.971479 0
M  V30 34 N -3.526740 -2.913718 4.220157 0
M  V30 35 C -3.884747 -1.694580 3.787885 0
M  V30 36 H -0.884905 -2.445785 3.153657 0
M  V30 37 H 0.948344 0.188014 3.360037 0
M  V30 38 H 5.962173 1.940747 -1.467823 0
M  V30 39 H 6.601547 3.536775 -0.810837 0
M  V30 40 H 4.425611 3.129013 -2.909880 0
M  V30 41 H 6.090113 3.780768 -3.243798 0
M  V30 42 H 3.983836 6.277652 -0.933057 0
M  V30 43 H 3.007594 4.836115 -1.456401 0
M  V30 44 H 3.598360 4.577866 0.809947 0
M  V30 45 H 5.379968 4.857009 0.425273 0
M  V30 46 H 1.366868 -0.611920 -1.427719 0
M  V30 47 H -1.840258 -1.172244 -1.632240 0
M  V30 48 H -0.146453 -1.400863 -2.305644 0
M  V30 49 H -0.474427 -3.649404 -2.839720 0
M  V30 50 H -1.905609 -2.693854 -3.402082 0
M  V30 51 H -3.358548 -3.796879 -2.085492 0
M  V30 52 H -2.077286 -5.395581 -3.348359 0
M  V30 53 H -2.682158 -6.132097 -1.790366 0
M  V30 54 H -0.301725 -6.328640 -2.673693 0
M  V30 55 H -2.881545 -3.199140 0.139035 0
M  V30 56 H -2.362679 -4.893014 0.187408 0
M  V30 57 H -0.530093 -3.664434 1.154321 0
M  V30 58 H -0.056346 -4.172488 -0.456532 0
M  V30 59 H -3.851410 1.218433 2.348438 0
M  V30 60 H -6.974033 -1.311926 5.006422 0
M  V30 61 H -6.462050 -3.535332 5.862106 0
M  V30 62 H -4.237501 -4.606912 5.368358 0
M  V30 END ATOM
M  V30 BEGIN BOND
M  V30 1 2 1 2
M  V30 2 1 2 3
M  V30 3 1 3 4
M  V30 4 2 4 5
M  V30 5 1 5 6
M  V30 6 1 6 7
M  V30 7 1 7 8
M  V30 8 1 8 9
M  V30 9 1 9 10
M  V30 10 1 10 11
M  V30 11 1 11 12
M  V30 12 1 12 13
M  V30 13 1 13 14
M  V30 14 2 8 15
M  V30 15 1 15 16
M  V30 16 1 16 17
M  V30 17 2 17 18
M  V30 18 1 18 19
M  V30 19 1 19 20
M  V30 20 1 20 21
M  V30 21 1 21 22
M  V30 22 1 22 23
M  V30 23 1 23 24
M  V30 24 1 22 25
M  V30 25 1 25 26
M  V30 26 1 2 27
M  V30 27 1 27 28
M  V30 28 2 28 29
M  V30 29 1 29 30
M  V30 30 1 30 31
M  V30 31 2 31 32
M  V30 32 1 32 33
M  V30 33 2 33 34
M  V30 34 1 34 35
M  V30 35 1 18 4
M  V30 36 1 26 19
M  V30 37 2 35 27
M  V30 38 2 16 6
M  V30 39 1 35 30
M  V30 40 1 14 9
M  V30 41 1 3 36
M  V30 42 1 5 37
M  V30 43 1 10 38
M  V30 44 1 10 39
M  V30 45 1 11 40
M  V30 46 1 11 41
M  V30 47 1 13 42
M  V30 48 1 13 43
M  V30 49 1 14 44
M  V30 50 1 14 45
M  V30 51 1 17 46
M  V30 52 1 20 47
M  V30 53 1 20 48
M  V30 54 1 21 49
M  V30 55 1 21 50
M  V30 56 1 22 51
M  V30 57 1 23 52
M  V30 58 1 23 53
M  V30 59 1 24 54
M  V30 60 1 25 55
M  V30 61 1 25 56
M  V30 62 1 26 57
M  V30 63 1 26 58
M  V30 64 1 28 59
M  V30 65 1 31 60
M  V30 66 1 32 61
M  V30 67 1 33 62
M  V30 END BOND
M  V30 END CTAB
M  END
>  <Dataset>  (43) 
ChEMBL_Kinases

>  <Ligand_Instance>  (43) 
nan

>  <PDB_ID>  (43) 
nan

>  <Standardized_SMILES>  (43) 
O=C(Nc1cc2sc(N3CCOCC3)nc2cc1N1CCC(CO)CC1)c1cnn2cccnc12

>  <Name>  (43) 
nan

>  <Pocket>  (43) 
nan

>  <ATP_Site>  (43) 
nan

>  <Peripheral>  (43) 
nan

>  <Num_H_Atoms_ProtBoundConf>  (43) 
nan

>  <Num_Resolved_Atoms>  (43) 
nan

>  <Num_Not_Resolved_Atoms>  (43) 
nan

$$$$
CHEMBL4474571
     RDKit          3D

  0  0  0  0  0  0  0  0  0  0999 V3000
M  V30 BEGIN CTAB
M  V30 COUNTS 43 46 0 0 0
M  V30 BEGIN ATOM
M  V30 1 C -1.045976 -6.675943 -1.853547 0
M  V30 2 N -0.904186 -5.233025 -1.644870 0
M  V30 3 C -2.043322 -4.458394 -2.136460 0
M  V30 4 C -1.631112 -3.013693 -1.873744 0
M  V30 5 C -0.742569 -3.175701 -0.675574 0
M  V30 6 O -1.471569 -3.478716 0.479588 0
M  V30 7 C 0.158910 -2.044814 -0.461725 0
M  V30 8 C 0.892663 -1.103151 -0.289197 0
M  V30 9 C 1.757891 0.029330 -0.080740 0
M  V30 10 C 2.998671 0.154245 -0.671155 0
M  V30 11 C 3.760683 1.271876 -0.416220 0
M  V30 12 C 3.348606 2.293551 0.410589 0
M  V30 13 C 2.112384 2.201186 1.017874 0
M  V30 14 C 1.509032 3.195056 1.930635 0
M  V30 15 C 1.391318 4.572072 1.913298 0
M  V30 16 N 0.732106 4.945993 3.028153 0
M  V30 17 C 0.408898 3.879288 3.781229 0
M  V30 18 C -0.250216 3.702000 4.986951 0
M  V30 19 N -0.425862 2.465540 5.504692 0
M  V30 20 C 0.042955 1.395287 4.844688 0
M  V30 21 N -0.030916 0.023039 5.203220 0
M  V30 22 N 0.682500 1.571246 3.674111 0
M  V30 23 C 0.888964 2.779084 3.106090 0
M  V30 24 C 1.360836 1.054681 0.740208 0
M  V30 25 C 0.088929 -4.360314 -1.067972 0
M  V30 26 O 1.255115 -4.880216 -1.096562 0
M  V30 27 H -1.093640 -6.822397 -2.956412 0
M  V30 28 H -0.158478 -7.217738 -1.423226 0
M  V30 29 H -1.930313 -7.066156 -1.322966 0
M  V30 30 H -2.907853 -4.758981 -1.510726 0
M  V30 31 H -2.252632 -4.675453 -3.182899 0
M  V30 32 H -2.523581 -2.391844 -1.649163 0
M  V30 33 H -1.028827 -2.644270 -2.713659 0
M  V30 34 H -0.855417 -3.251593 1.232711 0
M  V30 35 H 3.339724 -0.635731 -1.322471 0
M  V30 36 H 4.749898 1.387883 -0.877188 0
M  V30 37 H 3.911590 3.188422 0.639956 0
M  V30 38 H 1.802566 5.125363 1.087876 0
M  V30 39 H 0.514442 5.947055 3.251308 0
M  V30 40 H -0.622685 4.551276 5.511483 0
M  V30 41 H -0.421976 -0.666527 4.509113 0
M  V30 42 H 0.227667 -0.514843 6.053998 0
M  V30 43 H 0.379749 0.956648 1.207498 0
M  V30 END ATOM
M  V30 BEGIN BOND
M  V30 1 1 1 2
M  V30 2 1 2 3
M  V30 3 1 3 4
M  V30 4 1 4 5
M  V30 5 1 5 6
M  V30 6 1 5 7
M  V30 7 3 7 8
M  V30 8 1 8 9
M  V30 9 2 9 10
M  V30 10 1 10 11
M  V30 11 2 11 12
M  V30 12 1 12 13
M  V30 13 1 13 14
M  V30 14 2 14 15
M  V30 15 1 15 16
M  V30 16 1 16 17
M  V30 17 2 17 18
M  V30 18 1 18 19
M  V30 19 2 19 20
M  V30 20 1 20 21
M  V30 21 1 20 22
M  V30 22 2 22 23
M  V30 23 2 13 24
M  V30 24 1 5 25
M  V30 25 2 25 26
M  V30 26 1 25 2
M  V30 27 1 24 9
M  V30 28 1 23 14
M  V30 29 1 23 17
M  V30 30 1 1 27
M  V30 31 1 1 28
M  V30 32 1 1 29
M  V30 33 1 3 30
M  V30 34 1 3 31
M  V30 35 1 4 32
M  V30 36 1 4 33
M  V30 37 1 6 34
M  V30 38 1 10 35
M  V30 39 1 11 36
M  V30 40 1 12 37
M  V30 41 1 15 38
M  V30 42 1 16 39
M  V30 43 1 18 40
M  V30 44 1 21 41
M  V30 45 1 21 42
M  V30 46 1 24 43
M  V30 END BOND
M  V30 END CTAB
M  END
>  <Dataset>  (44) 
ChEMBL_Kinases

>  <Ligand_Instance>  (44) 
nan

>  <PDB_ID>  (44) 
nan

>  <Standardized_SMILES>  (44) 
CN1CCC(O)(C#Cc2cccc(-c3c[nH]c4cnc(N)nc34)c2)C1=O

>  <Name>  (44) 
nan

>  <Pocket>  (44) 
nan

>  <ATP_Site>  (44) 
nan

>  <Peripheral>  (44) 
nan

>  <Num_H_Atoms_ProtBoundConf>  (44) 
nan

>  <Num_Resolved_Atoms>  (44) 
nan

>  <Num_Not_Resolved_Atoms>  (44) 
nan

$$$$
CHEMBL4474551
     RDKit          3D

  0  0  0  0  0  0  0  0  0  0999 V3000
M  V30 BEGIN CTAB
M  V30 COUNTS 41 45 0 0 0
M  V30 BEGIN ATOM
M  V30 1 C 0.952664 -4.440894 4.227033 0
M  V30 2 N 0.763839 -3.592523 3.055540 0
M  V30 3 C 0.134756 -2.403803 3.029313 0
M  V30 4 O -0.408923 -1.780334 3.962652 0
M  V30 5 N 0.171589 -1.933313 1.752417 0
M  V30 6 C -0.336590 -0.736313 1.170763 0
M  V30 7 C 0.511536 0.274402 0.773386 0
M  V30 8 C 0.094167 1.452775 0.206864 0
M  V30 9 C 0.931109 2.553389 -0.232190 0
M  V30 10 C 0.334187 3.665121 -0.781547 0
M  V30 11 C 1.033431 4.765184 -1.230446 0
M  V30 12 Cl 0.217294 6.147674 -1.919003 0
M  V30 13 C 2.404559 4.807299 -1.148942 0
M  V30 14 C 3.043130 3.723543 -0.609249 0
M  V30 15 C 2.297740 2.652680 -0.177017 0
M  V30 16 F 3.004772 1.627013 0.341288 0
M  V30 17 N -1.227489 1.604204 0.040982 0
M  V30 18 C -2.046532 0.615354 0.430549 0
M  V30 19 N -3.408050 0.598815 0.338120 0
M  V30 20 C -3.885136 -0.558166 0.829248 0
M  V30 21 C -2.813788 -1.344631 1.265546 0
M  V30 22 C -1.697233 -0.582722 1.001029 0
M  V30 23 C 0.831897 -2.850187 0.996810 0
M  V30 24 C 1.179073 -2.937274 -0.335378 0
M  V30 25 C 1.864581 -4.002588 -0.851252 0
M  V30 26 N 2.209416 -5.006323 -0.003380 0
M  V30 27 C 1.897072 -4.976623 1.310313 0
M  V30 28 C 1.199797 -3.889526 1.826780 0
M  V30 29 H 0.655192 -3.891892 5.152548 0
M  V30 30 H 2.011297 -4.756214 4.341538 0
M  V30 31 H 0.247954 -5.311990 4.171506 0
M  V30 32 H 1.543693 0.101049 0.927989 0
M  V30 33 H -0.753535 3.745721 -0.898067 0
M  V30 34 H 2.939537 5.672781 -1.503219 0
M  V30 35 H 4.120702 3.733378 -0.534599 0
M  V30 36 H -4.019465 1.351365 -0.049002 0
M  V30 37 H -4.901111 -0.890050 0.905597 0
M  V30 38 H -2.757583 -2.327676 1.716724 0
M  V30 39 H 0.890577 -2.123711 -0.982787 0
M  V30 40 H 2.118366 -4.034566 -1.900099 0
M  V30 41 H 2.204340 -5.816480 1.936725 0
M  V30 END ATOM
M  V30 BEGIN BOND
M  V30 1 1 1 2
M  V30 2 1 2 3
M  V30 3 2 3 4
M  V30 4 1 3 5
M  V30 5 1 5 6
M  V30 6 2 6 7
M  V30 7 1 7 8
M  V30 8 1 8 9
M  V30 9 2 9 10
M  V30 10 1 10 11
M  V30 11 1 11 12
M  V30 12 2 11 13
M  V30 13 1 13 14
M  V30 14 2 14 15
M  V30 15 1 15 16
M  V30 16 2 8 17
M  V30 17 1 17 18
M  V30 18 1 18 19
M  V30 19 1 19 20
M  V30 20 2 20 21
M  V30 21 1 21 22
M  V30 22 1 5 23
M  V30 23 2 23 24
M  V30 24 1 24 25
M  V30 25 2 25 26
M  V30 26 1 26 27
M  V30 27 2 27 28
M  V30 28 1 28 2
M  V30 29 1 22 6
M  V30 30 1 28 23
M  V30 31 1 15 9
M  V30 32 2 22 18
M  V30 33 1 1 29
M  V30 34 1 1 30
M  V30 35 1 1 31
M  V30 36 1 7 32
M  V30 37 1 10 33
M  V30 38 1 13 34
M  V30 39 1 14 35
M  V30 40 1 19 36
M  V30 41 1 20 37
M  V30 42 1 21 38
M  V30 43 1 24 39
M  V30 44 1 25 40
M  V30 45 1 27 41
M  V30 END BOND
M  V30 END CTAB
M  END
>  <Dataset>  (45) 
ChEMBL_Kinases

>  <Ligand_Instance>  (45) 
nan

>  <PDB_ID>  (45) 
nan

>  <Standardized_SMILES>  (45) 
Cn1c(=O)n(-c2cc(-c3cc(Cl)ccc3F)nc3[nH]ccc23)c2ccncc21

>  <Name>  (45) 
nan

>  <Pocket>  (45) 
nan

>  <ATP_Site>  (45) 
nan

>  <Peripheral>  (45) 
nan

>  <Num_H_Atoms_ProtBoundConf>  (45) 
nan

>  <Num_Resolved_Atoms>  (45) 
nan

>  <Num_Not_Resolved_Atoms>  (45) 
nan

$$$$
CHEMBL46917
     RDKit          3D

  0  0  0  0  0  0  0  0  0  0999 V3000
M  V30 BEGIN CTAB
M  V30 COUNTS 26 27 0 0 0
M  V30 BEGIN ATOM
M  V30 1 C 1.751690 -4.551531 1.912417 0
M  V30 2 N 0.895544 -3.455627 2.332450 0
M  V30 3 C 0.930950 -2.167334 1.781152 0
M  V30 4 O 1.549101 -1.541567 0.910566 0
M  V30 5 O 0.114052 -1.114514 2.179057 0
M  V30 6 C 0.245531 0.140354 1.544775 0
M  V30 7 C 1.140302 1.039470 2.091923 0
M  V30 8 C 1.304863 2.296432 1.497699 0
M  V30 9 C 0.562987 2.618245 0.364668 0
M  V30 10 C -0.342572 1.706766 -0.188108 0
M  V30 11 C -1.077449 2.043388 -1.321820 0
M  V30 12 C -1.967802 1.093013 -1.830823 0
M  V30 13 C -2.109090 -0.145191 -1.219422 0
M  V30 14 C -1.371399 -0.446647 -0.104575 0
M  V30 15 C -0.484558 0.475374 0.418084 0
M  V30 16 H 2.336100 -4.271469 1.006367 0
M  V30 17 H 2.406851 -4.906935 2.717150 0
M  V30 18 H 1.093222 -5.393531 1.549410 0
M  V30 19 H 0.209095 -3.642718 3.095923 0
M  V30 20 H 1.737217 0.807223 2.986581 0
M  V30 21 H 1.992069 3.027532 1.892099 0
M  V30 22 H 0.663374 3.587169 -0.126494 0
M  V30 23 H -0.964516 3.010061 -1.795867 0
M  V30 24 H -2.555177 1.318143 -2.709024 0
M  V30 25 H -2.822085 -0.857345 -1.658161 0
M  V30 26 H -1.462341 -1.405688 0.392117 0
M  V30 END ATOM
M  V30 BEGIN BOND
M  V30 1 1 1 2
M  V30 2 1 2 3
M  V30 3 2 3 4
M  V30 4 1 3 5
M  V30 5 1 5 6
M  V30 6 2 6 7
M  V30 7 1 7 8
M  V30 8 2 8 9
M  V30 9 1 9 10
M  V30 10 2 10 11
M  V30 11 1 11 12
M  V30 12 2 12 13
M  V30 13 1 13 14
M  V30 14 2 14 15
M  V30 15 1 15 6
M  V30 16 1 15 10
M  V30 17 1 1 16
M  V30 18 1 1 17
M  V30 19 1 1 18
M  V30 20 1 2 19
M  V30 21 1 7 20
M  V30 22 1 8 21
M  V30 23 1 9 22
M  V30 24 1 11 23
M  V30 25 1 12 24
M  V30 26 1 13 25
M  V30 27 1 14 26
M  V30 END BOND
M  V30 END CTAB
M  END
>  <Dataset>  (46) 
ChEMBL_Kinases

>  <Ligand_Instance>  (46) 
nan

>  <PDB_ID>  (46) 
nan

>  <Standardized_SMILES>  (46) 
CNC(=O)Oc1cccc2ccccc12

>  <Name>  (46) 
CARBARIL

>  <Pocket>  (46) 
nan

>  <ATP_Site>  (46) 
nan

>  <Peripheral>  (46) 
nan

>  <Num_H_Atoms_ProtBoundConf>  (46) 
nan

>  <Num_Resolved_Atoms>  (46) 
nan

>  <Num_Not_Resolved_Atoms>  (46) 
nan

$$$$
CHEMBL4474534
     RDKit          3D

  0  0  0  0  0  0  0  0  0  0999 V3000
M  V30 BEGIN CTAB
M  V30 COUNTS 69 73 0 0 0
M  V30 BEGIN ATOM
M  V30 1 C 3.992399 -0.089017 3.109466 0
M  V30 2 O 2.831711 0.281777 2.440527 0
M  V30 3 C 2.566569 0.157023 1.094130 0
M  V30 4 C 3.455125 -0.371028 0.180580 0
M  V30 5 C 3.151987 -0.479225 -1.171216 0
M  V30 6 N 4.077602 -1.049845 -2.112616 0
M  V30 7 C 4.194746 -2.501115 -2.167148 0
M  V30 8 C 3.291927 -2.879730 -3.346678 0
M  V30 9 C 3.702561 -2.094117 -4.531261 0
M  V30 10 O 3.856425 -2.959558 -5.615420 0
M  V30 11 C 4.953168 -1.271621 -4.388061 0
M  V30 12 C 4.997204 -0.492296 -3.098390 0
M  V30 13 C 1.920794 -0.048782 -1.645097 0
M  V30 14 C 1.016844 0.487957 -0.715961 0
M  V30 15 C 1.337820 0.585628 0.622634 0
M  V30 16 N 0.314178 1.129302 1.450432 0
M  V30 17 C -0.990076 1.580202 1.065163 0
M  V30 18 N -1.827262 0.537350 0.956445 0
M  V30 19 C -3.126878 0.764881 0.602395 0
M  V30 20 N -3.990504 -0.371324 0.494694 0
M  V30 21 C -3.928922 -1.720582 0.860457 0
M  V30 22 C -3.784282 -2.560047 -0.255198 0
M  V30 23 C -3.731842 -3.933099 -0.171369 0
M  V30 24 C -3.827813 -4.483047 1.082391 0
M  V30 25 C -3.971693 -3.621986 2.164283 0
M  V30 26 C -4.031378 -2.219545 2.121193 0
M  V30 27 S -4.296021 -1.399088 3.593258 0
M  V30 28 O -5.601484 -0.602079 3.566017 0
M  V30 29 O -4.498117 -2.414543 4.711575 0
M  V30 30 C -3.031537 -0.290859 4.046889 0
M  V30 31 C -3.279475 0.308712 5.430377 0
M  V30 32 C -1.690892 -1.030598 4.098791 0
M  V30 33 C -3.606087 2.020710 0.354252 0
M  V30 34 N -4.796884 2.541847 0.002944 0
M  V30 35 C -4.648637 3.895429 -0.092998 0
M  V30 36 N -3.355313 4.204734 0.202355 0
M  V30 37 C -2.725131 3.055130 0.474931 0
M  V30 38 N -1.456476 2.813499 0.822568 0
M  V30 39 H 3.705560 -0.490679 4.123277 0
M  V30 40 H 4.681108 0.782547 3.305865 0
M  V30 41 H 4.550784 -0.915999 2.603405 0
M  V30 42 H 4.420328 -0.710373 0.543630 0
M  V30 43 H 5.189683 -2.876847 -2.386591 0
M  V30 44 H 3.779030 -2.917599 -1.219878 0
M  V30 45 H 2.219153 -2.721631 -3.100511 0
M  V30 46 H 3.395517 -3.973491 -3.536600 0
M  V30 47 H 2.838864 -1.426728 -4.826792 0
M  V30 48 H 3.010600 -3.052342 -6.129224 0
M  V30 49 H 5.830847 -1.934511 -4.526292 0
M  V30 50 H 4.967406 -0.538122 -5.218500 0
M  V30 51 H 6.004127 -0.672098 -2.673216 0
M  V30 52 H 4.890079 0.593079 -3.247746 0
M  V30 53 H 1.690433 -0.136251 -2.698081 0
M  V30 54 H 0.075205 0.808995 -1.115835 0
M  V30 55 H 0.317309 1.299863 2.458452 0
M  V30 56 H -4.920386 -0.206870 0.035763 0
M  V30 57 H -3.702085 -2.185401 -1.283680 0
M  V30 58 H -3.621295 -4.567137 -1.018631 0
M  V30 59 H -3.790024 -5.544376 1.197552 0
M  V30 60 H -4.038918 -4.149953 3.113097 0
M  V30 61 H -2.946298 0.552732 3.358088 0
M  V30 62 H -3.388793 -0.455870 6.208332 0
M  V30 63 H -4.174880 0.969265 5.337833 0
M  V30 64 H -2.413945 0.966243 5.648184 0
M  V30 65 H -0.918593 -0.333896 4.527769 0
M  V30 66 H -1.366912 -1.261837 3.067023 0
M  V30 67 H -1.733877 -1.953620 4.673978 0
M  V30 68 H -5.433886 4.589587 -0.357665 0
M  V30 69 H -2.971662 5.176494 0.203983 0
M  V30 END ATOM
M  V30 BEGIN BOND
M  V30 1 1 1 2
M  V30 2 1 2 3
M  V30 3 2 3 4
M  V30 4 1 4 5
M  V30 5 1 5 6
M  V30 6 1 6 7
M  V30 7 1 7 8
M  V30 8 1 8 9
M  V30 9 1 9 10
M  V30 10 1 9 11
M  V30 11 1 11 12
M  V30 12 2 5 13
M  V30 13 1 13 14
M  V30 14 2 14 15
M  V30 15 1 15 16
M  V30 16 1 16 17
M  V30 17 2 17 18
M  V30 18 1 18 19
M  V30 19 1 19 20
M  V30 20 1 20 21
M  V30 21 2 21 22
M  V30 22 1 22 23
M  V30 23 2 23 24
M  V30 24 1 24 25
M  V30 25 2 25 26
M  V30 26 1 26 27
M  V30 27 2 27 28
M  V30 28 2 27 29
M  V30 29 1 27 30
M  V30 30 1 30 31
M  V30 31 1 30 32
M  V30 32 2 19 33
M  V30 33 1 33 34
M  V30 34 2 34 35
M  V30 35 1 35 36
M  V30 36 1 36 37
M  V30 37 2 37 38
M  V30 38 1 15 3
M  V30 39 1 38 17
M  V30 40 1 12 6
M  V30 41 1 26 21
M  V30 42 1 37 33
M  V30 43 1 1 39
M  V30 44 1 1 40
M  V30 45 1 1 41
M  V30 46 1 4 42
M  V30 47 1 7 43
M  V30 48 1 7 44
M  V30 49 1 8 45
M  V30 50 1 8 46
M  V30 51 1 9 47
M  V30 52 1 10 48
M  V30 53 1 11 49
M  V30 54 1 11 50
M  V30 55 1 12 51
M  V30 56 1 12 52
M  V30 57 1 13 53
M  V30 58 1 14 54
M  V30 59 1 16 55
M  V30 60 1 20 56
M  V30 61 1 22 57
M  V30 62 1 23 58
M  V30 63 1 24 59
M  V30 64 1 25 60
M  V30 65 1 30 61
M  V30 66 1 31 62
M  V30 67 1 31 63
M  V30 68 1 31 64
M  V30 69 1 32 65
M  V30 70 1 32 66
M  V30 71 1 32 67
M  V30 72 1 35 68
M  V30 73 1 36 69
M  V30 END BOND
M  V30 END CTAB
M  END
>  <Dataset>  (47) 
ChEMBL_Kinases

>  <Ligand_Instance>  (47) 
nan

>  <PDB_ID>  (47) 
nan

>  <Standardized_SMILES>  (47) 
COc1cc(N2CCC(O)CC2)ccc1Nc1nc(Nc2ccccc2S(=O)(=O)C(C)C)c2nc[nH]c2n1

>  <Name>  (47) 
nan

>  <Pocket>  (47) 
nan

>  <ATP_Site>  (47) 
nan

>  <Peripheral>  (47) 
nan

>  <Num_H_Atoms_ProtBoundConf>  (47) 
nan

>  <Num_Resolved_Atoms>  (47) 
nan

>  <Num_Not_Resolved_Atoms>  (47) 
nan

$$$$
CHEMBL469490
     RDKit          3D

  0  0  0  0  0  0  0  0  0  0999 V3000
M  V30 BEGIN CTAB
M  V30 COUNTS 46 49 0 0 0
M  V30 BEGIN ATOM
M  V30 1 C -2.284156 -1.090904 0.973539 0
M  V30 2 C -1.116913 -1.925118 0.488844 0 CFG=1
M  V30 3 N -0.643450 -2.705906 1.619350 0
M  V30 4 C -0.184263 -2.010045 2.770421 0
M  V30 5 C 0.922523 -1.446068 3.381608 0
M  V30 6 N 2.271943 -1.386082 2.907295 0
M  V30 7 C 2.785050 -0.316765 2.111719 0
M  V30 8 C 4.115849 -0.378229 1.714517 0
M  V30 9 C 4.532369 0.686093 0.953342 0
M  V30 10 N 3.777832 1.732015 0.584297 0
M  V30 11 C 2.470987 1.798572 0.970710 0
M  V30 12 C 1.612162 2.915731 0.593814 0
M  V30 13 C 0.290056 3.073995 0.931294 0
M  V30 14 C -0.408718 4.198930 0.497750 0
M  V30 15 N 0.175624 5.150163 -0.251510 0
M  V30 16 C 1.471594 5.036116 -0.606468 0
M  V30 17 C 2.169163 3.918666 -0.176930 0
M  V30 18 C 2.022859 0.742987 1.737038 0
M  V30 19 C 0.125632 -1.070796 4.459722 0
M  V30 20 O 0.577149 -0.446726 5.474608 0
M  V30 21 C -0.977116 -1.639792 3.837013 0
M  V30 22 O -2.095837 -1.596698 4.410610 0
M  V30 23 C -1.480702 -2.809190 -0.645928 0
M  V30 24 C -1.164245 -2.647742 -1.978368 0
M  V30 25 C -1.588016 -3.575609 -2.910832 0
M  V30 26 C -2.339470 -4.683998 -2.514553 0
M  V30 27 C -2.651660 -4.837632 -1.178556 0
M  V30 28 C -2.232485 -3.911074 -0.222789 0
M  V30 29 H -1.967440 -0.114891 1.389670 0
M  V30 30 H -2.853554 -1.619274 1.767194 0
M  V30 31 H -2.952184 -0.966359 0.085174 0
M  V30 32 H -0.310966 -1.227267 0.167905 0
M  V30 33 H -0.649057 -3.735335 1.566881 0
M  V30 34 H 2.850901 -2.181621 3.186604 0
M  V30 35 H 4.773481 -1.186187 1.975255 0
M  V30 36 H 5.577138 0.692666 0.609283 0
M  V30 37 H -0.154211 2.298171 1.531862 0
M  V30 38 H -1.445825 4.222383 0.821661 0
M  V30 39 H 1.961951 5.789093 -1.208608 0
M  V30 40 H 3.196015 3.856969 -0.475026 0
M  V30 41 H 1.001705 0.713323 2.086987 0
M  V30 42 H -0.581026 -1.764087 -2.196593 0
M  V30 43 H -1.318021 -3.413061 -3.952908 0
M  V30 44 H -2.637764 -5.369930 -3.296125 0
M  V30 45 H -3.228466 -5.696517 -0.905286 0
M  V30 46 H -2.528141 -4.119441 0.802414 0
M  V30 END ATOM
M  V30 BEGIN BOND
M  V30 1 1 1 2
M  V30 2 1 2 3
M  V30 3 1 3 4
M  V30 4 2 4 5
M  V30 5 1 5 6
M  V30 6 1 6 7
M  V30 7 2 7 8
M  V30 8 1 8 9
M  V30 9 2 9 10
M  V30 10 1 10 11
M  V30 11 1 11 12
M  V30 12 2 12 13
M  V30 13 1 13 14
M  V30 14 2 14 15
M  V30 15 1 15 16
M  V30 16 2 16 17
M  V30 17 2 11 18
M  V30 18 1 5 19
M  V30 19 2 19 20
M  V30 20 1 19 21
M  V30 21 2 21 22
M  V30 22 1 2 23
M  V30 23 2 23 24
M  V30 24 1 24 25
M  V30 25 2 25 26
M  V30 26 1 26 27
M  V30 27 2 27 28
M  V30 28 1 21 4
M  V30 29 1 28 23
M  V30 30 1 18 7
M  V30 31 1 17 12
M  V30 32 1 1 29
M  V30 33 1 1 30
M  V30 34 1 1 31
M  V30 35 1 2 32 CFG=3
M  V30 36 1 3 33
M  V30 37 1 6 34
M  V30 38 1 8 35
M  V30 39 1 9 36
M  V30 40 1 13 37
M  V30 41 1 14 38
M  V30 42 1 16 39
M  V30 43 1 17 40
M  V30 44 1 18 41
M  V30 45 1 24 42
M  V30 46 1 25 43
M  V30 47 1 26 44
M  V30 48 1 27 45
M  V30 49 1 28 46
M  V30 END BOND
M  V30 END CTAB
M  END
>  <Dataset>  (48) 
ChEMBL_Kinases

>  <Ligand_Instance>  (48) 
nan

>  <PDB_ID>  (48) 
nan

>  <Standardized_SMILES>  (48) 
C[C@@H](Nc1c(Nc2ccnc(-c3ccncc3)c2)c(=O)c1=O)c1ccccc1

>  <Name>  (48) 
nan

>  <Pocket>  (48) 
nan

>  <ATP_Site>  (48) 
nan

>  <Peripheral>  (48) 
nan

>  <Num_H_Atoms_ProtBoundConf>  (48) 
nan

>  <Num_Resolved_Atoms>  (48) 
nan

>  <Num_Not_Resolved_Atoms>  (48) 
nan

$$$$
CHEMBL4474331
     RDKit          3D

  0  0  0  0  0  0  0  0  0  0999 V3000
M  V30 BEGIN CTAB
M  V30 COUNTS 50 54 0 0 0
M  V30 BEGIN ATOM
M  V30 1 C 4.018104 -4.037602 3.297275 0
M  V30 2 C 3.045107 -2.893544 3.272428 0
M  V30 3 C 2.334296 -2.502829 4.388032 0
M  V30 4 C 1.443557 -1.459656 4.375935 0
M  V30 5 C 1.302141 -0.814481 3.152676 0
M  V30 6 C 2.002461 -1.186357 2.020318 0
M  V30 7 C 1.740904 -0.408461 0.815025 0
M  V30 8 N 1.874569 0.861620 0.436283 0
M  V30 9 N 1.462722 1.019092 -0.821485 0
M  V30 10 C 1.485591 2.293827 -1.512419 0
M  V30 11 C 0.210564 3.026948 -1.310116 0
M  V30 12 O -0.096983 4.171743 -1.776598 0
M  V30 13 N -0.796451 2.426528 -0.522821 0
M  V30 14 C -2.111467 2.686621 -0.050304 0
M  V30 15 C -2.092052 3.343287 1.183750 0
M  V30 16 C -3.276971 3.696444 1.833775 0
M  V30 17 C -4.454906 3.361256 1.190075 0
M  V30 18 C -4.498765 2.722663 -0.010723 0
M  V30 19 C -5.718742 2.371787 -0.683545 0
M  V30 20 N -6.695350 2.087403 -1.225887 0
M  V30 21 C -3.323293 2.377906 -0.644720 0
M  V30 22 C 1.044384 -0.168756 -1.296506 0
M  V30 23 C 1.210900 -1.083641 -0.280979 0
M  V30 24 C 0.826232 -2.467107 -0.544829 0
M  V30 25 C -0.190311 -2.926653 0.262889 0
M  V30 26 C -0.630593 -4.212436 0.099866 0
M  V30 27 C -0.056678 -4.995745 -0.848133 0
M  V30 28 N -0.366316 -6.425601 -1.210718 0
M  V30 29 S 0.629146 -6.876333 -2.426772 0
M  V30 30 N 1.594001 -5.322952 -2.666334 0
M  V30 31 C 0.939611 -4.582561 -1.657369 0
M  V30 32 C 1.380494 -3.292830 -1.493195 0
M  V30 33 N 2.860308 -2.233171 2.138815 0
M  V30 34 H 5.011195 -3.556231 3.055690 0
M  V30 35 H 4.008949 -4.488326 4.303017 0
M  V30 36 H 3.799561 -4.727694 2.468721 0
M  V30 37 H 2.481220 -3.040349 5.319941 0
M  V30 38 H 0.900200 -1.176729 5.268041 0
M  V30 39 H 0.586790 0.020137 3.151431 0
M  V30 40 H 1.664917 2.156367 -2.597468 0
M  V30 41 H 2.342820 2.898879 -1.112280 0
M  V30 42 H -0.628010 1.468849 -0.091719 0
M  V30 43 H -1.198839 3.630246 1.733440 0
M  V30 44 H -3.290585 4.198841 2.777099 0
M  V30 45 H -5.399067 3.620544 1.667808 0
M  V30 46 H -3.213189 1.868717 -1.601073 0
M  V30 47 H 0.668235 -0.252797 -2.309027 0
M  V30 48 H -0.676628 -2.343664 1.028496 0
M  V30 49 H -1.408081 -4.704617 0.651154 0
M  V30 50 H 2.155821 -2.770018 -2.027695 0
M  V30 END ATOM
M  V30 BEGIN BOND
M  V30 1 1 1 2
M  V30 2 2 2 3
M  V30 3 1 3 4
M  V30 4 2 4 5
M  V30 5 1 5 6
M  V30 6 1 6 7
M  V30 7 2 7 8
M  V30 8 1 8 9
M  V30 9 1 9 10
M  V30 10 1 10 11
M  V30 11 2 11 12
M  V30 12 1 11 13
M  V30 13 1 13 14
M  V30 14 2 14 15
M  V30 15 1 15 16
M  V30 16 2 16 17
M  V30 17 1 17 18
M  V30 18 1 18 19
M  V30 19 3 19 20
M  V30 20 2 18 21
M  V30 21 1 9 22
M  V30 22 2 22 23
M  V30 23 1 23 24
M  V30 24 1 24 25
M  V30 25 2 25 26
M  V30 26 1 26 27
M  V30 27 2 27 28
M  V30 28 1 28 29
M  V30 29 1 29 30
M  V30 30 2 30 31
M  V30 31 1 31 32
M  V30 32 2 6 33
M  V30 33 1 33 2
M  V30 34 1 23 7
M  V30 35 2 32 24
M  V30 36 1 21 14
M  V30 37 1 31 27
M  V30 38 1 1 34
M  V30 39 1 1 35
M  V30 40 1 1 36
M  V30 41 1 3 37
M  V30 42 1 4 38
M  V30 43 1 5 39
M  V30 44 1 10 40
M  V30 45 1 10 41
M  V30 46 1 13 42
M  V30 47 1 15 43
M  V30 48 1 16 44
M  V30 49 1 17 45
M  V30 50 1 21 46
M  V30 51 1 22 47
M  V30 52 1 25 48
M  V30 53 1 26 49
M  V30 54 1 32 50
M  V30 END BOND
M  V30 END CTAB
M  END
>  <Dataset>  (49) 
ChEMBL_Kinases

>  <Ligand_Instance>  (49) 
nan

>  <PDB_ID>  (49) 
nan

>  <Standardized_SMILES>  (49) 
Cc1cccc(-c2nn(CC(=O)Nc3cccc(C#N)c3)cc2-c2ccc3nsnc3c2)n1

>  <Name>  (49) 
nan

>  <Pocket>  (49) 
nan

>  <ATP_Site>  (49) 
nan

>  <Peripheral>  (49) 
nan

>  <Num_H_Atoms_ProtBoundConf>  (49) 
nan

>  <Num_Resolved_Atoms>  (49) 
nan

>  <Num_Not_Resolved_Atoms>  (49) 
nan

$$$$
CHEMBL4474308
     RDKit          3D

  0  0  0  0  0  0  0  0  0  0999 V3000
M  V30 BEGIN CTAB
M  V30 COUNTS 39 42 0 0 0
M  V30 BEGIN ATOM
M  V30 1 Cl 2.712673 -2.938544 0.723424 0
M  V30 2 C 1.768451 -4.267426 1.311238 0
M  V30 3 C 2.239643 -5.555388 1.450419 0
M  V30 4 N 1.539355 -6.608205 1.901276 0
M  V30 5 C 0.243602 -6.382581 2.253655 0
M  V30 6 C -0.336338 -5.119799 2.153827 0
M  V30 7 C 0.452475 -4.093278 1.681308 0
M  V30 8 C -0.209651 -2.798098 1.599847 0
M  V30 9 N 0.504239 -1.772560 1.150646 0
M  V30 10 C 0.071863 -0.507957 1.004314 0
M  V30 11 N 0.857468 0.555316 0.531907 0
M  V30 12 C 1.085235 1.880086 0.135902 0
M  V30 13 C 0.419464 2.305865 -1.164600 0
M  V30 14 C 0.981402 3.713936 -1.303268 0
M  V30 15 C 2.407455 3.581681 -0.755159 0
M  V30 16 C 2.543717 2.188053 -0.225140 0
M  V30 17 C -1.246961 -0.374605 1.385542 0
M  V30 18 C -1.889831 0.843071 1.329675 0
M  V30 19 C -3.195190 1.086621 1.692364 0
M  V30 20 N -3.929218 0.052345 2.147120 0
M  V30 21 C -3.383412 -1.174146 2.236892 0
M  V30 22 C -2.075086 -1.369005 1.863110 0
M  V30 23 N -1.476734 -2.565391 1.941903 0
M  V30 24 H 3.280426 -5.757082 1.171917 0
M  V30 25 H -0.349947 -7.213114 2.622092 0
M  V30 26 H -1.382879 -4.962899 2.444041 0
M  V30 27 H 1.827990 0.144707 0.386878 0
M  V30 28 H 0.750045 2.649889 0.885649 0
M  V30 29 H -0.655961 2.257841 -1.146466 0
M  V30 30 H 0.832537 1.728935 -2.025957 0
M  V30 31 H 1.046458 4.029972 -2.373393 0
M  V30 32 H 0.421302 4.443179 -0.696086 0
M  V30 33 H 2.515697 4.273753 0.124942 0
M  V30 34 H 3.147305 3.806727 -1.537734 0
M  V30 35 H 3.201990 2.083489 0.636659 0
M  V30 36 H 2.809055 1.453073 -1.005219 0
M  V30 37 H -1.360989 1.713120 0.989256 0
M  V30 38 H -3.647268 2.066451 1.626212 0
M  V30 39 H -3.933416 -2.038833 2.597122 0
M  V30 END ATOM
M  V30 BEGIN BOND
M  V30 1 1 1 2
M  V30 2 2 2 3
M  V30 3 1 3 4
M  V30 4 2 4 5
M  V30 5 1 5 6
M  V30 6 2 6 7
M  V30 7 1 7 8
M  V30 8 2 8 9
M  V30 9 1 9 10
M  V30 10 1 10 11
M  V30 11 1 11 12
M  V30 12 1 12 13
M  V30 13 1 13 14
M  V30 14 1 14 15
M  V30 15 1 15 16
M  V30 16 2 10 17
M  V30 17 1 17 18
M  V30 18 2 18 19
M  V30 19 1 19 20
M  V30 20 2 20 21
M  V30 21 1 21 22
M  V30 22 2 22 23
M  V30 23 1 7 2
M  V30 24 1 23 8
M  V30 25 1 16 12
M  V30 26 1 22 17
M  V30 27 1 3 24
M  V30 28 1 5 25
M  V30 29 1 6 26
M  V30 30 1 11 27
M  V30 31 1 12 28
M  V30 32 1 13 29
M  V30 33 1 13 30
M  V30 34 1 14 31
M  V30 35 1 14 32
M  V30 36 1 15 33
M  V30 37 1 15 34
M  V30 38 1 16 35
M  V30 39 1 16 36
M  V30 40 1 18 37
M  V30 41 1 19 38
M  V30 42 1 21 39
M  V30 END BOND
M  V30 END CTAB
M  END
>  <Dataset>  (50) 
ChEMBL_Kinases

>  <Ligand_Instance>  (50) 
nan

>  <PDB_ID>  (50) 
nan

>  <Standardized_SMILES>  (50) 
Clc1cnccc1-c1nc(NC2CCCC2)c2ccncc2n1

>  <Name>  (50) 
nan

>  <Pocket>  (50) 
nan

>  <ATP_Site>  (50) 
nan

>  <Peripheral>  (50) 
nan

>  <Num_H_Atoms_ProtBoundConf>  (50) 
nan

>  <Num_Resolved_Atoms>  (50) 
nan

>  <Num_Not_Resolved_Atoms>  (50) 
nan

$$$$
CHEMBL469507
     RDKit          3D

  0  0  0  0  0  0  0  0  0  0999 V3000
M  V30 BEGIN CTAB
M  V30 COUNTS 41 44 0 0 0
M  V30 BEGIN ATOM
M  V30 1 C -2.424926 -4.384653 1.103426 0
M  V30 2 O -1.228524 -4.874436 0.541471 0
M  V30 3 C -0.068886 -4.133829 0.698503 0
M  V30 4 C -0.000390 -2.925905 1.380202 0
M  V30 5 C 1.186276 -2.240385 1.499070 0
M  V30 6 C 2.366416 -2.698422 0.958739 0
M  V30 7 C 3.707771 -2.088250 0.988839 0
M  V30 8 S 3.956349 -1.047891 -0.472012 0
M  V30 9 C 2.840441 0.343113 -0.373153 0
M  V30 10 N 2.941192 1.188948 -1.428305 0
M  V30 11 N 2.046422 2.164806 -1.198955 0
M  V30 12 C 1.414304 1.924849 -0.035912 0
M  V30 13 C 0.368008 2.680872 0.646778 0
M  V30 14 C -0.098182 2.188850 1.846534 0
M  V30 15 C -1.092563 2.818416 2.590329 0
M  V30 16 C -1.590601 3.981150 2.046864 0
M  V30 17 N -2.534758 4.852949 2.456896 0
M  V30 18 N -2.657513 5.832661 1.573476 0
M  V30 19 C -1.804674 5.650512 0.548740 0
M  V30 20 C -1.132895 4.483252 0.848387 0
M  V30 21 C -0.153137 3.849149 0.130367 0
M  V30 22 O 1.927594 0.812105 0.428218 0
M  V30 23 C 2.334684 -3.910750 0.266079 0
M  V30 24 C 1.115478 -4.586558 0.160486 0
M  V30 25 C 1.077850 -5.885433 -0.581677 0
M  V30 26 F 0.209070 -5.828319 -1.666024 0
M  V30 27 F 2.330911 -6.164446 -1.117176 0
M  V30 28 F 0.696891 -6.938415 0.203671 0
M  V30 29 H -2.228504 -4.036148 2.128668 0
M  V30 30 H -3.215699 -5.175522 1.164284 0
M  V30 31 H -2.820616 -3.504974 0.531132 0
M  V30 32 H -0.901001 -2.524811 1.821506 0
M  V30 33 H 1.278755 -1.301292 2.024746 0
M  V30 34 H 3.687809 -1.368609 1.859582 0
M  V30 35 H 4.517516 -2.809941 1.146568 0
M  V30 36 H 0.283900 1.268238 2.294324 0
M  V30 37 H -1.456130 2.428351 3.532755 0
M  V30 38 H -3.075797 4.747716 3.345820 0
M  V30 39 H -1.693082 6.300356 -0.313746 0
M  V30 40 H 0.245477 4.197497 -0.817479 0
M  V30 41 H 3.197600 -4.380852 -0.206939 0
M  V30 END ATOM
M  V30 BEGIN BOND
M  V30 1 1 1 2
M  V30 2 1 2 3
M  V30 3 2 3 4
M  V30 4 1 4 5
M  V30 5 2 5 6
M  V30 6 1 6 7
M  V30 7 1 7 8
M  V30 8 1 8 9
M  V30 9 2 9 10
M  V30 10 1 10 11
M  V30 11 2 11 12
M  V30 12 1 12 13
M  V30 13 2 13 14
M  V30 14 1 14 15
M  V30 15 2 15 16
M  V30 16 1 16 17
M  V30 17 1 17 18
M  V30 18 2 18 19
M  V30 19 1 19 20
M  V30 20 2 20 21
M  V30 21 1 12 22
M  V30 22 1 6 23
M  V30 23 2 23 24
M  V30 24 1 24 25
M  V30 25 1 25 26
M  V30 26 1 25 27
M  V30 27 1 25 28
M  V30 28 1 24 3
M  V30 29 1 22 9
M  V30 30 1 21 13
M  V30 31 1 20 16
M  V30 32 1 1 29
M  V30 33 1 1 30
M  V30 34 1 1 31
M  V30 35 1 4 32
M  V30 36 1 5 33
M  V30 37 1 7 34
M  V30 38 1 7 35
M  V30 39 1 14 36
M  V30 40 1 15 37
M  V30 41 1 17 38
M  V30 42 1 19 39
M  V30 43 1 21 40
M  V30 44 1 23 41
M  V30 END BOND
M  V30 END CTAB
M  END
>  <Dataset>  (51) 
ChEMBL_Kinases

>  <Ligand_Instance>  (51) 
nan

>  <PDB_ID>  (51) 
nan

>  <Standardized_SMILES>  (51) 
COc1ccc(CSc2nnc(-c3ccc4[nH]ncc4c3)o2)cc1C(F)(F)F

>  <Name>  (51) 
nan

>  <Pocket>  (51) 
nan

>  <ATP_Site>  (51) 
nan

>  <Peripheral>  (51) 
nan

>  <Num_H_Atoms_ProtBoundConf>  (51) 
nan

>  <Num_Resolved_Atoms>  (51) 
nan

>  <Num_Not_Resolved_Atoms>  (51) 
nan

$$$$
CHEMBL469508
     RDKit          3D

  0  0  0  0  0  0  0  0  0  0999 V3000
M  V30 BEGIN CTAB
M  V30 COUNTS 43 46 0 0 0
M  V30 BEGIN ATOM
M  V30 1 C -0.838793 -3.606762 3.418617 0
M  V30 2 O -0.130637 -3.995490 2.284172 0
M  V30 3 C 0.982315 -3.366153 1.750495 0
M  V30 4 C 1.642370 -2.237295 2.196030 0
M  V30 5 C 2.743816 -1.758749 1.521229 0
M  V30 6 C 3.224993 -2.370776 0.398174 0
M  V30 7 C 4.417686 -1.905766 -0.394343 0
M  V30 8 S 3.897704 -0.752217 -1.695056 0
M  V30 9 C 3.271317 0.775928 -0.965960 0
M  V30 10 N 3.795394 1.959584 -0.602729 0
M  V30 11 N 2.777011 2.676733 -0.115610 0
M  V30 12 C 1.639760 1.935549 -0.181160 0
M  V30 13 C 0.345939 2.472354 0.289824 0
M  V30 14 C 0.199775 3.742886 0.808378 0
M  V30 15 C -1.068787 4.133829 1.222195 0
M  V30 16 C -2.109873 3.237761 1.094251 0
M  V30 17 N -3.343580 3.652613 1.509655 0
M  V30 18 C -4.427832 2.827861 1.417909 0
M  V30 19 C -4.239752 1.564792 0.893884 0
M  V30 20 C -3.019840 1.090268 0.458299 0
M  V30 21 C -1.960854 1.967826 0.575340 0
M  V30 22 C -0.690895 1.559199 0.154453 0
M  V30 23 O 1.985207 0.779945 -0.707127 0
M  V30 24 C 2.558751 -3.496255 -0.036906 0
M  V30 25 C 1.444142 -4.022071 0.603457 0
M  V30 26 C 0.837057 -5.234270 0.013632 0
M  V30 27 F 1.515234 -5.656247 -1.128868 0
M  V30 28 F -0.471495 -4.980512 -0.405888 0
M  V30 29 F 0.785453 -6.251981 0.936302 0
M  V30 30 H -0.935025 -4.432863 4.183874 0
M  V30 31 H -1.888786 -3.312971 3.188933 0
M  V30 32 H -0.351597 -2.761186 3.934674 0
M  V30 33 H 1.225411 -1.797150 3.078023 0
M  V30 34 H 3.246971 -0.884594 1.874570 0
M  V30 35 H 5.186048 -1.431767 0.273483 0
M  V30 36 H 4.879087 -2.778359 -0.900229 0
M  V30 37 H 1.109975 4.352450 0.853387 0
M  V30 38 H -1.161922 5.128364 1.623743 0
M  V30 39 H -5.397676 3.192197 1.759457 0
M  V30 40 H -5.138808 0.931046 0.837307 0
M  V30 41 H -2.911172 0.093259 0.053420 0
M  V30 42 H -0.587645 0.576278 -0.244302 0
M  V30 43 H 2.938516 -3.996669 -0.940199 0
M  V30 END ATOM
M  V30 BEGIN BOND
M  V30 1 1 1 2
M  V30 2 1 2 3
M  V30 3 2 3 4
M  V30 4 1 4 5
M  V30 5 2 5 6
M  V30 6 1 6 7
M  V30 7 1 7 8
M  V30 8 1 8 9
M  V30 9 2 9 10
M  V30 10 1 10 11
M  V30 11 2 11 12
M  V30 12 1 12 13
M  V30 13 2 13 14
M  V30 14 1 14 15
M  V30 15 2 15 16
M  V30 16 1 16 17
M  V30 17 2 17 18
M  V30 18 1 18 19
M  V30 19 2 19 20
M  V30 20 1 20 21
M  V30 21 2 21 22
M  V30 22 1 12 23
M  V30 23 1 6 24
M  V30 24 2 24 25
M  V30 25 1 25 26
M  V30 26 1 26 27
M  V30 27 1 26 28
M  V30 28 1 26 29
M  V30 29 1 25 3
M  V30 30 1 23 9
M  V30 31 1 22 13
M  V30 32 1 21 16
M  V30 33 1 1 30
M  V30 34 1 1 31
M  V30 35 1 1 32
M  V30 36 1 4 33
M  V30 37 1 5 34
M  V30 38 1 7 35
M  V30 39 1 7 36
M  V30 40 1 14 37
M  V30 41 1 15 38
M  V30 42 1 18 39
M  V30 43 1 19 40
M  V30 44 1 20 41
M  V30 45 1 22 42
M  V30 46 1 24 43
M  V30 END BOND
M  V30 END CTAB
M  END
>  <Dataset>  (52) 
ChEMBL_Kinases

>  <Ligand_Instance>  (52) 
nan

>  <PDB_ID>  (52) 
nan

>  <Standardized_SMILES>  (52) 
COc1ccc(CSc2nnc(-c3ccc4ncccc4c3)o2)cc1C(F)(F)F

>  <Name>  (52) 
nan

>  <Pocket>  (52) 
nan

>  <ATP_Site>  (52) 
nan

>  <Peripheral>  (52) 
nan

>  <Num_H_Atoms_ProtBoundConf>  (52) 
nan

>  <Num_Resolved_Atoms>  (52) 
nan

>  <Num_Not_Resolved_Atoms>  (52) 
nan

$$$$
CHEMBL4474153
     RDKit          3D

  0  0  0  0  0  0  0  0  0  0999 V3000
M  V30 BEGIN CTAB
M  V30 COUNTS 37 39 0 0 0
M  V30 BEGIN ATOM
M  V30 1 C 1.645400 -6.466826 -2.260763 0
M  V30 2 O 2.528403 -5.607519 -1.534241 0
M  V30 3 C 2.091917 -4.714630 -0.595262 0
M  V30 4 O 0.839996 -4.879219 -0.586662 0
M  V30 5 N 2.893317 -3.826650 0.170249 0
M  V30 6 C 2.116034 -3.027782 1.060976 0
M  V30 7 C 1.856748 -3.475704 2.362176 0
M  V30 8 C 1.106710 -2.741554 3.261889 0
M  V30 9 C 0.587251 -1.514454 2.870905 0
M  V30 10 C 0.831257 -1.053560 1.592384 0
M  V30 11 C 1.581886 -1.803727 0.712803 0
M  V30 12 C 0.169564 0.234937 1.478068 0
M  V30 13 C 0.083274 1.050680 0.451212 0
M  V30 14 C -0.565935 2.341434 0.316023 0
M  V30 15 C -0.507491 3.489482 1.071964 0
M  V30 16 C -1.233014 4.614913 0.799755 0
M  V30 17 C -2.090438 4.653486 -0.290122 0
M  V30 18 O -2.782802 5.835147 -0.486263 0
M  V30 19 C -2.196431 3.539547 -1.090330 0
M  V30 20 C -1.442183 2.430132 -0.769341 0
M  V30 21 C -0.494827 0.559075 2.728225 0
M  V30 22 O -1.178775 1.547845 3.083717 0
M  V30 23 N -0.212560 -0.564445 3.588163 0
M  V30 24 H 0.988153 -5.775676 -2.857303 0
M  V30 25 H 2.190843 -7.194698 -2.862258 0
M  V30 26 H 0.957149 -6.928581 -1.497538 0
M  V30 27 H 3.924591 -3.875725 -0.016944 0
M  V30 28 H 2.239542 -4.410163 2.691876 0
M  V30 29 H 0.914271 -3.100446 4.264518 0
M  V30 30 H 1.748661 -1.414555 -0.268229 0
M  V30 31 H 0.588870 0.700321 -0.462734 0
M  V30 32 H 0.183715 3.449024 1.899941 0
M  V30 33 H -1.084414 5.450619 1.489883 0
M  V30 34 H -3.685004 6.016515 -0.052461 0
M  V30 35 H -2.864607 3.574133 -1.937602 0
M  V30 36 H -1.593704 1.603697 -1.458831 0
M  V30 37 H -0.537719 -0.671496 4.575130 0
M  V30 END ATOM
M  V30 BEGIN BOND
M  V30 1 1 1 2
M  V30 2 1 2 3
M  V30 3 2 3 4
M  V30 4 1 3 5
M  V30 5 1 5 6
M  V30 6 2 6 7
M  V30 7 1 7 8
M  V30 8 2 8 9
M  V30 9 1 9 10
M  V30 10 2 10 11
M  V30 11 1 10 12
M  V30 12 2 12 13
M  V30 13 1 13 14
M  V30 14 2 14 15
M  V30 15 1 15 16
M  V30 16 2 16 17
M  V30 17 1 17 18
M  V30 18 1 17 19
M  V30 19 2 19 20
M  V30 20 1 12 21
M  V30 21 2 21 22
M  V30 22 1 21 23
M  V30 23 1 11 6
M  V30 24 1 20 14
M  V30 25 1 23 9
M  V30 26 1 1 24
M  V30 27 1 1 25
M  V30 28 1 1 26
M  V30 29 1 5 27
M  V30 30 1 7 28
M  V30 31 1 8 29
M  V30 32 1 11 30
M  V30 33 1 13 31
M  V30 34 1 15 32
M  V30 35 1 16 33
M  V30 36 1 18 34
M  V30 37 1 19 35
M  V30 38 1 20 36
M  V30 39 1 23 37
M  V30 END BOND
M  V30 END CTAB
M  END
>  <Dataset>  (53) 
ChEMBL_Kinases

>  <Ligand_Instance>  (53) 
nan

>  <PDB_ID>  (53) 
nan

>  <Standardized_SMILES>  (53) 
COC(=O)Nc1ccc2c(c1)/C(=C/c1ccc(O)cc1)C(=O)N2

>  <Name>  (53) 
nan

>  <Pocket>  (53) 
nan

>  <ATP_Site>  (53) 
nan

>  <Peripheral>  (53) 
nan

>  <Num_H_Atoms_ProtBoundConf>  (53) 
nan

>  <Num_Resolved_Atoms>  (53) 
nan

>  <Num_Not_Resolved_Atoms>  (53) 
nan

$$$$
CHEMBL4474103
     RDKit          3D

  0  0  0  0  0  0  0  0  0  0999 V3000
M  V30 BEGIN CTAB
M  V30 COUNTS 47 51 0 0 0
M  V30 BEGIN ATOM
M  V30 1 O 2.458850 1.897360 4.092007 0
M  V30 2 S 2.212421 1.279923 2.718945 0
M  V30 3 O 1.703267 -0.112496 3.003835 0
M  V30 4 C 3.730645 1.126295 1.933384 0
M  V30 5 C 4.876790 1.703834 2.505437 0
M  V30 6 C 6.153349 1.704002 2.008951 0
M  V30 7 C 6.353272 1.065244 0.805140 0
M  V30 8 F 7.571457 1.017131 0.245099 0
M  V30 9 C 5.298083 0.463968 0.157018 0
M  V30 10 C 4.056687 0.521970 0.743459 0
M  V30 11 F 3.057392 -0.107630 0.093490 0
M  V30 12 N 1.133367 2.251337 1.904087 0
M  V30 13 C 0.677122 1.949171 0.620754 0
M  V30 14 C -0.206243 0.786022 0.443073 0
M  V30 15 C -1.154332 0.625216 1.611865 0
M  V30 16 C -0.972315 1.543618 2.560518 0
M  V30 17 S -2.210261 1.129874 3.801812 0
M  V30 18 C -2.835966 -0.236179 2.903932 0
M  V30 19 N -3.852897 -1.095515 3.240207 0
M  V30 20 C -4.208816 -2.098850 2.432898 0
M  V30 21 N -3.500729 -2.181666 1.302127 0
M  V30 22 C -2.507288 -1.357777 0.953132 0
M  V30 23 N -1.926759 -1.678722 -0.300741 0
M  V30 24 C -2.384717 -2.770000 -1.088301 0
M  V30 25 C -2.912161 -2.832264 -2.357357 0
M  V30 26 C -3.288955 -4.050229 -2.899200 0
M  V30 27 C -3.149894 -5.227271 -2.193961 0
M  V30 28 Cl -3.648345 -6.736614 -2.942460 0
M  V30 29 C -2.621904 -5.180122 -0.919123 0
M  V30 30 C -2.237256 -3.955476 -0.360021 0
M  V30 31 F -1.742387 -4.101020 0.893658 0
M  V30 32 C -2.114250 -0.312817 1.761149 0
M  V30 33 C -0.013423 2.681408 2.685869 0
M  V30 34 H 4.774548 2.228175 3.469464 0
M  V30 35 H 6.965982 2.167658 2.510034 0
M  V30 36 H 5.444745 -0.034345 -0.778453 0
M  V30 37 H 1.505610 1.963099 -0.104681 0
M  V30 38 H 0.055135 2.858273 0.286750 0
M  V30 39 H 0.400329 -0.120535 0.276123 0
M  V30 40 H -0.847676 0.903853 -0.478876 0
M  V30 41 H -5.008489 -2.758430 2.718441 0
M  V30 42 H -1.186507 -1.385367 -0.966526 0
M  V30 43 H -2.968263 -1.852326 -2.799006 0
M  V30 44 H -3.694504 -3.987881 -3.908998 0
M  V30 45 H -2.538151 -6.133527 -0.418499 0
M  V30 46 H -0.382618 3.614640 2.237534 0
M  V30 47 H 0.276141 2.880716 3.717604 0
M  V30 END ATOM
M  V30 BEGIN BOND
M  V30 1 2 1 2
M  V30 2 2 2 3
M  V30 3 1 2 4
M  V30 4 2 4 5
M  V30 5 1 5 6
M  V30 6 2 6 7
M  V30 7 1 7 8
M  V30 8 1 7 9
M  V30 9 2 9 10
M  V30 10 1 10 11
M  V30 11 1 2 12
M  V30 12 1 12 13
M  V30 13 1 13 14
M  V30 14 1 14 15
M  V30 15 2 15 16
M  V30 16 1 16 17
M  V30 17 1 17 18
M  V30 18 2 18 19
M  V30 19 1 19 20
M  V30 20 2 20 21
M  V30 21 1 21 22
M  V30 22 1 22 23
M  V30 23 1 23 24
M  V30 24 2 24 25
M  V30 25 1 25 26
M  V30 26 2 26 27
M  V30 27 1 27 28
M  V30 28 1 27 29
M  V30 29 2 29 30
M  V30 30 1 30 31
M  V30 31 2 22 32
M  V30 32 1 16 33
M  V30 33 1 10 4
M  V30 34 1 33 12
M  V30 35 1 32 15
M  V30 36 1 32 18
M  V30 37 1 30 24
M  V30 38 1 5 34
M  V30 39 1 6 35
M  V30 40 1 9 36
M  V30 41 1 13 37
M  V30 42 1 13 38
M  V30 43 1 14 39
M  V30 44 1 14 40
M  V30 45 1 20 41
M  V30 46 1 23 42
M  V30 47 1 25 43
M  V30 48 1 26 44
M  V30 49 1 29 45
M  V30 50 1 33 46
M  V30 51 1 33 47
M  V30 END BOND
M  V30 END CTAB
M  END
>  <Dataset>  (54) 
ChEMBL_Kinases

>  <Ligand_Instance>  (54) 
nan

>  <PDB_ID>  (54) 
nan

>  <Standardized_SMILES>  (54) 
O=S(=O)(c1ccc(F)cc1F)N1CCc2c(sc3ncnc(Nc4ccc(Cl)cc4F)c23)C1

>  <Name>  (54) 
nan

>  <Pocket>  (54) 
nan

>  <ATP_Site>  (54) 
nan

>  <Peripheral>  (54) 
nan

>  <Num_H_Atoms_ProtBoundConf>  (54) 
nan

>  <Num_Resolved_Atoms>  (54) 
nan

>  <Num_Not_Resolved_Atoms>  (54) 
nan

$$$$
CHEMBL4474655
     RDKit          3D

  0  0  0  0  0  0  0  0  0  0999 V3000
M  V30 BEGIN CTAB
M  V30 COUNTS 43 46 0 0 0
M  V30 BEGIN ATOM
M  V30 1 F 1.002712 -4.598777 3.693757 0
M  V30 2 C 1.228742 -3.437597 4.390043 0
M  V30 3 F 0.095450 -3.172827 5.144715 0
M  V30 4 F 2.256653 -3.609423 5.316975 0
M  V30 5 C 1.605468 -2.340044 3.485169 0
M  V30 6 C 2.837359 -1.745418 3.647863 0
M  V30 7 N 3.271289 -0.744930 2.872160 0
M  V30 8 C 2.506775 -0.244587 1.855735 0
M  V30 9 N 3.019167 0.814133 1.066744 0
M  V30 10 C 2.365774 1.466758 -0.032149 0 CFG=1
M  V30 11 C 1.974134 0.618424 -1.180452 0
M  V30 12 C 0.891468 1.298775 -1.975094 0
M  V30 13 C 1.015524 2.802043 -1.966413 0
M  V30 14 N 1.011713 3.342961 -0.621790 0
M  V30 15 C 1.178726 2.310578 0.384797 0
M  V30 16 N 1.309583 -0.808002 1.682509 0
M  V30 17 C 0.840490 -1.827907 2.456234 0
M  V30 18 C -0.476703 -2.407785 2.225757 0
M  V30 19 N -1.123507 -3.393195 2.859083 0
M  V30 20 N -2.308297 -3.646063 2.363631 0
M  V30 21 C -2.538075 -2.823490 1.337837 0
M  V30 22 C -3.633061 -2.709301 0.508336 0
M  V30 23 C -3.599502 -1.756126 -0.487369 0
M  V30 24 C -2.482893 -0.958849 -0.616830 0
M  V30 25 C -1.413319 -1.110965 0.236752 0
M  V30 26 C -1.387978 -2.050156 1.255706 0
M  V30 27 H 3.523855 -2.048603 4.406694 0
M  V30 28 H 3.999679 1.148228 1.335961 0
M  V30 29 H 3.110817 2.215673 -0.444274 0
M  V30 30 H 2.864284 0.525319 -1.871875 0
M  V30 31 H 1.584411 -0.392069 -0.923036 0
M  V30 32 H 0.903935 0.990174 -3.043088 0
M  V30 33 H -0.137712 1.080248 -1.625318 0
M  V30 34 H 0.101127 3.193407 -2.463392 0
M  V30 35 H 1.870529 3.168056 -2.571122 0
M  V30 36 H 1.844467 3.973652 -0.548137 0
M  V30 37 H 1.447502 2.843718 1.319874 0
M  V30 38 H 0.276432 1.708167 0.466963 0
M  V30 39 H -2.958455 -4.378176 2.724577 0
M  V30 40 H -4.495328 -3.349343 0.634254 0
M  V30 41 H -4.430747 -1.628438 -1.160733 0
M  V30 42 H -2.437057 -0.207840 -1.388896 0
M  V30 43 H -0.540462 -0.489787 0.136636 0
M  V30 END ATOM
M  V30 BEGIN BOND
M  V30 1 1 1 2
M  V30 2 1 2 3
M  V30 3 1 2 4
M  V30 4 1 2 5
M  V30 5 2 5 6
M  V30 6 1 6 7
M  V30 7 2 7 8
M  V30 8 1 8 9
M  V30 9 1 9 10
M  V30 10 1 10 11
M  V30 11 1 11 12
M  V30 12 1 12 13
M  V30 13 1 13 14
M  V30 14 1 14 15
M  V30 15 1 8 16
M  V30 16 2 16 17
M  V30 17 1 17 18
M  V30 18 2 18 19
M  V30 19 1 19 20
M  V30 20 1 20 21
M  V30 21 2 21 22
M  V30 22 1 22 23
M  V30 23 2 23 24
M  V30 24 1 24 25
M  V30 25 2 25 26
M  V30 26 1 17 5
M  V30 27 1 26 18
M  V30 28 1 15 10
M  V30 29 1 26 21
M  V30 30 1 6 27
M  V30 31 1 9 28
M  V30 32 1 10 29 CFG=3
M  V30 33 1 11 30
M  V30 34 1 11 31
M  V30 35 1 12 32
M  V30 36 1 12 33
M  V30 37 1 13 34
M  V30 38 1 13 35
M  V30 39 1 14 36
M  V30 40 1 15 37
M  V30 41 1 15 38
M  V30 42 1 20 39
M  V30 43 1 22 40
M  V30 44 1 23 41
M  V30 45 1 24 42
M  V30 46 1 25 43
M  V30 END BOND
M  V30 END CTAB
M  END
>  <Dataset>  (55) 
ChEMBL_Kinases

>  <Ligand_Instance>  (55) 
nan

>  <PDB_ID>  (55) 
nan

>  <Standardized_SMILES>  (55) 
FC(F)(F)c1cnc(N[C@H]2CCCNC2)nc1-c1n[nH]c2ccccc12

>  <Name>  (55) 
nan

>  <Pocket>  (55) 
nan

>  <ATP_Site>  (55) 
nan

>  <Peripheral>  (55) 
nan

>  <Num_H_Atoms_ProtBoundConf>  (55) 
nan

>  <Num_Resolved_Atoms>  (55) 
nan

>  <Num_Not_Resolved_Atoms>  (55) 
nan

$$$$
CHEMBL4648633
     RDKit          3D

  0  0  0  0  0  0  0  0  0  0999 V3000
M  V30 BEGIN CTAB
M  V30 COUNTS 36 39 0 0 0
M  V30 BEGIN ATOM
M  V30 1 C 0.354318 -1.955899 4.426602 0
M  V30 2 C 0.392766 -3.150250 5.092142 0
M  V30 3 S 0.356319 -4.358011 3.676369 0
M  V30 4 C 0.293987 -2.940413 2.423546 0
M  V30 5 C 0.249357 -3.438706 1.019653 0
M  V30 6 C 0.251795 -4.745986 0.649044 0
M  V30 7 N 0.210763 -5.160863 -0.626402 0
M  V30 8 C 0.163664 -4.272947 -1.633299 0
M  V30 9 C 0.158042 -2.926689 -1.337835 0
M  V30 10 C 0.109711 -1.992284 -2.363352 0
M  V30 11 C 0.105488 -0.637380 -2.026330 0
M  V30 12 C 0.149249 -0.239989 -0.681249 0
M  V30 13 O 0.133206 1.141377 -0.662734 0
M  V30 14 C 0.167695 1.868803 0.536273 0 CFG=1
M  V30 15 C 1.343437 2.841432 0.420951 0
M  V30 16 C 0.801516 3.737011 -0.687304 0
M  V30 17 N -0.627850 3.802625 -0.477245 0
M  V30 18 C -0.966104 2.903658 0.581091 0
M  V30 19 C 0.196282 -1.199937 0.299787 0
M  V30 20 C 0.201050 -2.538085 -0.016508 0
M  V30 21 N 0.308589 -2.058410 3.124255 0
M  V30 22 H 0.356226 -0.925503 4.825002 0
M  V30 23 H 0.435068 -3.031069 6.304991 0
M  V30 24 H 0.287615 -5.527820 1.379101 0
M  V30 25 H 0.131184 -4.603957 -2.643742 0
M  V30 26 H 0.078256 -2.389780 -3.367739 0
M  V30 27 H 0.065743 -0.034403 -2.925145 0
M  V30 28 H 0.207631 1.280225 1.447012 0
M  V30 29 H 1.534984 3.393964 1.339816 0
M  V30 30 H 2.257348 2.355762 0.030669 0
M  V30 31 H 1.008930 3.225531 -1.651282 0
M  V30 32 H 1.271504 4.755006 -0.638649 0
M  V30 33 H -1.176010 3.590501 -1.315101 0
M  V30 34 H -1.948888 2.411814 0.463747 0
M  V30 35 H -0.874406 3.417256 1.548483 0
M  V30 36 H 0.225200 -0.723460 1.260365 0
M  V30 END ATOM
M  V30 BEGIN BOND
M  V30 1 2 1 2
M  V30 2 1 2 3
M  V30 3 1 3 4
M  V30 4 1 4 5
M  V30 5 2 5 6
M  V30 6 1 6 7
M  V30 7 2 7 8
M  V30 8 1 8 9
M  V30 9 2 9 10
M  V30 10 1 10 11
M  V30 11 2 11 12
M  V30 12 1 12 13
M  V30 13 1 13 14
M  V30 14 1 14 15
M  V30 15 1 15 16
M  V30 16 1 16 17
M  V30 17 1 17 18
M  V30 18 1 12 19
M  V30 19 2 19 20
M  V30 20 2 4 21
M  V30 21 1 21 1
M  V30 22 1 20 5
M  V30 23 1 20 9
M  V30 24 1 18 14
M  V30 25 1 1 22
M  V30 26 1 2 23
M  V30 27 1 6 24
M  V30 28 1 8 25
M  V30 29 1 10 26
M  V30 30 1 11 27
M  V30 31 1 14 28 CFG=1
M  V30 32 1 15 29
M  V30 33 1 15 30
M  V30 34 1 16 31
M  V30 35 1 16 32
M  V30 36 1 17 33
M  V30 37 1 18 34
M  V30 38 1 18 35
M  V30 39 1 19 36
M  V30 END BOND
M  V30 END CTAB
M  END
>  <Dataset>  (56) 
ChEMBL_Kinases

>  <Ligand_Instance>  (56) 
nan

>  <PDB_ID>  (56) 
nan

>  <Standardized_SMILES>  (56) 
c1csc(-c2cncc3ccc(O[C@H]4CCNC4)cc23)n1

>  <Name>  (56) 
nan

>  <Pocket>  (56) 
nan

>  <ATP_Site>  (56) 
nan

>  <Peripheral>  (56) 
nan

>  <Num_H_Atoms_ProtBoundConf>  (56) 
nan

>  <Num_Resolved_Atoms>  (56) 
nan

>  <Num_Not_Resolved_Atoms>  (56) 
nan

$$$$
CHEMBL4515161
     RDKit          3D

  0  0  0  0  0  0  0  0  0  0999 V3000
M  V30 BEGIN CTAB
M  V30 COUNTS 54 57 0 0 0
M  V30 BEGIN ATOM
M  V30 1 C -0.799754 -4.821202 4.598827 0
M  V30 2 O -0.255908 -4.555263 3.309443 0
M  V30 3 C 0.303887 -3.441118 2.905602 0
M  V30 4 C 0.642074 -2.149706 3.402676 0
M  V30 5 C 1.256423 -1.207780 2.644259 0
M  V30 6 N 1.447762 -0.103763 3.365366 0
M  V30 7 C 2.072127 0.930488 2.711150 0
M  V30 8 N 2.441007 0.790438 1.433799 0
M  V30 9 C 2.217917 -0.371088 0.733389 0
M  V30 10 C 2.632399 -0.482419 -0.692191 0
M  V30 11 C 3.458303 0.759566 -1.013607 0
M  V30 12 C 2.632422 2.030627 -0.956198 0
M  V30 13 N 1.241671 1.793036 -1.046774 0
M  V30 14 C 0.207129 2.321224 -0.276806 0
M  V30 15 O 0.433838 3.158793 0.668770 0
M  V30 16 C -1.216479 2.204897 -0.193303 0
M  V30 17 C -1.610087 0.883556 -0.072052 0
M  V30 18 C -2.862413 0.321129 0.031315 0
M  V30 19 C -3.899782 1.252005 0.008562 0
M  V30 20 O -5.260877 1.015473 0.092759 0
M  V30 21 C -6.079738 0.798269 -1.017706 0
M  V30 22 F -7.362780 0.587155 -0.536937 0
M  V30 23 F -5.670419 -0.247761 -1.785815 0
M  V30 24 F -6.156685 1.898554 -1.866489 0
M  V30 25 C -3.528568 2.604192 -0.113509 0
M  V30 26 N -2.259204 3.078972 -0.210737 0
M  V30 27 C 1.182476 0.872948 -2.132214 0
M  V30 28 C 1.504728 -0.505882 -1.678237 0
M  V30 29 C 1.602098 -1.440409 1.331724 0
M  V30 30 C 1.326057 -2.663149 0.737308 0
M  V30 31 C 0.674999 -3.655569 1.523251 0
M  V30 32 O 0.405226 -4.747823 0.998610 0
M  V30 33 C 0.141162 -5.882441 0.396783 0
M  V30 34 H -0.127991 -4.386534 5.404369 0
M  V30 35 H -1.785843 -4.392567 4.763784 0
M  V30 36 H -0.722017 -5.915782 4.746718 0
M  V30 37 H 0.337459 -2.093123 4.444429 0
M  V30 38 H 2.343251 1.914602 3.055254 0
M  V30 39 H 3.323103 -1.349019 -0.847759 0
M  V30 40 H 3.920119 0.672112 -2.014256 0
M  V30 41 H 4.292694 0.795456 -0.289054 0
M  V30 42 H 2.979290 2.727617 -1.780915 0
M  V30 43 H 2.881047 2.565668 -0.030115 0
M  V30 44 H -0.886928 0.050309 -0.024144 0
M  V30 45 H -3.274165 -0.655703 0.125817 0
M  V30 46 H -4.285599 3.407597 -0.141714 0
M  V30 47 H 0.080827 0.828051 -2.450301 0
M  V30 48 H 1.735801 1.168605 -3.052368 0
M  V30 49 H 0.614926 -1.088787 -1.386666 0
M  V30 50 H 1.882745 -1.059790 -2.605343 0
M  V30 51 H 1.659716 -2.777530 -0.275968 0
M  V30 52 H -0.082186 -6.775954 1.065842 0
M  V30 53 H -0.780972 -5.890317 -0.286012 0
M  V30 54 H 0.924670 -6.294316 -0.313918 0
M  V30 END ATOM
M  V30 BEGIN BOND
M  V30 1 1 1 2
M  V30 2 1 2 3
M  V30 3 2 3 4
M  V30 4 1 4 5
M  V30 5 2 5 6
M  V30 6 1 6 7
M  V30 7 2 7 8
M  V30 8 1 8 9
M  V30 9 1 9 10
M  V30 10 1 10 11
M  V30 11 1 11 12
M  V30 12 1 12 13
M  V30 13 1 13 14
M  V30 14 2 14 15
M  V30 15 1 14 16
M  V30 16 2 16 17
M  V30 17 1 17 18
M  V30 18 2 18 19
M  V30 19 1 19 20
M  V30 20 1 20 21
M  V30 21 1 21 22
M  V30 22 1 21 23
M  V30 23 1 21 24
M  V30 24 1 19 25
M  V30 25 2 25 26
M  V30 26 1 13 27
M  V30 27 1 27 28
M  V30 28 2 9 29
M  V30 29 1 29 30
M  V30 30 2 30 31
M  V30 31 1 31 32
M  V30 32 1 32 33
M  V30 33 1 31 3
M  V30 34 1 29 5
M  V30 35 1 28 10
M  V30 36 1 26 16
M  V30 37 1 1 34
M  V30 38 1 1 35
M  V30 39 1 1 36
M  V30 40 1 4 37
M  V30 41 1 7 38
M  V30 42 1 10 39
M  V30 43 1 11 40
M  V30 44 1 11 41
M  V30 45 1 12 42
M  V30 46 1 12 43
M  V30 47 1 17 44
M  V30 48 1 18 45
M  V30 49 1 25 46
M  V30 50 1 27 47
M  V30 51 1 27 48
M  V30 52 1 28 49
M  V30 53 1 28 50
M  V30 54 1 30 51
M  V30 55 1 33 52
M  V30 56 1 33 53
M  V30 57 1 33 54
M  V30 END BOND
M  V30 END CTAB
M  END
>  <Dataset>  (57) 
ChEMBL_Kinases

>  <Ligand_Instance>  (57) 
nan

>  <PDB_ID>  (57) 
nan

>  <Standardized_SMILES>  (57) 
COc1cc2ncnc(C3CCN(C(=O)c4ccc(OC(F)(F)F)cn4)CC3)c2cc1OC

>  <Name>  (57) 
nan

>  <Pocket>  (57) 
nan

>  <ATP_Site>  (57) 
nan

>  <Peripheral>  (57) 
nan

>  <Num_H_Atoms_ProtBoundConf>  (57) 
nan

>  <Num_Resolved_Atoms>  (57) 
nan

>  <Num_Not_Resolved_Atoms>  (57) 
nan

$$$$
CHEMBL4514925
     RDKit          3D

  0  0  0  0  0  0  0  0  0  0999 V3000
M  V30 BEGIN CTAB
M  V30 COUNTS 45 48 0 0 0
M  V30 BEGIN ATOM
M  V30 1 C -0.441843 -3.726320 2.254336 0
M  V30 2 C -0.588757 -2.339846 1.606126 0 CFG=1
M  V30 3 C 0.399398 -2.294797 0.486201 0
M  V30 4 C 1.811200 -2.593192 0.817934 0
M  V30 5 C 2.483454 -1.761479 1.842976 0
M  V30 6 O 2.491891 -0.430165 1.509963 0
M  V30 7 C 2.990581 0.257823 0.462958 0
M  V30 8 C 3.978358 -0.234017 -0.358689 0
M  V30 9 C 4.364940 0.596370 -1.378812 0
M  V30 10 C 3.882970 1.847272 -1.668771 0
M  V30 11 C 2.886093 2.329849 -0.830073 0
M  V30 12 C 2.457092 1.539691 0.214916 0
M  V30 13 C 1.437661 1.984700 1.159553 0
M  V30 14 O 0.555876 1.498586 0.406004 0
M  V30 15 N 0.125228 2.144366 1.634170 0
M  V30 16 C -1.255794 1.904400 1.411510 0
M  V30 17 C -2.212651 2.887372 1.443110 0
M  V30 18 C -3.488756 2.414708 1.204548 0
M  V30 19 C -3.735452 1.074977 0.961803 0
M  V30 20 C -2.710197 0.161445 0.949612 0
M  V30 21 N -1.466130 0.603640 1.179573 0
M  V30 22 C -2.767555 -1.264058 0.707819 0
M  V30 23 N -3.857779 -1.754603 0.096107 0
M  V30 24 N -3.749753 -3.063698 -0.055243 0
M  V30 25 C -2.555781 -3.358066 0.484951 0
M  V30 26 N -1.922789 -2.238546 0.970587 0
M  V30 27 H -0.193663 -4.498404 1.493012 0
M  V30 28 H 0.334578 -3.622940 3.026278 0
M  V30 29 H -1.373434 -4.044260 2.749358 0
M  V30 30 H -0.464643 -1.611298 2.388999 0
M  V30 31 H 0.285660 -1.285097 -0.008242 0
M  V30 32 H 0.075429 -3.079867 -0.261759 0
M  V30 33 H 1.968260 -3.700666 1.015124 0
M  V30 34 H 2.399641 -2.442965 -0.140044 0
M  V30 35 H 3.553795 -2.131671 1.909065 0
M  V30 36 H 2.062385 -1.948568 2.878968 0
M  V30 37 H 4.424387 -1.187266 -0.226772 0
M  V30 38 H 5.131982 0.264466 -2.052200 0
M  V30 39 H 4.128445 2.553145 -2.439028 0
M  V30 40 H 2.300729 3.234408 -0.788697 0
M  V30 41 H 0.182348 2.677974 2.558410 0
M  V30 42 H -1.866485 3.865708 1.643344 0
M  V30 43 H -4.276249 3.133303 1.216625 0
M  V30 44 H -4.704892 0.682499 0.775482 0
M  V30 45 H -2.250944 -4.417917 0.469054 0
M  V30 END ATOM
M  V30 BEGIN BOND
M  V30 1 1 1 2
M  V30 2 1 2 3
M  V30 3 1 3 4
M  V30 4 1 4 5
M  V30 5 1 5 6
M  V30 6 1 6 7
M  V30 7 2 7 8
M  V30 8 1 8 9
M  V30 9 2 9 10
M  V30 10 1 10 11
M  V30 11 2 11 12
M  V30 12 1 12 13
M  V30 13 2 13 14
M  V30 14 1 13 15
M  V30 15 1 15 16
M  V30 16 1 16 17
M  V30 17 2 17 18
M  V30 18 1 18 19
M  V30 19 2 19 20
M  V30 20 1 20 21
M  V30 21 1 20 22
M  V30 22 2 22 23
M  V30 23 1 23 24
M  V30 24 2 24 25
M  V30 25 1 25 26
M  V30 26 1 26 2
M  V30 27 1 12 7
M  V30 28 2 21 16
M  V30 29 1 26 22
M  V30 30 1 1 27
M  V30 31 1 1 28
M  V30 32 1 1 29
M  V30 33 1 2 30 CFG=1
M  V30 34 1 3 31
M  V30 35 1 3 32
M  V30 36 1 4 33
M  V30 37 1 4 34
M  V30 38 1 5 35
M  V30 39 1 5 36
M  V30 40 1 8 37
M  V30 41 1 9 38
M  V30 42 1 10 39
M  V30 43 1 11 40
M  V30 44 1 15 41
M  V30 45 1 17 42
M  V30 46 1 18 43
M  V30 47 1 19 44
M  V30 48 1 25 45
M  V30 END BOND
M  V30 END CTAB
M  END
>  <Dataset>  (58) 
ChEMBL_Kinases

>  <Ligand_Instance>  (58) 
nan

>  <PDB_ID>  (58) 
nan

>  <Standardized_SMILES>  (58) 
C[C@H]1CCCOc2ccccc2C(=O)Nc2cccc(n2)-c2nncn21

>  <Name>  (58) 
nan

>  <Pocket>  (58) 
nan

>  <ATP_Site>  (58) 
nan

>  <Peripheral>  (58) 
nan

>  <Num_H_Atoms_ProtBoundConf>  (58) 
nan

>  <Num_Resolved_Atoms>  (58) 
nan

>  <Num_Not_Resolved_Atoms>  (58) 
nan

$$$$
CHEMBL4514819
     RDKit          3D

  0  0  0  0  0  0  0  0  0  0999 V3000
M  V30 BEGIN CTAB
M  V30 COUNTS 54 57 0 0 0
M  V30 BEGIN ATOM
M  V30 1 N 5.810643 -5.794293 1.800511 0
M  V30 2 C 4.860076 -5.152870 1.644659 0
M  V30 3 C 3.626899 -4.349396 1.445502 0
M  V30 4 C 4.087176 -2.961112 1.127805 0
M  V30 5 C 3.774664 -2.583479 -0.324877 0
M  V30 6 N 2.329931 -2.730899 -0.374015 0
M  V30 7 C 1.441546 -1.626635 -0.279222 0
M  V30 8 C 1.976900 -0.404921 0.050705 0
M  V30 9 C 1.098320 0.655369 0.130748 0
M  V30 10 C -0.261069 0.596521 -0.089599 0
M  V30 11 O -1.185901 1.578760 -0.032841 0
M  V30 12 C -1.174897 2.917061 0.244538 0
M  V30 13 C -0.721725 3.345133 1.569553 0
M  V30 14 C 0.490323 3.764448 2.037271 0
M  V30 15 C 0.734272 4.118740 3.342796 0
M  V30 16 C -0.257969 4.072017 4.289051 0
M  V30 17 C -1.498434 3.659770 3.884337 0
M  V30 18 C -1.706947 3.312011 2.567686 0
M  V30 19 C -0.782839 -0.649831 -0.422442 0
M  V30 20 C -2.157155 -1.037849 -0.712655 0
M  V30 21 O -2.512456 -2.220247 -1.006616 0
M  V30 22 N -3.327669 -0.242550 -0.732056 0
M  V30 23 C -4.448709 -1.072980 -1.072652 0
M  V30 24 C -4.915902 -1.323461 -2.349161 0
M  V30 25 C -6.010768 -2.153120 -2.461452 0
M  V30 26 N -6.619948 -2.709153 -1.403699 0
M  V30 27 N -6.155572 -2.455208 -0.193895 0
M  V30 28 C -5.098547 -1.662325 0.010664 0
M  V30 29 C 0.104296 -1.732650 -0.505941 0
M  V30 30 C 2.012304 -4.138942 -0.518164 0
M  V30 31 C 2.725870 -5.005713 0.468239 0
M  V30 32 H 3.138206 -4.325319 2.442559 0
M  V30 33 H 3.535777 -2.217670 1.749754 0
M  V30 34 H 5.165994 -2.792442 1.347392 0
M  V30 35 H 4.148683 -1.587804 -0.536991 0
M  V30 36 H 4.318367 -3.307368 -0.972747 0
M  V30 37 H 3.003537 -0.168830 0.259327 0
M  V30 38 H 1.475006 1.633883 0.381612 0
M  V30 39 H -2.225882 3.299500 0.102406 0
M  V30 40 H -0.560261 3.507204 -0.494907 0
M  V30 41 H 1.260197 3.801748 1.266296 0
M  V30 42 H 1.756052 4.426093 3.531399 0
M  V30 43 H 0.036350 4.368651 5.277184 0
M  V30 44 H -2.282260 3.621412 4.624630 0
M  V30 45 H -2.730611 2.998624 2.353930 0
M  V30 46 H -3.200339 0.758791 -0.510047 0
M  V30 47 H -4.381655 -0.846445 -3.150743 0
M  V30 48 H -6.370573 -2.344763 -3.459969 0
M  V30 49 H -4.777659 -1.502315 1.030181 0
M  V30 50 H -0.217331 -2.742329 -0.761563 0
M  V30 51 H 0.935257 -4.365091 -0.567037 0
M  V30 52 H 2.371701 -4.374186 -1.565366 0
M  V30 53 H 1.949966 -5.601370 1.009752 0
M  V30 54 H 3.305721 -5.775624 -0.083131 0
M  V30 END ATOM
M  V30 BEGIN BOND
M  V30 1 3 1 2
M  V30 2 1 2 3
M  V30 3 1 3 4
M  V30 4 1 4 5
M  V30 5 1 5 6
M  V30 6 1 6 7
M  V30 7 2 7 8
M  V30 8 1 8 9
M  V30 9 2 9 10
M  V30 10 1 10 11
M  V30 11 1 11 12
M  V30 12 1 12 13
M  V30 13 2 13 14
M  V30 14 1 14 15
M  V30 15 2 15 16
M  V30 16 1 16 17
M  V30 17 2 17 18
M  V30 18 1 10 19
M  V30 19 1 19 20
M  V30 20 2 20 21
M  V30 21 1 20 22
M  V30 22 1 22 23
M  V30 23 2 23 24
M  V30 24 1 24 25
M  V30 25 2 25 26
M  V30 26 1 26 27
M  V30 27 2 27 28
M  V30 28 2 19 29
M  V30 29 1 6 30
M  V30 30 1 30 31
M  V30 31 1 31 3
M  V30 32 1 29 7
M  V30 33 1 18 13
M  V30 34 1 28 23
M  V30 35 1 3 32
M  V30 36 1 4 33
M  V30 37 1 4 34
M  V30 38 1 5 35
M  V30 39 1 5 36
M  V30 40 1 8 37
M  V30 41 1 9 38
M  V30 42 1 12 39
M  V30 43 1 12 40
M  V30 44 1 14 41
M  V30 45 1 15 42
M  V30 46 1 16 43
M  V30 47 1 17 44
M  V30 48 1 18 45
M  V30 49 1 22 46
M  V30 50 1 24 47
M  V30 51 1 25 48
M  V30 52 1 28 49
M  V30 53 1 29 50
M  V30 54 1 30 51
M  V30 55 1 30 52
M  V30 56 1 31 53
M  V30 57 1 31 54
M  V30 END BOND
M  V30 END CTAB
M  END
>  <Dataset>  (59) 
ChEMBL_Kinases

>  <Ligand_Instance>  (59) 
nan

>  <PDB_ID>  (59) 
nan

>  <Standardized_SMILES>  (59) 
N#CC1CCN(c2ccc(OCc3ccccc3)c(C(=O)Nc3ccnnc3)c2)CC1

>  <Name>  (59) 
nan

>  <Pocket>  (59) 
nan

>  <ATP_Site>  (59) 
nan

>  <Peripheral>  (59) 
nan

>  <Num_H_Atoms_ProtBoundConf>  (59) 
nan

>  <Num_Resolved_Atoms>  (59) 
nan

>  <Num_Not_Resolved_Atoms>  (59) 
nan

$$$$
CHEMBL4514812
     RDKit          3D

  0  0  0  0  0  0  0  0  0  0999 V3000
M  V30 BEGIN CTAB
M  V30 COUNTS 38 41 0 0 0
M  V30 BEGIN ATOM
M  V30 1 O 2.985976 -2.847057 -0.234595 0
M  V30 2 C 2.087503 -3.431862 -0.888401 0
M  V30 3 N 2.291740 -4.743433 -1.388295 0
M  V30 4 C 3.463674 -5.544618 -1.240581 0
M  V30 5 C 4.719347 -4.961843 -1.841201 0
M  V30 6 F 5.790347 -5.849486 -1.629025 0
M  V30 7 F 4.629548 -4.859905 -3.215840 0
M  V30 8 F 5.121277 -3.785247 -1.255454 0
M  V30 9 C 0.811442 -2.721550 -1.125175 0
M  V30 10 C 0.474073 -1.508719 -0.726990 0
M  V30 11 C -0.771837 -1.038421 -1.057851 0
M  V30 12 C -1.334797 0.288895 -0.706288 0
M  V30 13 C -2.027882 1.164015 -1.517212 0
M  V30 14 N -2.324196 2.229111 -0.729702 0
M  V30 15 N -1.856153 2.053195 0.499165 0
M  V30 16 C -1.881135 2.791863 1.630566 0
M  V30 17 C -1.287375 2.331034 2.799238 0
M  V30 18 C -1.284701 3.089751 4.053293 0
M  V30 19 C -0.287621 3.044886 5.011317 0
M  V30 20 N -0.577428 3.852864 6.044204 0
M  V30 21 N -1.749761 4.429018 5.781180 0
M  V30 22 C -2.192372 3.974556 4.573364 0
M  V30 23 C -0.653319 1.091346 2.820239 0
M  V30 24 N -0.654346 0.392619 1.670189 0
M  V30 25 C -1.234042 0.854626 0.548957 0
M  V30 26 C -1.622419 -1.877896 -1.805281 0
M  V30 27 S -0.551738 -3.390665 -2.019173 0
M  V30 28 H 1.461195 -5.125450 -1.918790 0
M  V30 29 H 3.299242 -6.510477 -1.764741 0
M  V30 30 H 3.618783 -5.807614 -0.159467 0
M  V30 31 H 1.146389 -0.884317 -0.153824 0
M  V30 32 H -2.267710 1.001331 -2.561881 0
M  V30 33 H -2.367143 3.758991 1.642375 0
M  V30 34 H 0.641551 2.467760 5.021001 0
M  V30 35 H -2.263998 5.112205 6.375905 0
M  V30 36 H -3.118852 4.236285 4.046110 0
M  V30 37 H -0.167523 0.651966 3.673789 0
M  V30 38 H -2.591018 -1.748895 -2.168942 0
M  V30 END ATOM
M  V30 BEGIN BOND
M  V30 1 2 1 2
M  V30 2 1 2 3
M  V30 3 1 3 4
M  V30 4 1 4 5
M  V30 5 1 5 6
M  V30 6 1 5 7
M  V30 7 1 5 8
M  V30 8 1 2 9
M  V30 9 2 9 10
M  V30 10 1 10 11
M  V30 11 1 11 12
M  V30 12 1 12 13
M  V30 13 2 13 14
M  V30 14 1 14 15
M  V30 15 1 15 16
M  V30 16 2 16 17
M  V30 17 1 17 18
M  V30 18 1 18 19
M  V30 19 2 19 20
M  V30 20 1 20 21
M  V30 21 1 21 22
M  V30 22 1 17 23
M  V30 23 2 23 24
M  V30 24 1 24 25
M  V30 25 2 11 26
M  V30 26 1 26 27
M  V30 27 1 27 9
M  V30 28 2 25 12
M  V30 29 1 25 15
M  V30 30 2 22 18
M  V30 31 1 3 28
M  V30 32 1 4 29
M  V30 33 1 4 30
M  V30 34 1 10 31
M  V30 35 1 13 32
M  V30 36 1 16 33
M  V30 37 1 19 34
M  V30 38 1 21 35
M  V30 39 1 22 36
M  V30 40 1 23 37
M  V30 41 1 26 38
M  V30 END BOND
M  V30 END CTAB
M  END
>  <Dataset>  (60) 
ChEMBL_Kinases

>  <Ligand_Instance>  (60) 
nan

>  <PDB_ID>  (60) 
nan

>  <Standardized_SMILES>  (60) 
O=C(NCC(F)(F)F)c1cc(-c2cnn3cc(-c4cn[nH]c4)cnc23)cs1

>  <Name>  (60) 
nan

>  <Pocket>  (60) 
nan

>  <ATP_Site>  (60) 
nan

>  <Peripheral>  (60) 
nan

>  <Num_H_Atoms_ProtBoundConf>  (60) 
nan

>  <Num_Resolved_Atoms>  (60) 
nan

>  <Num_Not_Resolved_Atoms>  (60) 
nan

$$$$
CHEMBL4648707
     RDKit          3D

  0  0  0  0  0  0  0  0  0  0999 V3000
M  V30 BEGIN CTAB
M  V30 COUNTS 65 68 0 0 0
M  V30 BEGIN ATOM
M  V30 1 C 5.132231 0.690574 5.997880 0
M  V30 2 O 4.038170 -0.081513 6.431960 0
M  V30 3 C 3.078811 -0.657402 5.634901 0
M  V30 4 C 3.062330 -0.550318 4.260276 0
M  V30 5 C 2.087008 -1.135006 3.440204 0
M  V30 6 C 2.213301 -0.930338 2.001264 0
M  V30 7 C 3.515492 -1.144995 1.531626 0
M  V30 8 N 3.868254 -1.012937 0.220300 0
M  V30 9 C 2.895991 -0.653166 -0.667272 0
M  V30 10 C 1.607305 -0.441365 -0.196158 0
M  V30 11 C 0.692019 -0.033282 -1.250322 0
M  V30 12 C -0.108466 1.084179 -1.359418 0
M  V30 13 C -0.931432 1.266767 -2.450760 0
M  V30 14 C -1.015933 0.371768 -3.489851 0
M  V30 15 N -1.878264 0.605445 -4.591458 0
M  V30 16 C -2.745128 1.764942 -4.770289 0
M  V30 17 C -4.197616 1.325895 -4.827489 0
M  V30 18 N -4.285894 -0.127374 -4.809464 0
M  V30 19 C -5.032755 -0.826143 -3.806610 0
M  V30 20 C -5.059979 -2.304191 -3.875766 0
M  V30 21 O -5.497434 0.102806 -3.083521 0
M  V30 22 C -3.500132 -0.549221 -5.948458 0
M  V30 23 C -2.060690 -0.243994 -5.723504 0
M  V30 24 C -0.232258 -0.755244 -3.417852 0
M  V30 25 C 0.604920 -0.941609 -2.307967 0
M  V30 26 C 1.234508 -0.568372 1.104842 0
M  V30 27 C -0.096672 -0.382461 1.643624 0
M  V30 28 C 1.116627 -1.844281 4.110435 0
M  V30 29 C 1.115103 -1.963315 5.484218 0
M  V30 30 O 0.096184 -2.698363 6.072105 0
M  V30 31 C -0.934768 -3.333090 5.400707 0
M  V30 32 C 2.086852 -1.378193 6.269943 0
M  V30 33 O 1.986130 -1.563800 7.641821 0
M  V30 34 C 1.255030 -0.656814 8.469521 0
M  V30 35 H 5.628389 0.291540 5.106202 0
M  V30 36 H 4.782771 1.718860 5.735527 0
M  V30 37 H 5.809142 0.827768 6.869791 0
M  V30 38 H 3.888739 0.039437 3.855568 0
M  V30 39 H 4.357039 -1.434346 2.166700 0
M  V30 40 H 3.205640 -0.556311 -1.697940 0
M  V30 41 H -0.015099 1.778605 -0.541510 0
M  V30 42 H -1.487218 2.178375 -2.386907 0
M  V30 43 H -2.633479 2.530425 -3.994329 0
M  V30 44 H -2.519090 2.258055 -5.751353 0
M  V30 45 H -4.725045 1.690338 -3.925169 0
M  V30 46 H -4.724443 1.700134 -5.714297 0
M  V30 47 H -5.245146 -2.589693 -4.922542 0
M  V30 48 H -5.906735 -2.701336 -3.282958 0
M  V30 49 H -4.142217 -2.764797 -3.450362 0
M  V30 50 H -3.571420 -1.673174 -6.076588 0
M  V30 51 H -3.894107 -0.104278 -6.903088 0
M  V30 52 H -1.405873 -1.138459 -5.760592 0
M  V30 53 H -1.713378 0.364614 -6.616467 0
M  V30 54 H -0.229742 -1.506717 -4.175893 0
M  V30 55 H 1.204008 -1.865861 -2.315859 0
M  V30 56 H -0.749836 0.307004 1.086024 0
M  V30 57 H -0.129727 -0.029981 2.691813 0
M  V30 58 H -0.630753 -1.376046 1.535764 0
M  V30 59 H 0.363198 -2.299466 3.493109 0
M  V30 60 H -0.463276 -3.891078 4.546737 0
M  V30 61 H -1.427026 -4.046528 6.078564 0
M  V30 62 H -1.660775 -2.654072 4.895781 0
M  V30 63 H 0.167534 -0.812386 8.383093 0
M  V30 64 H 1.450646 0.362874 8.034320 0
M  V30 65 H 1.627370 -0.646896 9.502188 0
M  V30 END ATOM
M  V30 BEGIN BOND
M  V30 1 1 1 2
M  V30 2 1 2 3
M  V30 3 2 3 4
M  V30 4 1 4 5
M  V30 5 1 5 6
M  V30 6 2 6 7
M  V30 7 1 7 8
M  V30 8 2 8 9
M  V30 9 1 9 10
M  V30 10 1 10 11
M  V30 11 2 11 12
M  V30 12 1 12 13
M  V30 13 2 13 14
M  V30 14 1 14 15
M  V30 15 1 15 16
M  V30 16 1 16 17
M  V30 17 1 17 18
M  V30 18 1 18 19
M  V30 19 1 19 20
M  V30 20 2 19 21
M  V30 21 1 18 22
M  V30 22 1 22 23
M  V30 23 1 14 24
M  V30 24 2 24 25
M  V30 25 2 10 26
M  V30 26 1 26 27
M  V30 27 2 5 28
M  V30 28 1 28 29
M  V30 29 1 29 30
M  V30 30 1 30 31
M  V30 31 2 29 32
M  V30 32 1 32 33
M  V30 33 1 33 34
M  V30 34 1 32 3
M  V30 35 1 26 6
M  V30 36 1 25 11
M  V30 37 1 23 15
M  V30 38 1 1 35
M  V30 39 1 1 36
M  V30 40 1 1 37
M  V30 41 1 4 38
M  V30 42 1 7 39
M  V30 43 1 9 40
M  V30 44 1 12 41
M  V30 45 1 13 42
M  V30 46 1 16 43
M  V30 47 1 16 44
M  V30 48 1 17 45
M  V30 49 1 17 46
M  V30 50 1 20 47
M  V30 51 1 20 48
M  V30 52 1 20 49
M  V30 53 1 22 50
M  V30 54 1 22 51
M  V30 55 1 23 52
M  V30 56 1 23 53
M  V30 57 1 24 54
M  V30 58 1 25 55
M  V30 59 1 27 56
M  V30 60 1 27 57
M  V30 61 1 27 58
M  V30 62 1 28 59
M  V30 63 1 31 60
M  V30 64 1 31 61
M  V30 65 1 31 62
M  V30 66 1 34 63
M  V30 67 1 34 64
M  V30 68 1 34 65
M  V30 END BOND
M  V30 END CTAB
M  END
>  <Dataset>  (61) 
ChEMBL_Kinases

>  <Ligand_Instance>  (61) 
nan

>  <PDB_ID>  (61) 
nan

>  <Standardized_SMILES>  (61) 
COc1cc(-c2cncc(-c3ccc(N4CCN(C(C)=O)CC4)cc3)c2C)cc(OC)c1OC

>  <Name>  (61) 
nan

>  <Pocket>  (61) 
nan

>  <ATP_Site>  (61) 
nan

>  <Peripheral>  (61) 
nan

>  <Num_H_Atoms_ProtBoundConf>  (61) 
nan

>  <Num_Resolved_Atoms>  (61) 
nan

>  <Num_Not_Resolved_Atoms>  (61) 
nan

$$$$
CHEMBL4514780
     RDKit          3D

  0  0  0  0  0  0  0  0  0  0999 V3000
M  V30 BEGIN CTAB
M  V30 COUNTS 53 56 0 0 0
M  V30 BEGIN ATOM
M  V30 1 C 0.899939 -0.995552 3.170901 0
M  V30 2 C 2.241455 -1.156670 2.495907 0
M  V30 3 C 3.207293 -1.577274 3.618031 0
M  V30 4 C 2.794128 0.160664 1.989471 0
M  V30 5 S 2.202996 -2.373753 1.229539 0
M  V30 6 O 1.691608 -3.656335 1.863076 0
M  V30 7 O 3.586436 -2.662460 0.706976 0
M  V30 8 C 1.114421 -1.926989 -0.042410 0
M  V30 9 C 0.497421 -0.681001 -0.144914 0
M  V30 10 C -0.350451 -0.301530 -1.184245 0
M  V30 11 C -0.914360 0.957452 -1.216285 0
M  V30 12 N -0.663552 1.901443 -0.173618 0
M  V30 13 C -1.492253 2.461908 0.867106 0
M  V30 14 C -0.829244 3.153078 1.858260 0
M  V30 15 C -1.647684 3.696624 2.816384 0
M  V30 16 C -3.026702 3.515986 2.716693 0
M  V30 17 S -4.386372 4.122120 3.829874 0
M  V30 18 C -5.674716 3.275433 2.678536 0
M  V30 19 N -5.004414 2.822262 1.890572 0
M  V30 20 C -3.695701 2.825563 1.730099 0
M  V30 21 C -2.852781 2.274385 0.757702 0
M  V30 22 N -1.711136 1.236907 -2.263694 0
M  V30 23 C -1.971744 0.364346 -3.249425 0
M  V30 24 N -1.417160 -0.881844 -3.223123 0
M  V30 25 C -0.602463 -1.209891 -2.180612 0
M  V30 26 C 0.002168 -2.444896 -2.091800 0
M  V30 27 C 0.843410 -2.855024 -1.082864 0
M  V30 28 O 1.464170 -4.027427 -0.940883 0
M  V30 29 C 1.466699 -5.189929 -1.661326 0
M  V30 30 C 0.196240 -5.991269 -1.677327 0
M  V30 31 O -0.918626 -5.375785 -2.165938 0
M  V30 32 H 0.430979 -2.022713 3.112846 0
M  V30 33 H 0.285475 -0.201142 2.766998 0
M  V30 34 H 1.076396 -0.738379 4.252582 0
M  V30 35 H 4.202449 -1.234373 3.343338 0
M  V30 36 H 3.121800 -2.670258 3.806853 0
M  V30 37 H 2.873833 -1.055036 4.535541 0
M  V30 38 H 2.088134 0.975489 2.232489 0
M  V30 39 H 3.763131 0.436569 2.476276 0
M  V30 40 H 3.028961 0.095432 0.900980 0
M  V30 41 H 0.657173 0.084195 0.574990 0
M  V30 42 H 0.335561 2.162957 -0.289881 0
M  V30 43 H 0.214619 3.303493 1.952722 0
M  V30 44 H -1.367818 4.266468 3.668464 0
M  V30 45 H -6.871413 3.071223 2.513785 0
M  V30 46 H -3.265465 1.708802 -0.073317 0
M  V30 47 H -2.627885 0.700211 -4.039278 0
M  V30 48 H -0.228249 -3.070012 -2.935844 0
M  V30 49 H 1.705793 -5.017946 -2.755851 0
M  V30 50 H 2.257173 -5.913749 -1.267936 0
M  V30 51 H 0.043084 -6.440091 -0.662805 0
M  V30 52 H 0.359311 -6.882256 -2.378154 0
M  V30 53 H -1.546003 -6.033407 -2.587854 0
M  V30 END ATOM
M  V30 BEGIN BOND
M  V30 1 1 1 2
M  V30 2 1 2 3
M  V30 3 1 2 4
M  V30 4 1 2 5
M  V30 5 2 5 6
M  V30 6 2 5 7
M  V30 7 1 5 8
M  V30 8 2 8 9
M  V30 9 1 9 10
M  V30 10 2 10 11
M  V30 11 1 11 12
M  V30 12 1 12 13
M  V30 13 2 13 14
M  V30 14 1 14 15
M  V30 15 2 15 16
M  V30 16 1 16 17
M  V30 17 1 17 18
M  V30 18 2 18 19
M  V30 19 1 19 20
M  V30 20 2 20 21
M  V30 21 1 11 22
M  V30 22 2 22 23
M  V30 23 1 23 24
M  V30 24 2 24 25
M  V30 25 1 25 26
M  V30 26 2 26 27
M  V30 27 1 27 28
M  V30 28 1 28 29
M  V30 29 1 29 30
M  V30 30 1 30 31
M  V30 31 1 27 8
M  V30 32 1 25 10
M  V30 33 1 21 13
M  V30 34 1 20 16
M  V30 35 1 1 32
M  V30 36 1 1 33
M  V30 37 1 1 34
M  V30 38 1 3 35
M  V30 39 1 3 36
M  V30 40 1 3 37
M  V30 41 1 4 38
M  V30 42 1 4 39
M  V30 43 1 4 40
M  V30 44 1 9 41
M  V30 45 1 12 42
M  V30 46 1 14 43
M  V30 47 1 15 44
M  V30 48 1 18 45
M  V30 49 1 21 46
M  V30 50 1 23 47
M  V30 51 1 26 48
M  V30 52 1 29 49
M  V30 53 1 29 50
M  V30 54 1 30 51
M  V30 55 1 30 52
M  V30 56 1 31 53
M  V30 END BOND
M  V30 END CTAB
M  END
>  <Dataset>  (62) 
ChEMBL_Kinases

>  <Ligand_Instance>  (62) 
nan

>  <PDB_ID>  (62) 
nan

>  <Standardized_SMILES>  (62) 
CC(C)(C)S(=O)(=O)c1cc2c(Nc3ccc4scnc4c3)ncnc2cc1OCCO

>  <Name>  (62) 
nan

>  <Pocket>  (62) 
nan

>  <ATP_Site>  (62) 
nan

>  <Peripheral>  (62) 
nan

>  <Num_H_Atoms_ProtBoundConf>  (62) 
nan

>  <Num_Resolved_Atoms>  (62) 
nan

>  <Num_Not_Resolved_Atoms>  (62) 
nan

$$$$
CHEMBL4514653
     RDKit          3D

  0  0  0  0  0  0  0  0  0  0999 V3000
M  V30 BEGIN CTAB
M  V30 COUNTS 40 42 0 0 0
M  V30 BEGIN ATOM
M  V30 1 C 0.506965 -6.271559 1.748067 0
M  V30 2 O -0.003231 -4.994670 1.387822 0
M  V30 3 C 0.693795 -3.853535 1.790422 0
M  V30 4 O 1.751465 -4.025943 2.460433 0
M  V30 5 C 0.019095 -2.587352 1.327126 0
M  V30 6 C 0.795051 -1.371547 1.777000 0
M  V30 7 N 0.243204 -0.114258 1.400284 0
M  V30 8 C 0.588174 0.448485 0.201334 0
M  V30 9 C 1.424838 0.057692 -0.845643 0
M  V30 10 C 1.607832 0.823118 -1.976700 0
M  V30 11 O 2.463572 0.352569 -2.972448 0
M  V30 12 C 2.644414 1.151133 -4.134885 0
M  V30 13 C 0.949607 2.028091 -2.104509 0
M  V30 14 C 0.117301 2.440804 -1.088366 0
M  V30 15 C -0.039493 1.650610 0.023191 0
M  V30 16 C -0.812162 1.864793 1.145847 0
M  V30 17 C -1.640666 2.899763 1.499642 0
M  V30 18 C -2.261386 2.776694 2.719067 0
M  V30 19 N -2.057804 1.709826 3.495361 0
M  V30 20 C -1.246216 0.664670 3.181927 0
M  V30 21 C -1.064515 -0.489294 4.100805 0
M  V30 22 C -0.608436 0.754943 1.966805 0
M  V30 23 H 0.859498 -6.861661 0.881892 0
M  V30 24 H 1.336118 -6.184549 2.498717 0
M  V30 25 H -0.375137 -6.809680 2.202429 0
M  V30 26 H -1.013827 -2.640851 1.671859 0
M  V30 27 H 0.077493 -2.691777 0.197965 0
M  V30 28 H 1.821442 -1.530718 1.305290 0
M  V30 29 H 0.881749 -1.421326 2.874410 0
M  V30 30 H 1.949532 -0.873551 -0.774802 0
M  V30 31 H 3.151095 0.605543 -4.938766 0
M  V30 32 H 1.659294 1.487694 -4.566265 0
M  V30 33 H 3.202961 2.093334 -3.901839 0
M  V30 34 H 1.074777 2.647892 -2.980219 0
M  V30 35 H -0.396760 3.384213 -1.190692 0
M  V30 36 H -1.820641 3.759972 0.901584 0
M  V30 37 H -2.941667 3.501935 3.141770 0
M  V30 38 H -1.308869 -1.462243 3.679682 0
M  V30 39 H -0.146079 -0.429460 4.717838 0
M  V30 40 H -1.878903 -0.338246 4.882393 0
M  V30 END ATOM
M  V30 BEGIN BOND
M  V30 1 1 1 2
M  V30 2 1 2 3
M  V30 3 2 3 4
M  V30 4 1 3 5
M  V30 5 1 5 6
M  V30 6 1 6 7
M  V30 7 1 7 8
M  V30 8 2 8 9
M  V30 9 1 9 10
M  V30 10 1 10 11
M  V30 11 1 11 12
M  V30 12 2 10 13
M  V30 13 1 13 14
M  V30 14 2 14 15
M  V30 15 1 15 16
M  V30 16 2 16 17
M  V30 17 1 17 18
M  V30 18 2 18 19
M  V30 19 1 19 20
M  V30 20 1 20 21
M  V30 21 2 20 22
M  V30 22 1 22 7
M  V30 23 1 15 8
M  V30 24 1 22 16
M  V30 25 1 1 23
M  V30 26 1 1 24
M  V30 27 1 1 25
M  V30 28 1 5 26
M  V30 29 1 5 27
M  V30 30 1 6 28
M  V30 31 1 6 29
M  V30 32 1 9 30
M  V30 33 1 12 31
M  V30 34 1 12 32
M  V30 35 1 12 33
M  V30 36 1 13 34
M  V30 37 1 14 35
M  V30 38 1 17 36
M  V30 39 1 18 37
M  V30 40 1 21 38
M  V30 41 1 21 39
M  V30 42 1 21 40
M  V30 END BOND
M  V30 END CTAB
M  END
>  <Dataset>  (63) 
ChEMBL_Kinases

>  <Ligand_Instance>  (63) 
nan

>  <PDB_ID>  (63) 
nan

>  <Standardized_SMILES>  (63) 
COC(=O)CCn1c2cc(OC)ccc2c2ccnc(C)c21

>  <Name>  (63) 
nan

>  <Pocket>  (63) 
nan

>  <ATP_Site>  (63) 
nan

>  <Peripheral>  (63) 
nan

>  <Num_H_Atoms_ProtBoundConf>  (63) 
nan

>  <Num_Resolved_Atoms>  (63) 
nan

>  <Num_Not_Resolved_Atoms>  (63) 
nan

$$$$
CHEMBL4514630
     RDKit          3D

  0  0  0  0  0  0  0  0  0  0999 V3000
M  V30 BEGIN CTAB
M  V30 COUNTS 39 41 0 0 0
M  V30 BEGIN ATOM
M  V30 1 C 1.565792 -2.679546 1.524162 0
M  V30 2 C 0.116743 -2.937540 1.166062 0
M  V30 3 C -0.006914 -2.914259 -0.330905 0
M  V30 4 O 0.863326 -3.855395 -0.925472 0
M  V30 5 N -0.774477 -1.979735 1.743957 0
M  V30 6 C -0.631725 -0.604662 1.491660 0
M  V30 7 N 0.329589 -0.100492 0.716529 0
M  V30 8 C 0.530266 1.184351 0.435305 0
M  V30 9 C 1.615537 1.628976 -0.427895 0
M  V30 10 C 1.791166 2.971284 -0.694054 0
M  V30 11 C 2.836160 3.334161 -1.518426 0
M  V30 12 N 3.705388 2.449537 -2.085981 0
M  V30 13 C 3.537141 1.143992 -1.829055 0
M  V30 14 C 2.492763 0.730975 -1.000157 0
M  V30 15 N -0.303830 2.089642 0.971953 0
M  V30 16 C -1.329985 1.720943 1.782206 0
M  V30 17 C -2.200537 2.645753 2.344315 0
M  V30 18 N -3.219087 2.231939 3.153384 0
M  V30 19 C -3.388046 0.903496 3.415098 0
M  V30 20 C -2.503443 0.017108 2.838518 0
M  V30 21 C -1.457464 0.367599 2.015208 0
M  V30 22 C -0.165525 -4.369549 1.617982 0
M  V30 23 F -1.468234 -4.677276 1.324652 0
M  V30 24 F 0.652803 -5.177101 0.836444 0
M  V30 25 F 0.183311 -4.584132 2.922299 0
M  V30 26 H 2.145098 -3.613216 1.286143 0
M  V30 27 H 1.971651 -1.796166 1.012481 0
M  V30 28 H 1.676723 -2.543020 2.631991 0
M  V30 29 H -1.026365 -3.267219 -0.600160 0
M  V30 30 H 0.250501 -1.940070 -0.745753 0
M  V30 31 H 0.503919 -4.123031 -1.827234 0
M  V30 32 H -1.507689 -2.403823 2.345902 0
M  V30 33 H 1.137568 3.743521 -0.277951 0
M  V30 34 H 2.946194 4.411067 -1.708667 0
M  V30 35 H 4.217747 0.403495 -2.268694 0
M  V30 36 H 2.412786 -0.331258 -0.834272 0
M  V30 37 H -2.011240 3.683310 2.096726 0
M  V30 38 H -4.201624 0.598500 4.058787 0
M  V30 39 H -2.699027 -1.002964 3.089027 0
M  V30 END ATOM
M  V30 BEGIN BOND
M  V30 1 1 1 2
M  V30 2 1 2 3
M  V30 3 1 3 4
M  V30 4 1 2 5
M  V30 5 1 5 6
M  V30 6 2 6 7
M  V30 7 1 7 8
M  V30 8 1 8 9
M  V30 9 2 9 10
M  V30 10 1 10 11
M  V30 11 2 11 12
M  V30 12 1 12 13
M  V30 13 2 13 14
M  V30 14 2 8 15
M  V30 15 1 15 16
M  V30 16 2 16 17
M  V30 17 1 17 18
M  V30 18 2 18 19
M  V30 19 1 19 20
M  V30 20 2 20 21
M  V30 21 1 2 22
M  V30 22 1 22 23
M  V30 23 1 22 24
M  V30 24 1 22 25
M  V30 25 1 21 6
M  V30 26 1 14 9
M  V30 27 1 21 16
M  V30 28 1 1 26
M  V30 29 1 1 27
M  V30 30 1 1 28
M  V30 31 1 3 29
M  V30 32 1 3 30
M  V30 33 1 4 31
M  V30 34 1 5 32
M  V30 35 1 10 33
M  V30 36 1 11 34
M  V30 37 1 13 35
M  V30 38 1 14 36
M  V30 39 1 17 37
M  V30 40 1 19 38
M  V30 41 1 20 39
M  V30 END BOND
M  V30 END CTAB
M  END
>  <Dataset>  (64) 
ChEMBL_Kinases

>  <Ligand_Instance>  (64) 
nan

>  <PDB_ID>  (64) 
nan

>  <Standardized_SMILES>  (64) 
CC(CO)(Nc1nc(-c2ccncc2)nc2cnccc12)C(F)(F)F

>  <Name>  (64) 
nan

>  <Pocket>  (64) 
nan

>  <ATP_Site>  (64) 
nan

>  <Peripheral>  (64) 
nan

>  <Num_H_Atoms_ProtBoundConf>  (64) 
nan

>  <Num_Resolved_Atoms>  (64) 
nan

>  <Num_Not_Resolved_Atoms>  (64) 
nan

$$$$
CHEMBL4514599
     RDKit          3D

  0  0  0  0  0  0  0  0  0  0999 V3000
M  V30 BEGIN CTAB
M  V30 COUNTS 38 40 0 0 0
M  V30 BEGIN ATOM
M  V30 1 C 1.496255 -5.964848 0.470400 0
M  V30 2 O 2.030311 -4.643301 0.410325 0
M  V30 3 C 1.430555 -3.670534 -0.381187 0
M  V30 4 O 0.409783 -3.934124 -1.054995 0
M  V30 5 N 2.140185 -2.440900 -0.282578 0
M  V30 6 C 1.887877 -1.171832 -0.918036 0
M  V30 7 C 2.434513 -0.842485 -2.145486 0
M  V30 8 C 2.171404 0.381180 -2.701627 0
M  V30 9 C 1.366981 1.286329 -2.049025 0
M  V30 10 C 0.780342 1.014866 -0.804194 0
M  V30 11 C 1.095154 -0.229622 -0.319245 0
M  V30 12 C -0.009451 2.149088 -0.340420 0
M  V30 13 C -0.711137 2.252061 0.754982 0
M  V30 14 C -1.119823 1.560403 1.951234 0
M  V30 15 C -1.721961 0.308920 1.738320 0
M  V30 16 C -2.129947 -0.463635 2.802518 0
M  V30 17 C -1.944713 -0.002466 4.086960 0
M  V30 18 N -2.372965 -0.813981 5.189265 0 CHG=1 VAL=4
M  V30 19 O -2.259267 -0.526803 6.387631 0
M  V30 20 O -2.969143 -2.043583 4.936087 0 CHG=-1 VAL=1
M  V30 21 C -1.352951 1.229118 4.323058 0
M  V30 22 C -0.939919 2.012264 3.247146 0
M  V30 23 C 0.104343 3.176947 -1.367097 0
M  V30 24 O -0.434324 4.289652 -1.325548 0
M  V30 25 N 0.936723 2.602154 -2.358376 0
M  V30 26 H 1.151974 -6.251835 1.483026 0
M  V30 27 H 2.281955 -6.664689 0.090174 0
M  V30 28 H 0.630126 -6.057622 -0.225458 0
M  V30 29 H 2.990331 -2.270982 0.292494 0
M  V30 30 H 3.071033 -1.561069 -2.661373 0
M  V30 31 H 2.605038 0.649266 -3.676336 0
M  V30 32 H 0.694976 -0.510882 0.630499 0
M  V30 33 H -1.249005 3.201677 0.917774 0
M  V30 34 H -1.917734 -0.154203 0.784507 0
M  V30 35 H -2.598926 -1.435777 2.686647 0
M  V30 36 H -1.207136 1.586832 5.346193 0
M  V30 37 H -0.471016 2.983621 3.376480 0
M  V30 38 H 1.174280 3.149662 -3.212559 0
M  V30 END ATOM
M  V30 BEGIN BOND
M  V30 1 1 1 2
M  V30 2 1 2 3
M  V30 3 2 3 4
M  V30 4 1 3 5
M  V30 5 1 5 6
M  V30 6 2 6 7
M  V30 7 1 7 8
M  V30 8 2 8 9
M  V30 9 1 9 10
M  V30 10 2 10 11
M  V30 11 1 10 12
M  V30 12 2 12 13 CFG=2
M  V30 13 1 13 14
M  V30 14 2 14 15
M  V30 15 1 15 16
M  V30 16 2 16 17
M  V30 17 1 17 18
M  V30 18 2 18 19
M  V30 19 1 18 20
M  V30 20 1 17 21
M  V30 21 2 21 22
M  V30 22 1 12 23
M  V30 23 2 23 24
M  V30 24 1 23 25
M  V30 25 1 11 6
M  V30 26 1 22 14
M  V30 27 1 25 9
M  V30 28 1 1 26
M  V30 29 1 1 27
M  V30 30 1 1 28
M  V30 31 1 5 29
M  V30 32 1 7 30
M  V30 33 1 8 31
M  V30 34 1 11 32
M  V30 35 1 13 33
M  V30 36 1 15 34
M  V30 37 1 16 35
M  V30 38 1 21 36
M  V30 39 1 22 37
M  V30 40 1 25 38
M  V30 END BOND
M  V30 END CTAB
M  END
>  <Dataset>  (65) 
ChEMBL_Kinases

>  <Ligand_Instance>  (65) 
nan

>  <PDB_ID>  (65) 
nan

>  <Standardized_SMILES>  (65) 
COC(=O)Nc1ccc2c(c1)C(=Cc1ccc([N+](=O)[O-])cc1)C(=O)N2

>  <Name>  (65) 
nan

>  <Pocket>  (65) 
nan

>  <ATP_Site>  (65) 
nan

>  <Peripheral>  (65) 
nan

>  <Num_H_Atoms_ProtBoundConf>  (65) 
nan

>  <Num_Resolved_Atoms>  (65) 
nan

>  <Num_Not_Resolved_Atoms>  (65) 
nan

$$$$
CHEMBL4514427
     RDKit          3D

  0  0  0  0  0  0  0  0  0  0999 V3000
M  V30 BEGIN CTAB
M  V30 COUNTS 66 69 0 0 0
M  V30 BEGIN ATOM
M  V30 1 C 2.298676 0.583334 6.206622 0
M  V30 2 N 3.749054 0.504401 6.424179 0
M  V30 3 C 4.667756 1.157796 5.545838 0
M  V30 4 N 6.021837 1.102884 5.719498 0
M  V30 5 C 6.800894 1.765720 4.817905 0
M  V30 6 C 6.308991 2.485795 3.745095 0
M  V30 7 C 4.937255 2.503415 3.624047 0
M  V30 8 N 4.296591 3.203488 2.567724 0
M  V30 9 C 4.736388 3.991602 1.445128 0
M  V30 10 C 3.905192 3.510910 0.245622 0
M  V30 11 C 2.870509 2.689054 0.912617 0 CFG=2
M  V30 12 N 1.550030 2.723478 0.373026 0
M  V30 13 C 0.914355 1.470717 0.055214 0
M  V30 14 O 1.523056 0.376662 0.255001 0
M  V30 15 N -0.392387 1.359490 -0.485849 0
M  V30 16 C -0.962882 0.081122 -0.777695 0
M  V30 17 C -0.879221 -0.621925 -1.962141 0
M  V30 18 C -1.498997 -1.852142 -2.062564 0
M  V30 19 C -2.208315 -2.440037 -1.047427 0
M  V30 20 C -2.856860 -3.771230 -1.214748 0
M  V30 21 N -4.265592 -3.553170 -1.384001 0
M  V30 22 C -4.611579 -2.763001 -2.511341 0
M  V30 23 C -4.776654 -3.493672 -3.798547 0
M  V30 24 N -4.886665 -4.889362 -3.757881 0
M  V30 25 C -3.993554 -5.628024 -4.609946 0
M  V30 26 C -5.222651 -5.520581 -2.539696 0
M  V30 27 C -5.089798 -4.709356 -1.309606 0
M  V30 28 C -2.313365 -1.758755 0.162102 0
M  V30 29 C -3.060381 -2.320009 1.312167 0
M  V30 30 F -2.540532 -3.531273 1.729830 0
M  V30 31 F -2.924699 -1.453018 2.377278 0
M  V30 32 F -4.408007 -2.439740 1.036706 0
M  V30 33 C -1.685158 -0.526978 0.243093 0
M  V30 34 C 2.874065 3.326295 2.307477 0
M  V30 35 N 4.165467 1.853528 4.507567 0
M  V30 36 H 1.946806 -0.152848 5.456626 0
M  V30 37 H 1.830715 0.268309 7.168500 0
M  V30 38 H 2.017768 1.617178 5.905653 0
M  V30 39 H 4.172833 -0.019982 7.212191 0
M  V30 40 H 7.861252 1.724462 4.950536 0
M  V30 41 H 6.956355 2.997830 3.051935 0
M  V30 42 H 5.784890 3.865507 1.164492 0
M  V30 43 H 4.587630 5.077946 1.626513 0
M  V30 44 H 3.454016 4.416680 -0.204902 0
M  V30 45 H 4.537467 2.960259 -0.480207 0
M  V30 46 H 3.194102 1.632259 0.994367 0
M  V30 47 H 1.010719 3.598547 0.192171 0
M  V30 48 H -0.899815 2.266488 -0.652800 0
M  V30 49 H -0.316365 -0.136510 -2.741964 0
M  V30 50 H -1.389746 -2.352836 -3.033935 0
M  V30 51 H -2.661659 -4.452326 -0.365892 0
M  V30 52 H -2.396022 -4.237189 -2.134602 0
M  V30 53 H -5.588645 -2.255778 -2.259459 0
M  V30 54 H -3.899167 -1.914676 -2.617659 0
M  V30 55 H -3.909630 -3.224907 -4.463260 0
M  V30 56 H -5.661198 -3.081142 -4.354954 0
M  V30 57 H -3.275499 -4.991480 -5.157192 0
M  V30 58 H -3.483811 -6.442003 -4.031059 0
M  V30 59 H -4.607493 -6.141635 -5.379283 0
M  V30 60 H -6.266932 -5.925744 -2.615180 0
M  V30 61 H -4.584844 -6.437492 -2.447184 0
M  V30 62 H -4.787635 -5.392961 -0.461411 0
M  V30 63 H -6.116537 -4.367886 -0.990198 0
M  V30 64 H -1.786536 -0.018842 1.204973 0
M  V30 65 H 2.547941 4.375870 2.225734 0
M  V30 66 H 2.242999 2.753180 3.002396 0
M  V30 END ATOM
M  V30 BEGIN BOND
M  V30 1 1 1 2
M  V30 2 1 2 3
M  V30 3 2 3 4
M  V30 4 1 4 5
M  V30 5 2 5 6
M  V30 6 1 6 7
M  V30 7 1 7 8
M  V30 8 1 8 9
M  V30 9 1 9 10
M  V30 10 1 10 11
M  V30 11 1 11 12
M  V30 12 1 12 13
M  V30 13 2 13 14
M  V30 14 1 13 15
M  V30 15 1 15 16
M  V30 16 2 16 17
M  V30 17 1 17 18
M  V30 18 2 18 19
M  V30 19 1 19 20
M  V30 20 1 20 21
M  V30 21 1 21 22
M  V30 22 1 22 23
M  V30 23 1 23 24
M  V30 24 1 24 25
M  V30 25 1 24 26
M  V30 26 1 26 27
M  V30 27 1 19 28
M  V30 28 1 28 29
M  V30 29 1 29 30
M  V30 30 1 29 31
M  V30 31 1 29 32
M  V30 32 2 28 33
M  V30 33 1 11 34
M  V30 34 2 7 35
M  V30 35 1 35 3
M  V30 36 1 34 8
M  V30 37 1 33 16
M  V30 38 1 27 21
M  V30 39 1 1 36
M  V30 40 1 1 37
M  V30 41 1 1 38
M  V30 42 1 2 39
M  V30 43 1 5 40
M  V30 44 1 6 41
M  V30 45 1 9 42
M  V30 46 1 9 43
M  V30 47 1 10 44
M  V30 48 1 10 45
M  V30 49 1 11 46 CFG=1
M  V30 50 1 12 47
M  V30 51 1 15 48
M  V30 52 1 17 49
M  V30 53 1 18 50
M  V30 54 1 20 51
M  V30 55 1 20 52
M  V30 56 1 22 53
M  V30 57 1 22 54
M  V30 58 1 23 55
M  V30 59 1 23 56
M  V30 60 1 25 57
M  V30 61 1 25 58
M  V30 62 1 25 59
M  V30 63 1 26 60
M  V30 64 1 26 61
M  V30 65 1 27 62
M  V30 66 1 27 63
M  V30 67 1 33 64
M  V30 68 1 34 65
M  V30 69 1 34 66
M  V30 END BOND
M  V30 END CTAB
M  END
>  <Dataset>  (66) 
ChEMBL_Kinases

>  <Ligand_Instance>  (66) 
nan

>  <PDB_ID>  (66) 
nan

>  <Standardized_SMILES>  (66) 
CNc1nccc(N2CC[C@H](NC(=O)Nc3ccc(CN4CCN(C)CC4)c(C(F)(F)F)c3)C2)n1

>  <Name>  (66) 
nan

>  <Pocket>  (66) 
nan

>  <ATP_Site>  (66) 
nan

>  <Peripheral>  (66) 
nan

>  <Num_H_Atoms_ProtBoundConf>  (66) 
nan

>  <Num_Resolved_Atoms>  (66) 
nan

>  <Num_Not_Resolved_Atoms>  (66) 
nan

$$$$
CHEMBL4649726
     RDKit          3D

  0  0  0  0  0  0  0  0  0  0999 V3000
M  V30 BEGIN CTAB
M  V30 COUNTS 63 67 0 0 0
M  V30 BEGIN ATOM
M  V30 1 C 1.914308 -2.608033 3.263092 0
M  V30 2 C 2.481680 -1.270634 2.871569 0
M  V30 3 N 3.923568 -1.397193 2.798761 0
M  V30 4 S 4.677912 0.083555 2.360368 0
M  V30 5 O 4.212092 1.119974 3.347860 0
M  V30 6 O 6.169812 -0.037703 2.369184 0
M  V30 7 C 4.125713 0.559442 0.773547 0
M  V30 8 C 4.923483 0.161378 -0.281164 0
M  V30 9 C 4.654469 0.453682 -1.603133 0
M  V30 10 C 3.508367 1.188505 -1.824187 0
M  V30 11 C 2.667392 1.615292 -0.801038 0
M  V30 12 N 1.522041 2.385091 -1.119974 0
M  V30 13 C 0.190839 2.277068 -0.639977 0
M  V30 14 C -0.049171 1.175280 0.148393 0
M  V30 15 C -1.326892 1.018559 0.639972 0
M  V30 16 O -1.939675 0.048100 1.448970 0
M  V30 17 C -2.677784 -0.989232 0.942522 0
M  V30 18 C -4.012613 -0.985007 1.368849 0
M  V30 19 N -4.659913 -2.031117 0.825220 0
M  V30 20 C -6.056346 -2.461018 0.958878 0
M  V30 21 C -7.101714 -1.394982 0.504688 0
M  V30 22 C -6.909280 -1.780081 1.945434 0
M  V30 23 N -3.787246 -2.670343 0.091764 0
M  V30 24 C -2.568570 -2.072516 0.133903 0
M  V30 25 C -1.325194 -2.474913 -0.529195 0
M  V30 26 C -1.144016 -1.727801 -1.816933 0
M  V30 27 C 0.271130 -1.845113 -2.343233 0
M  V30 28 O 0.929468 -2.925316 -1.740513 0
M  V30 29 C 1.188378 -2.518494 -0.433613 0
M  V30 30 C -0.112107 -2.559957 0.320592 0
M  V30 31 C -2.296522 1.977175 0.317050 0
M  V30 32 C -2.000082 3.070379 -0.481758 0
M  V30 33 N -0.725835 3.195178 -0.953833 0
M  V30 34 C 2.986231 1.292472 0.519792 0
M  V30 35 H 2.622449 -3.041903 4.019104 0
M  V30 36 H 1.780708 -3.248051 2.389150 0
M  V30 37 H 0.901412 -2.456504 3.726440 0
M  V30 38 H 2.111579 -1.006715 1.861822 0
M  V30 39 H 2.176757 -0.445579 3.558232 0
M  V30 40 H 4.101731 -2.154910 2.103485 0
M  V30 41 H 5.844248 -0.426056 -0.140122 0
M  V30 42 H 5.249283 0.163692 -2.456277 0
M  V30 43 H 3.224989 1.460912 -2.837415 0
M  V30 44 H 1.734129 3.138609 -1.823273 0
M  V30 45 H 0.570270 0.387070 0.471762 0
M  V30 46 H -4.612697 -0.341788 2.020241 0
M  V30 47 H -6.294093 -3.467713 0.617706 0
M  V30 48 H -6.677425 -0.435871 0.151044 0
M  V30 49 H -7.962112 -1.750460 -0.069854 0
M  V30 50 H -6.516742 -1.011979 2.606705 0
M  V30 51 H -7.786907 -2.327506 2.379886 0
M  V30 52 H -1.521710 -3.552204 -0.856999 0
M  V30 53 H -1.361592 -0.655279 -1.687616 0
M  V30 54 H -1.815007 -2.104262 -2.615016 0
M  V30 55 H 0.861356 -0.941931 -2.095724 0
M  V30 56 H 0.327541 -1.982096 -3.438924 0
M  V30 57 H 1.627334 -1.492561 -0.483817 0
M  V30 58 H 1.911562 -3.244979 -0.002873 0
M  V30 59 H -0.074237 -1.787806 1.126170 0
M  V30 60 H -0.097137 -3.528476 0.919892 0
M  V30 61 H -3.342719 2.012045 0.615807 0
M  V30 62 H -2.683626 3.844350 -0.774283 0
M  V30 63 H 2.391266 1.593707 1.353182 0
M  V30 END ATOM
M  V30 BEGIN BOND
M  V30 1 1 1 2
M  V30 2 1 2 3
M  V30 3 1 3 4
M  V30 4 2 4 5
M  V30 5 2 4 6
M  V30 6 1 4 7
M  V30 7 2 7 8
M  V30 8 1 8 9
M  V30 9 2 9 10
M  V30 10 1 10 11
M  V30 11 1 11 12
M  V30 12 1 12 13
M  V30 13 2 13 14
M  V30 14 1 14 15
M  V30 15 1 15 16
M  V30 16 1 16 17
M  V30 17 2 17 18
M  V30 18 1 18 19
M  V30 19 1 19 20
M  V30 20 1 20 21
M  V30 21 1 21 22
M  V30 22 1 19 23
M  V30 23 2 23 24
M  V30 24 1 24 25
M  V30 25 1 25 26
M  V30 26 1 26 27
M  V30 27 1 27 28
M  V30 28 1 28 29
M  V30 29 1 29 30
M  V30 30 2 15 31
M  V30 31 1 31 32
M  V30 32 2 32 33
M  V30 33 2 11 34
M  V30 34 1 34 7
M  V30 35 1 33 13
M  V30 36 1 24 17
M  V30 37 1 30 25
M  V30 38 1 22 20
M  V30 39 1 1 35
M  V30 40 1 1 36
M  V30 41 1 1 37
M  V30 42 1 2 38
M  V30 43 1 2 39
M  V30 44 1 3 40
M  V30 45 1 8 41
M  V30 46 1 9 42
M  V30 47 1 10 43
M  V30 48 1 12 44
M  V30 49 1 14 45
M  V30 50 1 18 46
M  V30 51 1 20 47
M  V30 52 1 21 48
M  V30 53 1 21 49
M  V30 54 1 22 50
M  V30 55 1 22 51
M  V30 56 1 25 52
M  V30 57 1 26 53
M  V30 58 1 26 54
M  V30 59 1 27 55
M  V30 60 1 27 56
M  V30 61 1 29 57
M  V30 62 1 29 58
M  V30 63 1 30 59
M  V30 64 1 30 60
M  V30 65 1 31 61
M  V30 66 1 32 62
M  V30 67 1 34 63
M  V30 END BOND
M  V30 END CTAB
M  END
>  <Dataset>  (67) 
ChEMBL_Kinases

>  <Ligand_Instance>  (67) 
nan

>  <PDB_ID>  (67) 
nan

>  <Standardized_SMILES>  (67) 
CCNS(=O)(=O)c1cccc(Nc2cc(Oc3cn(C4CC4)nc3C3CCOCC3)ccn2)c1

>  <Name>  (67) 
nan

>  <Pocket>  (67) 
nan

>  <ATP_Site>  (67) 
nan

>  <Peripheral>  (67) 
nan

>  <Num_H_Atoms_ProtBoundConf>  (67) 
nan

>  <Num_Resolved_Atoms>  (67) 
nan

>  <Num_Not_Resolved_Atoms>  (67) 
nan

$$$$
CHEMBL4648735
     RDKit          3D

  0  0  0  0  0  0  0  0  0  0999 V3000
M  V30 BEGIN CTAB
M  V30 COUNTS 61 64 0 0 0
M  V30 BEGIN ATOM
M  V30 1 C 0.504139 -4.944915 4.459422 0
M  V30 2 O 0.874735 -5.792822 3.417429 0
M  V30 3 C 1.344684 -5.384759 2.191379 0
M  V30 4 C 1.461797 -4.030362 1.966396 0
M  V30 5 C 1.928798 -3.574494 0.750984 0
M  V30 6 C 2.134372 -2.209734 0.279405 0
M  V30 7 C 3.332768 -1.884170 -0.369156 0
M  V30 8 N 3.583969 -0.641576 -0.827394 0
M  V30 9 C 2.614705 0.272343 -0.625901 0
M  V30 10 C 1.391542 0.030022 0.011372 0
M  V30 11 C 0.503075 1.182231 0.111410 0
M  V30 12 C 0.357074 1.923294 -1.067487 0
M  V30 13 C -0.466501 3.054493 -1.101727 0
M  V30 14 C -1.161897 3.489981 -0.002847 0
M  V30 15 N -2.002271 4.635243 -0.025706 0
M  V30 16 C -2.228828 5.429852 -1.196834 0
M  V30 17 C -3.640102 5.281983 -1.722278 0
M  V30 18 S -4.681345 4.420468 -0.578561 0
M  V30 19 O -4.674772 2.945577 -0.912426 0
M  V30 20 O -6.104001 4.890938 -0.709906 0
M  V30 21 C -4.171758 4.627104 1.109342 0
M  V30 22 C -2.709657 5.094752 1.147684 0
M  V30 23 C -0.999432 2.742573 1.141313 0
M  V30 24 C -0.198136 1.624097 1.213585 0
M  V30 25 C 1.169239 -1.242146 0.464196 0
M  V30 26 C -0.106520 -1.499639 1.123872 0
M  V30 27 C 2.267480 -4.503585 -0.211101 0
M  V30 28 C 2.152327 -5.861289 0.008564 0
M  V30 29 O 2.461983 -6.879559 -0.882043 0
M  V30 30 C 2.954527 -6.658283 -2.180991 0
M  V30 31 C 1.678512 -6.327467 1.241200 0
M  V30 32 O 1.534850 -7.670527 1.537664 0
M  V30 33 C 0.389310 -8.442097 1.315831 0
M  V30 34 H -0.421801 -4.346296 4.226200 0
M  V30 35 H 0.261424 -5.549467 5.357167 0
M  V30 36 H 1.288824 -4.229951 4.743818 0
M  V30 37 H 1.225328 -3.239931 2.653284 0
M  V30 38 H 4.123874 -2.627483 -0.534307 0
M  V30 39 H 2.861978 1.269897 -1.015073 0
M  V30 40 H 0.890849 1.622574 -1.983588 0
M  V30 41 H -0.518346 3.555218 -2.039671 0
M  V30 42 H -2.155530 6.512362 -0.877793 0
M  V30 43 H -1.454300 5.331557 -1.976445 0
M  V30 44 H -4.117624 6.252405 -1.953183 0
M  V30 45 H -3.556098 4.735051 -2.691881 0
M  V30 46 H -4.825026 5.363106 1.625272 0
M  V30 47 H -4.293617 3.673115 1.663272 0
M  V30 48 H -2.224079 4.818686 2.104660 0
M  V30 49 H -2.801127 6.222317 1.118661 0
M  V30 50 H -1.475027 2.958339 2.064156 0
M  V30 51 H -0.058023 1.027613 2.104054 0
M  V30 52 H -0.155026 -1.351566 2.198208 0
M  V30 53 H -0.962702 -0.972544 0.611272 0
M  V30 54 H -0.345948 -2.587116 0.943196 0
M  V30 55 H 2.644052 -4.293815 -1.200530 0
M  V30 56 H 2.482795 -5.747248 -2.619041 0
M  V30 57 H 4.046740 -6.551264 -2.120532 0
M  V30 58 H 2.709550 -7.518753 -2.855402 0
M  V30 59 H -0.261459 -8.054814 0.523152 0
M  V30 60 H -0.184664 -8.569155 2.279474 0
M  V30 61 H 0.752505 -9.460980 1.010341 0
M  V30 END ATOM
M  V30 BEGIN BOND
M  V30 1 1 1 2
M  V30 2 1 2 3
M  V30 3 2 3 4
M  V30 4 1 4 5
M  V30 5 1 5 6
M  V30 6 2 6 7
M  V30 7 1 7 8
M  V30 8 2 8 9
M  V30 9 1 9 10
M  V30 10 1 10 11
M  V30 11 2 11 12
M  V30 12 1 12 13
M  V30 13 2 13 14
M  V30 14 1 14 15
M  V30 15 1 15 16
M  V30 16 1 16 17
M  V30 17 1 17 18
M  V30 18 2 18 19
M  V30 19 2 18 20
M  V30 20 1 18 21
M  V30 21 1 21 22
M  V30 22 1 14 23
M  V30 23 2 23 24
M  V30 24 2 10 25
M  V30 25 1 25 26
M  V30 26 2 5 27
M  V30 27 1 27 28
M  V30 28 1 28 29
M  V30 29 1 29 30
M  V30 30 2 28 31
M  V30 31 1 31 32
M  V30 32 1 32 33
M  V30 33 1 31 3
M  V30 34 1 25 6
M  V30 35 1 24 11
M  V30 36 1 22 15
M  V30 37 1 1 34
M  V30 38 1 1 35
M  V30 39 1 1 36
M  V30 40 1 4 37
M  V30 41 1 7 38
M  V30 42 1 9 39
M  V30 43 1 12 40
M  V30 44 1 13 41
M  V30 45 1 16 42
M  V30 46 1 16 43
M  V30 47 1 17 44
M  V30 48 1 17 45
M  V30 49 1 21 46
M  V30 50 1 21 47
M  V30 51 1 22 48
M  V30 52 1 22 49
M  V30 53 1 23 50
M  V30 54 1 24 51
M  V30 55 1 26 52
M  V30 56 1 26 53
M  V30 57 1 26 54
M  V30 58 1 27 55
M  V30 59 1 30 56
M  V30 60 1 30 57
M  V30 61 1 30 58
M  V30 62 1 33 59
M  V30 63 1 33 60
M  V30 64 1 33 61
M  V30 END BOND
M  V30 END CTAB
M  END
>  <Dataset>  (68) 
ChEMBL_Kinases

>  <Ligand_Instance>  (68) 
nan

>  <PDB_ID>  (68) 
nan

>  <Standardized_SMILES>  (68) 
COc1cc(-c2cncc(-c3ccc(N4CCS(=O)(=O)CC4)cc3)c2C)cc(OC)c1OC

>  <Name>  (68) 
nan

>  <Pocket>  (68) 
nan

>  <ATP_Site>  (68) 
nan

>  <Peripheral>  (68) 
nan

>  <Num_H_Atoms_ProtBoundConf>  (68) 
nan

>  <Num_Resolved_Atoms>  (68) 
nan

>  <Num_Not_Resolved_Atoms>  (68) 
nan

$$$$
CHEMBL4514298
     RDKit          3D

  0  0  0  0  0  0  0  0  0  0999 V3000
M  V30 BEGIN CTAB
M  V30 COUNTS 60 64 0 0 0
M  V30 BEGIN ATOM
M  V30 1 C 5.816098 -3.846464 5.387839 0
M  V30 2 O 5.502612 -3.449361 4.068804 0
M  V30 3 C 4.246658 -2.910867 3.829412 0
M  V30 4 C 3.256797 -2.723236 4.773581 0
M  V30 5 C 2.035761 -2.179704 4.445097 0
M  V30 6 C 1.739192 -1.794367 3.153181 0
M  V30 7 C 0.453257 -1.194221 2.689415 0
M  V30 8 C 0.621540 0.261948 2.340550 0
M  V30 9 C -0.119945 0.368464 1.062195 0
M  V30 10 C -0.425972 1.641419 0.415263 0
M  V30 11 C -0.033706 2.864255 0.970472 0
M  V30 12 C -0.309646 4.088844 0.376890 0
M  V30 13 C -0.999694 4.114500 -0.811602 0
M  V30 14 C -1.307237 5.303566 -1.456044 0
M  V30 15 C -1.998484 5.280755 -2.641732 0
M  V30 16 C -2.404916 4.084640 -3.223377 0
M  V30 17 C -2.084158 2.901110 -2.556930 0
M  V30 18 C -1.388217 2.907693 -1.361628 0
M  V30 19 C -1.116154 1.688641 -0.775494 0
M  V30 20 O -1.493071 0.476996 -1.305094 0
M  V30 21 N -0.455546 -0.798542 0.596242 0
M  V30 22 N -0.012335 -1.805281 1.445637 0
M  V30 23 C 0.011317 -3.205368 1.202874 0
M  V30 24 S 0.569097 -4.260388 2.313315 0
M  V30 25 N -0.450897 -3.754870 -0.022135 0
M  V30 26 C -1.007314 -3.357676 -1.263203 0
M  V30 27 C -0.250304 -2.992419 -2.361625 0
M  V30 28 C -0.865244 -2.622469 -3.542308 0
M  V30 29 C -2.241044 -2.629050 -3.589755 0
M  V30 30 C -3.076034 -2.986102 -2.521405 0
M  V30 31 O -4.440292 -2.945257 -2.717618 0
M  V30 32 C -5.354970 -3.282083 -1.719475 0
M  V30 33 C -2.357609 -3.335658 -1.398475 0
M  V30 34 C 2.704674 -1.961359 2.155128 0
M  V30 35 C 3.909516 -2.509903 2.537851 0
M  V30 36 H 5.127427 -4.649560 5.742606 0
M  V30 37 H 5.667024 -2.995799 6.105026 0
M  V30 38 H 6.852176 -4.245962 5.456151 0
M  V30 39 H 3.477803 -3.021310 5.787643 0
M  V30 40 H 1.257538 -2.029679 5.174223 0
M  V30 41 H -0.357314 -1.264955 3.428027 0
M  V30 42 H 0.263054 0.918866 3.133866 0
M  V30 43 H 1.726479 0.413039 2.191425 0
M  V30 44 H 0.514329 2.826699 1.916145 0
M  V30 45 H 0.019051 4.996654 0.852367 0
M  V30 46 H -0.980545 6.220068 -0.984445 0
M  V30 47 H -2.245722 6.207741 -3.155579 0
M  V30 48 H -2.953721 4.032400 -4.161174 0
M  V30 49 H -2.414020 1.973176 -3.034252 0
M  V30 50 H -1.330554 0.316171 -2.310345 0
M  V30 51 H -0.439416 -4.777052 -0.223831 0
M  V30 52 H 0.819542 -3.002344 -2.277024 0
M  V30 53 H -0.301114 -2.333041 -4.412223 0
M  V30 54 H -2.705687 -2.331982 -4.536664 0
M  V30 55 H -5.532170 -2.448557 -0.982576 0
M  V30 56 H -5.084588 -4.158029 -1.106063 0
M  V30 57 H -6.359608 -3.466997 -2.172395 0
M  V30 58 H -2.992200 -3.619870 -0.546436 0
M  V30 59 H 2.578597 -1.693514 1.108317 0
M  V30 60 H 4.676584 -2.649317 1.776236 0
M  V30 END ATOM
M  V30 BEGIN BOND
M  V30 1 1 1 2
M  V30 2 1 2 3
M  V30 3 2 3 4
M  V30 4 1 4 5
M  V30 5 2 5 6
M  V30 6 1 6 7
M  V30 7 1 7 8
M  V30 8 1 8 9
M  V30 9 1 9 10
M  V30 10 2 10 11
M  V30 11 1 11 12
M  V30 12 2 12 13
M  V30 13 1 13 14
M  V30 14 2 14 15
M  V30 15 1 15 16
M  V30 16 2 16 17
M  V30 17 1 17 18
M  V30 18 2 18 19
M  V30 19 1 19 20
M  V30 20 2 9 21
M  V30 21 1 21 22
M  V30 22 1 22 23
M  V30 23 2 23 24
M  V30 24 1 23 25
M  V30 25 1 25 26
M  V30 26 2 26 27
M  V30 27 1 27 28
M  V30 28 2 28 29
M  V30 29 1 29 30
M  V30 30 1 30 31
M  V30 31 1 31 32
M  V30 32 2 30 33
M  V30 33 1 6 34
M  V30 34 2 34 35
M  V30 35 1 35 3
M  V30 36 1 22 7
M  V30 37 1 33 26
M  V30 38 1 19 10
M  V30 39 1 18 13
M  V30 40 1 1 36
M  V30 41 1 1 37
M  V30 42 1 1 38
M  V30 43 1 4 39
M  V30 44 1 5 40
M  V30 45 1 7 41
M  V30 46 1 8 42
M  V30 47 1 8 43
M  V30 48 1 11 44
M  V30 49 1 12 45
M  V30 50 1 14 46
M  V30 51 1 15 47
M  V30 52 1 16 48
M  V30 53 1 17 49
M  V30 54 1 20 50
M  V30 55 1 25 51
M  V30 56 1 27 52
M  V30 57 1 28 53
M  V30 58 1 29 54
M  V30 59 1 32 55
M  V30 60 1 32 56
M  V30 61 1 32 57
M  V30 62 1 33 58
M  V30 63 1 34 59
M  V30 64 1 35 60
M  V30 END BOND
M  V30 END CTAB
M  END
>  <Dataset>  (69) 
ChEMBL_Kinases

>  <Ligand_Instance>  (69) 
nan

>  <PDB_ID>  (69) 
nan

>  <Standardized_SMILES>  (69) 
COc1ccc(C2CC(c3ccc4ccccc4c3O)=NN2C(=S)Nc2cccc(OC)c2)cc1

>  <Name>  (69) 
nan

>  <Pocket>  (69) 
nan

>  <ATP_Site>  (69) 
nan

>  <Peripheral>  (69) 
nan

>  <Num_H_Atoms_ProtBoundConf>  (69) 
nan

>  <Num_Resolved_Atoms>  (69) 
nan

>  <Num_Not_Resolved_Atoms>  (69) 
nan

$$$$
CHEMBL4648742
     RDKit          3D

  0  0  0  0  0  0  0  0  0  0999 V3000
M  V30 BEGIN CTAB
M  V30 COUNTS 34 37 0 0 0
M  V30 BEGIN ATOM
M  V30 1 C -2.976281 -3.622815 3.210299 0
M  V30 2 C -2.059858 -4.136396 2.294836 0
M  V30 3 C -1.349353 -3.198974 1.579072 0
M  V30 4 C -1.506257 -1.833765 1.730068 0
M  V30 5 N -0.746661 -0.905371 0.965224 0
M  V30 6 C 0.586421 -0.994918 0.800901 0
M  V30 7 C 0.987380 0.076396 -0.001124 0
M  V30 8 C 2.380187 0.299501 -0.389821 0
M  V30 9 C 3.076355 -0.815827 -0.818961 0
M  V30 10 C 4.415115 -0.712998 -1.213946 0
M  V30 11 N 5.017488 0.489146 -1.170392 0
M  V30 12 C 4.364999 1.591170 -0.757327 0
M  V30 13 C 3.029759 1.516965 -0.357960 0
M  V30 14 C -0.153763 0.794283 -0.299887 0
M  V30 15 C -0.316930 1.924453 -1.046713 0
M  V30 16 C -1.596870 2.457944 -1.195581 0
M  V30 17 N -2.659018 1.845082 -0.595778 0
M  V30 18 C -2.467088 0.728028 0.137189 0
M  V30 19 C -1.217289 0.169291 0.308458 0
M  V30 20 C -2.436546 -1.414888 2.659840 0
M  V30 21 C -3.195847 -2.276971 3.424136 0
M  V30 22 H -3.570340 -4.308446 3.808320 0
M  V30 23 H -1.940518 -5.205500 2.180127 0
M  V30 24 H -0.613590 -3.534076 0.843727 0
M  V30 25 H 1.244561 -1.753992 1.209659 0
M  V30 26 H 2.614350 -1.811980 -0.866541 0
M  V30 27 H 4.935413 -1.598146 -1.544560 0
M  V30 28 H 4.769285 2.593030 -0.690757 0
M  V30 29 H 2.467648 2.368409 -0.020848 0
M  V30 30 H 0.533167 2.409861 -1.523261 0
M  V30 31 H -1.777403 3.343984 -1.772184 0
M  V30 32 H -3.318142 0.257783 0.603521 0
M  V30 33 H -2.596025 -0.339019 2.814702 0
M  V30 34 H -3.925957 -1.944729 4.153808 0
M  V30 END ATOM
M  V30 BEGIN BOND
M  V30 1 2 1 2
M  V30 2 1 2 3
M  V30 3 2 3 4
M  V30 4 1 4 5
M  V30 5 1 5 6
M  V30 6 2 6 7
M  V30 7 1 7 8
M  V30 8 2 8 9
M  V30 9 1 9 10
M  V30 10 2 10 11
M  V30 11 1 11 12
M  V30 12 2 12 13
M  V30 13 1 7 14
M  V30 14 2 14 15
M  V30 15 1 15 16
M  V30 16 2 16 17
M  V30 17 1 17 18
M  V30 18 2 18 19
M  V30 19 1 4 20
M  V30 20 2 20 21
M  V30 21 1 21 1
M  V30 22 1 19 5
M  V30 23 1 13 8
M  V30 24 1 19 14
M  V30 25 1 1 22
M  V30 26 1 2 23
M  V30 27 1 3 24
M  V30 28 1 6 25
M  V30 29 1 9 26
M  V30 30 1 10 27
M  V30 31 1 12 28
M  V30 32 1 13 29
M  V30 33 1 15 30
M  V30 34 1 16 31
M  V30 35 1 18 32
M  V30 36 1 20 33
M  V30 37 1 21 34
M  V30 END BOND
M  V30 END CTAB
M  END
>  <Dataset>  (70) 
ChEMBL_Kinases

>  <Ligand_Instance>  (70) 
nan

>  <PDB_ID>  (70) 
nan

>  <Standardized_SMILES>  (70) 
c1ccc(-n2cc(-c3ccncc3)c3ccncc32)cc1

>  <Name>  (70) 
nan

>  <Pocket>  (70) 
nan

>  <ATP_Site>  (70) 
nan

>  <Peripheral>  (70) 
nan

>  <Num_H_Atoms_ProtBoundConf>  (70) 
nan

>  <Num_Resolved_Atoms>  (70) 
nan

>  <Num_Not_Resolved_Atoms>  (70) 
nan

$$$$
CHEMBL4514142
     RDKit          3D

  0  0  0  0  0  0  0  0  0  0999 V3000
M  V30 BEGIN CTAB
M  V30 COUNTS 18 18 0 0 0
M  V30 BEGIN ATOM
M  V30 1 C 0.724899 -1.879690 -0.691014 0
M  V30 2 C 0.604264 -1.113888 0.583947 0
M  V30 3 N 0.045552 -1.463688 1.735020 0
M  V30 4 N 0.153292 -0.492351 2.615782 0
M  V30 5 C 0.801283 0.535135 2.039357 0
M  V30 6 C 1.128677 1.833424 2.698704 0
M  V30 7 C 1.103507 0.179864 0.752439 0
M  V30 8 C 1.816308 0.983870 -0.279609 0
M  V30 9 H 0.599894 -1.151868 -1.536840 0
M  V30 10 H -0.016696 -2.688949 -0.753783 0
M  V30 11 H 1.776159 -2.232234 -0.745739 0
M  V30 12 H -0.182895 -0.469849 3.592633 0
M  V30 13 H 1.173491 2.625584 1.927743 0
M  V30 14 H 2.085212 1.737115 3.229586 0
M  V30 15 H 0.338769 2.017567 3.459723 0
M  V30 16 H 2.666822 1.564538 0.140379 0
M  V30 17 H 1.090422 1.581419 -0.832862 0
M  V30 18 H 2.279017 0.257394 -0.976009 0
M  V30 END ATOM
M  V30 BEGIN BOND
M  V30 1 1 1 2
M  V30 2 2 2 3
M  V30 3 1 3 4
M  V30 4 1 4 5
M  V30 5 1 5 6
M  V30 6 2 5 7
M  V30 7 1 7 8
M  V30 8 1 7 2
M  V30 9 1 1 9
M  V30 10 1 1 10
M  V30 11 1 1 11
M  V30 12 1 4 12
M  V30 13 1 6 13
M  V30 14 1 6 14
M  V30 15 1 6 15
M  V30 16 1 8 16
M  V30 17 1 8 17
M  V30 18 1 8 18
M  V30 END BOND
M  V30 END CTAB
M  END
>  <Dataset>  (71) 
ChEMBL_Kinases

>  <Ligand_Instance>  (71) 
nan

>  <PDB_ID>  (71) 
nan

>  <Standardized_SMILES>  (71) 
Cc1n[nH]c(C)c1C

>  <Name>  (71) 
nan

>  <Pocket>  (71) 
nan

>  <ATP_Site>  (71) 
nan

>  <Peripheral>  (71) 
nan

>  <Num_H_Atoms_ProtBoundConf>  (71) 
nan

>  <Num_Resolved_Atoms>  (71) 
nan

>  <Num_Not_Resolved_Atoms>  (71) 
nan

$$$$
CHEMBL4514074
     RDKit          3D

  0  0  0  0  0  0  0  0  0  0999 V3000
M  V30 BEGIN CTAB
M  V30 COUNTS 50 53 0 0 0
M  V30 BEGIN ATOM
M  V30 1 C 0.037249 -0.821831 4.049816 0
M  V30 2 N 1.286112 -1.278594 3.461090 0
M  V30 3 C 1.637063 -2.594350 3.458548 0
M  V30 4 C 2.863974 -2.669248 2.828857 0
M  V30 5 C 3.243129 -1.397352 2.456545 0
M  V30 6 S 4.668910 -0.760945 1.625103 0
M  V30 7 O 5.596781 -1.878732 1.326114 0
M  V30 8 O 5.357568 0.187509 2.565346 0
M  V30 9 N 4.161720 0.020260 0.178354 0
M  V30 10 C 3.291148 1.145584 0.237102 0
M  V30 11 C 3.498786 2.167611 1.137568 0
M  V30 12 C 2.683477 3.279068 1.232859 0
M  V30 13 C 1.600242 3.383873 0.387390 0
M  V30 14 C 1.360897 2.395129 -0.516419 0
M  V30 15 N 0.295860 2.299090 -1.488194 0
M  V30 16 C -0.899147 1.650226 -1.057968 0
M  V30 17 O -0.707516 1.302793 0.142493 0
M  V30 18 C -1.947069 1.589526 -2.109877 0
M  V30 19 O -3.103899 0.935483 -1.621876 0
M  V30 20 C -3.091641 -0.372425 -1.167341 0
M  V30 21 C -4.380004 -0.728582 -0.751866 0
M  V30 22 C -4.648543 -2.004795 -0.245156 0
M  V30 23 C -3.619237 -2.914124 -0.159780 0
M  V30 24 C -3.766643 -4.196505 0.321809 0
M  V30 25 O -4.892479 -4.577641 0.709342 0
M  V30 26 C -2.660494 -5.022604 0.360748 0
M  V30 27 C -1.411820 -4.596417 -0.070274 0
M  V30 28 O -1.346268 -3.364805 -0.515628 0
M  V30 29 C -2.371762 -2.553351 -0.567670 0
M  V30 30 C -2.080565 -1.306757 -1.069196 0
M  V30 31 C 2.188336 1.273656 -0.608515 0
M  V30 32 N 2.241106 -0.585839 2.867903 0
M  V30 33 H 0.194735 0.226653 4.410855 0
M  V30 34 H -0.280024 -1.453153 4.893964 0
M  V30 35 H -0.729678 -0.739062 3.238173 0
M  V30 36 H 1.092488 -3.443299 3.859092 0
M  V30 37 H 3.492949 -3.510593 2.616208 0
M  V30 38 H 4.480206 -0.311941 -0.780449 0
M  V30 39 H 4.328590 2.155248 1.833447 0
M  V30 40 H 2.840107 4.081788 1.934659 0
M  V30 41 H 0.888055 4.187832 0.352347 0
M  V30 42 H 0.561273 2.737160 -2.409751 0
M  V30 43 H -1.619516 1.001371 -2.992052 0
M  V30 44 H -2.192486 2.606492 -2.476681 0
M  V30 45 H -5.282334 -0.113964 -0.762981 0
M  V30 46 H -5.614291 -2.332962 0.087667 0
M  V30 47 H -2.732137 -6.040598 0.732806 0
M  V30 48 H -0.540800 -5.224933 -0.047291 0
M  V30 49 H -1.148717 -0.906620 -1.420865 0
M  V30 50 H 2.077829 0.434235 -1.297111 0
M  V30 END ATOM
M  V30 BEGIN BOND
M  V30 1 1 1 2
M  V30 2 1 2 3
M  V30 3 2 3 4
M  V30 4 1 4 5
M  V30 5 1 5 6
M  V30 6 2 6 7
M  V30 7 2 6 8
M  V30 8 1 6 9
M  V30 9 1 9 10
M  V30 10 2 10 11
M  V30 11 1 11 12
M  V30 12 2 12 13
M  V30 13 1 13 14
M  V30 14 1 14 15
M  V30 15 1 15 16
M  V30 16 2 16 17
M  V30 17 1 16 18
M  V30 18 1 18 19
M  V30 19 1 19 20
M  V30 20 2 20 21
M  V30 21 1 21 22
M  V30 22 2 22 23
M  V30 23 1 23 24
M  V30 24 2 24 25
M  V30 25 1 24 26
M  V30 26 2 26 27
M  V30 27 1 27 28
M  V30 28 1 28 29
M  V30 29 2 29 30
M  V30 30 2 14 31
M  V30 31 2 5 32
M  V30 32 1 32 2
M  V30 33 1 31 10
M  V30 34 1 30 20
M  V30 35 1 29 23
M  V30 36 1 1 33
M  V30 37 1 1 34
M  V30 38 1 1 35
M  V30 39 1 3 36
M  V30 40 1 4 37
M  V30 41 1 9 38
M  V30 42 1 11 39
M  V30 43 1 12 40
M  V30 44 1 13 41
M  V30 45 1 15 42
M  V30 46 1 18 43
M  V30 47 1 18 44
M  V30 48 1 21 45
M  V30 49 1 22 46
M  V30 50 1 26 47
M  V30 51 1 27 48
M  V30 52 1 30 49
M  V30 53 1 31 50
M  V30 END BOND
M  V30 END CTAB
M  END
>  <Dataset>  (72) 
ChEMBL_Kinases

>  <Ligand_Instance>  (72) 
nan

>  <PDB_ID>  (72) 
nan

>  <Standardized_SMILES>  (72) 
Cn1ccc(S(=O)(=O)Nc2cccc(NC(=O)COc3ccc4c(=O)ccoc4c3)c2)n1

>  <Name>  (72) 
nan

>  <Pocket>  (72) 
nan

>  <ATP_Site>  (72) 
nan

>  <Peripheral>  (72) 
nan

>  <Num_H_Atoms_ProtBoundConf>  (72) 
nan

>  <Num_Resolved_Atoms>  (72) 
nan

>  <Num_Not_Resolved_Atoms>  (72) 
nan

$$$$
CHEMBL4514029
     RDKit          3D

  0  0  0  0  0  0  0  0  0  0999 V3000
M  V30 BEGIN CTAB
M  V30 COUNTS 39 41 0 0 0
M  V30 BEGIN ATOM
M  V30 1 C -0.024172 -6.419604 0.917694 0
M  V30 2 C 1.376895 -5.826636 0.746460 0
M  V30 3 C 1.267536 -4.477144 0.122540 0
M  V30 4 O 0.065676 -4.178655 -0.099035 0
M  V30 5 N 2.463038 -3.754010 -0.122798 0
M  V30 6 C 2.213354 -2.467112 -0.728087 0
M  V30 7 C 2.181235 -2.402278 -2.109579 0
M  V30 8 C 1.937718 -1.144621 -2.665550 0
M  V30 9 C 1.738997 -0.022667 -1.881074 0
M  V30 10 Cl 1.438723 1.521041 -2.658370 0
M  V30 11 C 1.786658 -0.170802 -0.503516 0
M  V30 12 N 1.579165 1.000934 0.319016 0
M  V30 13 C 0.188412 1.128870 0.602106 0
M  V30 14 O -0.495449 0.192981 0.065162 0
M  V30 15 C -0.385655 2.217378 1.420083 0
M  V30 16 C 0.348905 3.231335 2.002528 0
M  V30 17 C -0.336923 4.194426 2.751438 0
M  V30 18 C -1.711588 4.122341 2.897074 0
M  V30 19 C -2.443736 3.100265 2.308793 0
M  V30 20 C -1.761127 2.154524 1.572082 0
M  V30 21 O -3.790199 3.305914 2.638436 0
M  V30 22 C -3.840203 4.282355 3.674532 0
M  V30 23 O -2.589620 4.952313 3.583058 0
M  V30 24 C 2.022864 -1.385038 0.109202 0
M  V30 25 H 0.084274 -7.437447 1.343858 0
M  V30 26 H -0.583048 -5.783930 1.620513 0
M  V30 27 H -0.556973 -6.411692 -0.059839 0
M  V30 28 H 1.783526 -5.706308 1.766240 0
M  V30 29 H 2.034024 -6.487849 0.177290 0
M  V30 30 H 3.371744 -4.184937 0.138424 0
M  V30 31 H 2.336949 -3.281576 -2.726078 0
M  V30 32 H 1.919214 -1.129564 -3.750280 0
M  V30 33 H 2.231884 1.723716 0.716107 0
M  V30 34 H 1.418895 3.218126 1.842237 0
M  V30 35 H 0.261855 4.977055 3.196501 0
M  V30 36 H -2.361061 1.376877 1.130556 0
M  V30 37 H -4.666064 5.017186 3.525716 0
M  V30 38 H -3.978115 3.810323 4.678400 0
M  V30 39 H 2.059356 -1.496896 1.184273 0
M  V30 END ATOM
M  V30 BEGIN BOND
M  V30 1 1 1 2
M  V30 2 1 2 3
M  V30 3 2 3 4
M  V30 4 1 3 5
M  V30 5 1 5 6
M  V30 6 2 6 7
M  V30 7 1 7 8
M  V30 8 2 8 9
M  V30 9 1 9 10
M  V30 10 1 9 11
M  V30 11 1 11 12
M  V30 12 1 12 13
M  V30 13 2 13 14
M  V30 14 1 13 15
M  V30 15 2 15 16
M  V30 16 1 16 17
M  V30 17 2 17 18
M  V30 18 1 18 19
M  V30 19 2 19 20
M  V30 20 1 19 21
M  V30 21 1 21 22
M  V30 22 1 22 23
M  V30 23 2 11 24
M  V30 24 1 24 6
M  V30 25 1 20 15
M  V30 26 1 23 18
M  V30 27 1 1 25
M  V30 28 1 1 26
M  V30 29 1 1 27
M  V30 30 1 2 28
M  V30 31 1 2 29
M  V30 32 1 5 30
M  V30 33 1 7 31
M  V30 34 1 8 32
M  V30 35 1 12 33
M  V30 36 1 16 34
M  V30 37 1 17 35
M  V30 38 1 20 36
M  V30 39 1 22 37
M  V30 40 1 22 38
M  V30 41 1 24 39
M  V30 END BOND
M  V30 END CTAB
M  END
>  <Dataset>  (73) 
ChEMBL_Kinases

>  <Ligand_Instance>  (73) 
nan

>  <PDB_ID>  (73) 
nan

>  <Standardized_SMILES>  (73) 
CCC(=O)Nc1ccc(Cl)c(NC(=O)c2ccc3c(c2)OCO3)c1

>  <Name>  (73) 
nan

>  <Pocket>  (73) 
nan

>  <ATP_Site>  (73) 
nan

>  <Peripheral>  (73) 
nan

>  <Num_H_Atoms_ProtBoundConf>  (73) 
nan

>  <Num_Resolved_Atoms>  (73) 
nan

>  <Num_Not_Resolved_Atoms>  (73) 
nan

$$$$
CHEMBL4513917
     RDKit          3D

  0  0  0  0  0  0  0  0  0  0999 V3000
M  V30 BEGIN CTAB
M  V30 COUNTS 64 66 0 0 0
M  V30 BEGIN ATOM
M  V30 1 C 4.776478 0.396281 0.167589 0
M  V30 2 C 4.946341 1.163102 1.456829 0
M  V30 3 C 4.733686 0.152147 2.593017 0
M  V30 4 C 3.881492 2.214755 1.527714 0
M  V30 5 C 3.928322 3.195602 0.404936 0
M  V30 6 C 2.803976 4.193419 0.613602 0 CFG=2
M  V30 7 N 1.501369 3.632051 0.638260 0
M  V30 8 C 0.306461 3.295395 1.320229 0
M  V30 9 O 0.340849 3.640846 2.539405 0
M  V30 10 C -0.776948 2.626213 0.607479 0
M  V30 11 C -0.898783 2.351996 -0.737484 0
M  V30 12 C -2.004918 1.676147 -1.210250 0
M  V30 13 C -3.005110 1.267897 -0.319844 0
M  V30 14 C -4.091010 0.558838 -1.051046 0
M  V30 15 N -3.726635 -0.841700 -1.117165 0
M  V30 16 C -3.807134 -1.819028 -0.094221 0
M  V30 17 O -4.240891 -1.518311 1.044902 0
M  V30 18 C -3.374326 -3.174337 -0.400740 0
M  V30 19 C -2.855282 -3.645754 -1.588105 0
M  V30 20 N -2.580633 -4.949935 -1.438970 0
M  V30 21 N -2.899085 -5.357955 -0.196894 0
M  V30 22 C -2.675518 -6.717139 0.152075 0
M  V30 23 C -1.496681 -7.344658 -0.249692 0
M  V30 24 C -1.119335 -8.628446 -0.007995 0
M  V30 25 C -2.018237 -9.397582 0.725756 0
M  V30 26 C -3.222113 -8.838975 1.164622 0
M  V30 27 C -3.522341 -7.527334 0.872459 0
M  V30 28 C -3.376596 -4.275219 0.418801 0
M  V30 29 N -3.811009 -4.337342 1.748866 0
M  V30 30 C -2.877336 1.544952 1.018703 0
M  V30 31 C -1.770524 2.221350 1.488212 0
M  V30 32 C 2.986668 5.390884 -0.233690 0
M  V30 33 N 2.214633 6.285694 -1.043628 0
M  V30 34 O 4.215028 5.755871 -0.258201 0
M  V30 35 H 5.128035 -0.652818 0.256410 0
M  V30 36 H 3.711306 0.470995 -0.128779 0
M  V30 37 H 5.354707 0.953819 -0.616927 0
M  V30 38 H 5.961592 1.551423 1.579856 0
M  V30 39 H 4.347837 0.715025 3.458209 0
M  V30 40 H 5.650863 -0.428625 2.785726 0
M  V30 41 H 3.879633 -0.496879 2.247163 0
M  V30 42 H 2.862261 1.779299 1.554870 0
M  V30 43 H 3.995881 2.731993 2.506106 0
M  V30 44 H 3.910040 2.734272 -0.587071 0
M  V30 45 H 4.866500 3.819162 0.447265 0
M  V30 46 H 2.989169 4.573823 1.669531 0
M  V30 47 H 1.547396 3.365792 -0.392803 0
M  V30 48 H -0.084388 2.704358 -1.338650 0
M  V30 49 H -1.973210 1.531452 -2.274650 0
M  V30 50 H -5.045799 0.591000 -0.447691 0
M  V30 51 H -4.323463 0.990774 -2.016849 0
M  V30 52 H -3.355323 -1.139175 -2.068617 0
M  V30 53 H -2.690433 -3.086750 -2.487447 0
M  V30 54 H -0.793779 -6.729351 -0.827173 0
M  V30 55 H -0.177007 -9.007460 -0.372055 0
M  V30 56 H -1.723568 -10.430653 0.924712 0
M  V30 57 H -3.905696 -9.452079 1.731957 0
M  V30 58 H -4.455960 -7.087377 1.211279 0
M  V30 59 H -4.676790 -4.762441 2.151116 0
M  V30 60 H -3.154073 -3.884514 2.415630 0
M  V30 61 H -3.701962 1.186127 1.607683 0
M  V30 62 H -1.761257 2.393836 2.570486 0
M  V30 63 H 1.181871 6.144935 -0.989897 0
M  V30 64 H 1.161228 6.144933 -0.991206 0
M  V30 END ATOM
M  V30 BEGIN BOND
M  V30 1 1 1 2
M  V30 2 1 2 3
M  V30 3 1 2 4
M  V30 4 1 4 5
M  V30 5 1 5 6
M  V30 6 1 6 7
M  V30 7 1 7 8
M  V30 8 2 8 9
M  V30 9 1 8 10
M  V30 10 2 10 11
M  V30 11 1 11 12
M  V30 12 2 12 13
M  V30 13 1 13 14
M  V30 14 1 14 15
M  V30 15 1 15 16
M  V30 16 2 16 17
M  V30 17 1 16 18
M  V30 18 1 18 19
M  V30 19 2 19 20
M  V30 20 1 20 21
M  V30 21 1 21 22
M  V30 22 2 22 23
M  V30 23 1 23 24
M  V30 24 2 24 25
M  V30 25 1 25 26
M  V30 26 2 26 27
M  V30 27 1 21 28
M  V30 28 1 28 29
M  V30 29 1 13 30
M  V30 30 2 30 31
M  V30 31 1 6 32
M  V30 32 1 32 33
M  V30 33 2 32 34
M  V30 34 1 31 10
M  V30 35 2 28 18
M  V30 36 1 27 22
M  V30 37 1 1 35
M  V30 38 1 1 36
M  V30 39 1 1 37
M  V30 40 1 2 38
M  V30 41 1 3 39
M  V30 42 1 3 40
M  V30 43 1 3 41
M  V30 44 1 4 42
M  V30 45 1 4 43
M  V30 46 1 5 44
M  V30 47 1 5 45
M  V30 48 1 6 46 CFG=1
M  V30 49 1 7 47
M  V30 50 1 11 48
M  V30 51 1 12 49
M  V30 52 1 14 50
M  V30 53 1 14 51
M  V30 54 1 15 52
M  V30 55 1 19 53
M  V30 56 1 23 54
M  V30 57 1 24 55
M  V30 58 1 25 56
M  V30 59 1 26 57
M  V30 60 1 27 58
M  V30 61 1 29 59
M  V30 62 1 29 60
M  V30 63 1 30 61
M  V30 64 1 31 62
M  V30 65 1 33 63
M  V30 66 1 33 64
M  V30 END BOND
M  V30 END CTAB
M  END
>  <Dataset>  (74) 
ChEMBL_Kinases

>  <Ligand_Instance>  (74) 
nan

>  <PDB_ID>  (74) 
nan

>  <Standardized_SMILES>  (74) 
CC(C)CC[C@H](NC(=O)c1ccc(CNC(=O)c2cnn(-c3ccccc3)c2N)cc1)C(N)=O

>  <Name>  (74) 
nan

>  <Pocket>  (74) 
nan

>  <ATP_Site>  (74) 
nan

>  <Peripheral>  (74) 
nan

>  <Num_H_Atoms_ProtBoundConf>  (74) 
nan

>  <Num_Resolved_Atoms>  (74) 
nan

>  <Num_Not_Resolved_Atoms>  (74) 
nan

$$$$
CHEMBL4648755
     RDKit          3D

  0  0  0  0  0  0  0  0  0  0999 V3000
M  V30 BEGIN CTAB
M  V30 COUNTS 74 79 0 0 0
M  V30 BEGIN ATOM
M  V30 1 O 4.113409 -3.800759 -2.621709 0
M  V30 2 C 3.042763 -3.625883 -1.996860 0
M  V30 3 N 2.600802 -4.716979 -1.202083 0
M  V30 4 C 3.259764 -5.967283 -1.054057 0
M  V30 5 C 3.457484 -6.784156 -2.287028 0
M  V30 6 N 2.281169 -7.195414 -2.973796 0
M  V30 7 C 2.712862 -8.022156 -4.110726 0
M  V30 8 C 1.518668 -8.463062 -4.925532 0
M  V30 9 O 0.990809 -7.289338 -5.503529 0
M  V30 10 C 0.425580 -6.584624 -4.448612 0
M  V30 11 C 1.521000 -6.106359 -3.496565 0
M  V30 12 C 2.388269 -2.334088 -2.160297 0
M  V30 13 C 2.979861 -1.369313 -2.937582 0
M  V30 14 C 2.358012 -0.131851 -3.084751 0
M  V30 15 C 1.138426 0.159906 -2.458415 0
M  V30 16 C 0.638991 -0.879053 -1.706001 0
M  V30 17 C 1.188491 -2.123079 -1.511537 0
M  V30 18 C -0.643134 -0.743643 -0.972337 0
M  V30 19 O -1.216383 -1.805932 -0.620188 0
M  V30 20 C -1.338776 0.511705 -0.599532 0
M  V30 21 C -2.094346 0.335984 0.537834 0
M  V30 22 C -2.765825 1.466126 0.950820 0
M  V30 23 C -2.685703 2.668497 0.281052 0
M  V30 24 N -3.364157 3.824423 0.745308 0
M  V30 25 C -3.783658 4.185879 2.049909 0
M  V30 26 C -4.800654 5.096586 2.246626 0
M  V30 27 C -5.196634 5.455727 3.510120 0
M  V30 28 C -4.584953 4.914304 4.641430 0
M  V30 29 F -4.962363 5.256469 5.918671 0
M  V30 30 C -3.564594 4.001976 4.471590 0
M  V30 31 N -2.952338 3.461521 5.650799 0
M  V30 32 C -1.845719 4.173489 6.126491 0
M  V30 33 O -1.477018 5.214485 5.491516 0
M  V30 34 C -1.098693 3.798926 7.289169 0
M  V30 35 C -1.228730 2.786295 8.160835 0
M  V30 36 C -0.367208 2.654686 9.215383 0
M  V30 37 C 0.646671 3.662647 9.295660 0
M  V30 38 S 0.319374 4.760995 7.847550 0
M  V30 39 C -3.205909 3.676063 3.190046 0
M  V30 40 C -1.903010 2.744350 -0.850286 0
M  V30 41 C -1.178987 1.653250 -1.355068 0
M  V30 42 C -0.479116 2.106127 -2.568662 0
M  V30 43 C 0.848522 1.539755 -2.858838 0
M  V30 44 H 1.687749 -4.541557 -0.683308 0
M  V30 45 H 4.238851 -5.792096 -0.533073 0
M  V30 46 H 2.686867 -6.606218 -0.345979 0
M  V30 47 H 4.083794 -6.180997 -3.003675 0
M  V30 48 H 4.043659 -7.693745 -1.957546 0
M  V30 49 H 3.282198 -8.889187 -3.744777 0
M  V30 50 H 3.333034 -7.386404 -4.768720 0
M  V30 51 H 0.731640 -8.934985 -4.288187 0
M  V30 52 H 1.854282 -9.160749 -5.696312 0
M  V30 53 H -0.293353 -7.163088 -3.853992 0
M  V30 54 H 0.000145 -5.651254 -4.896049 0
M  V30 55 H 2.206042 -5.439770 -4.073535 0
M  V30 56 H 0.995159 -5.513841 -2.737566 0
M  V30 57 H 3.932915 -1.571680 -3.436201 0
M  V30 58 H 2.909171 0.575667 -3.724921 0
M  V30 59 H 0.657649 -2.819470 -0.883246 0
M  V30 60 H -2.099737 -0.634340 0.994342 0
M  V30 61 H -3.377595 1.307827 1.853324 0
M  V30 62 H -3.598798 4.541576 -0.002831 0
M  V30 63 H -5.316638 5.553777 1.428434 0
M  V30 64 H -5.994194 6.168615 3.694151 0
M  V30 65 H -3.196839 2.614790 6.224439 0
M  V30 66 H -2.030174 2.079114 8.009369 0
M  V30 67 H -0.382589 1.888044 9.971323 0
M  V30 68 H 1.423198 3.717452 10.071881 0
M  V30 69 H -2.393578 2.967290 3.153906 0
M  V30 70 H -1.867912 3.703701 -1.350934 0
M  V30 71 H -0.422687 3.222107 -2.615060 0
M  V30 72 H -1.165116 1.851217 -3.435659 0
M  V30 73 H 0.958505 1.564983 -3.991398 0
M  V30 74 H 1.657546 2.240818 -2.503552 0
M  V30 END ATOM
M  V30 BEGIN BOND
M  V30 1 2 1 2
M  V30 2 1 2 3
M  V30 3 1 3 4
M  V30 4 1 4 5
M  V30 5 1 5 6
M  V30 6 1 6 7
M  V30 7 1 7 8
M  V30 8 1 8 9
M  V30 9 1 9 10
M  V30 10 1 10 11
M  V30 11 1 2 12
M  V30 12 2 12 13
M  V30 13 1 13 14
M  V30 14 2 14 15
M  V30 15 1 15 16
M  V30 16 2 16 17
M  V30 17 1 16 18
M  V30 18 2 18 19
M  V30 19 1 18 20
M  V30 20 2 20 21
M  V30 21 1 21 22
M  V30 22 2 22 23
M  V30 23 1 23 24
M  V30 24 1 24 25
M  V30 25 2 25 26
M  V30 26 1 26 27
M  V30 27 2 27 28
M  V30 28 1 28 29
M  V30 29 1 28 30
M  V30 30 1 30 31
M  V30 31 1 31 32
M  V30 32 2 32 33
M  V30 33 1 32 34
M  V30 34 2 34 35
M  V30 35 1 35 36
M  V30 36 2 36 37
M  V30 37 1 37 38
M  V30 38 2 30 39
M  V30 39 1 23 40
M  V30 40 2 40 41
M  V30 41 1 41 42
M  V30 42 1 42 43
M  V30 43 1 11 6
M  V30 44 1 17 12
M  V30 45 1 41 20
M  V30 46 1 43 15
M  V30 47 1 39 25
M  V30 48 1 38 34
M  V30 49 1 3 44
M  V30 50 1 4 45
M  V30 51 1 4 46
M  V30 52 1 5 47
M  V30 53 1 5 48
M  V30 54 1 7 49
M  V30 55 1 7 50
M  V30 56 1 8 51
M  V30 57 1 8 52
M  V30 58 1 10 53
M  V30 59 1 10 54
M  V30 60 1 11 55
M  V30 61 1 11 56
M  V30 62 1 13 57
M  V30 63 1 14 58
M  V30 64 1 17 59
M  V30 65 1 21 60
M  V30 66 1 22 61
M  V30 67 1 24 62
M  V30 68 1 26 63
M  V30 69 1 27 64
M  V30 70 1 31 65
M  V30 71 1 35 66
M  V30 72 1 36 67
M  V30 73 1 37 68
M  V30 74 1 39 69
M  V30 75 1 40 70
M  V30 76 1 42 71
M  V30 77 1 42 72
M  V30 78 1 43 73
M  V30 79 1 43 74
M  V30 END BOND
M  V30 END CTAB
M  END
>  <Dataset>  (75) 
ChEMBL_Kinases

>  <Ligand_Instance>  (75) 
nan

>  <PDB_ID>  (75) 
nan

>  <Standardized_SMILES>  (75) 
O=C(NCCN1CCOCC1)c1ccc2c(c1)C(=O)c1ccc(Nc3ccc(F)c(NC(=O)c4cccs4)c3)cc1CC2

>  <Name>  (75) 
nan

>  <Pocket>  (75) 
nan

>  <ATP_Site>  (75) 
nan

>  <Peripheral>  (75) 
nan

>  <Num_H_Atoms_ProtBoundConf>  (75) 
nan

>  <Num_Resolved_Atoms>  (75) 
nan

>  <Num_Not_Resolved_Atoms>  (75) 
nan

$$$$
CHEMBL4648802
     RDKit          3D

  0  0  0  0  0  0  0  0  0  0999 V3000
M  V30 BEGIN CTAB
M  V30 COUNTS 45 48 0 0 0
M  V30 BEGIN ATOM
M  V30 1 C 1.235151 -5.884959 1.951854 0
M  V30 2 C 1.127106 -4.726169 1.041466 0
M  V30 3 C 0.746147 -3.516960 1.581969 0
M  V30 4 C 0.664892 -2.467203 0.692918 0
M  V30 5 C 0.934040 -2.559604 -0.655487 0
M  V30 6 C 0.812052 -1.361331 -1.478247 0
M  V30 7 C 1.033641 -1.286319 -2.819039 0
M  V30 8 C 0.877712 -0.073577 -3.502729 0
M  V30 9 C 0.492305 1.053988 -2.789843 0
M  V30 10 N 0.342275 2.228210 -3.475027 0
M  V30 11 S -0.168437 3.347932 -2.062460 0
M  V30 12 C -0.102151 2.137349 -0.858510 0
M  V30 13 N -0.392186 2.283937 0.568223 0
M  V30 14 C 0.530964 2.736885 1.598281 0
M  V30 15 C 0.709568 1.604051 2.548538 0 CFG=1
M  V30 16 C 1.414836 2.145818 3.797867 0
M  V30 17 O -0.354961 0.904638 2.950546 0
M  V30 18 C -1.510202 0.899197 2.245998 0 CFG=1
M  V30 19 C -2.670567 0.970664 3.214625 0
M  V30 20 C -1.677505 1.978194 1.224153 0
M  V30 21 C 0.275341 0.967075 -1.457210 0
M  V30 22 N 0.446564 -0.227816 -0.880132 0
M  V30 23 C 1.313458 -3.778811 -1.175263 0
M  V30 24 C 1.401457 -4.844047 -0.303772 0
M  V30 25 H 1.315030 -5.565378 3.018404 0
M  V30 26 H 0.395277 -6.594850 1.894501 0
M  V30 27 H 2.149816 -6.484922 1.770647 0
M  V30 28 H 0.517312 -3.372551 2.640903 0
M  V30 29 H 0.357628 -1.510575 1.136116 0
M  V30 30 H 1.333490 -2.196428 -3.326403 0
M  V30 31 H 1.082878 -0.154976 -4.546469 0
M  V30 32 H 0.061227 3.584010 2.133033 0
M  V30 33 H 1.525283 3.001118 1.179678 0
M  V30 34 H 1.483568 0.928162 2.075999 0
M  V30 35 H 2.237909 2.844391 3.528235 0
M  V30 36 H 1.917057 1.268813 4.257137 0
M  V30 37 H 0.699107 2.566146 4.532782 0
M  V30 38 H -1.597398 -0.075065 1.721025 0
M  V30 39 H -3.451401 1.683789 2.909496 0
M  V30 40 H -2.342781 1.289920 4.242643 0
M  V30 41 H -3.142722 -0.023663 3.371425 0
M  V30 42 H -2.396148 1.698622 0.429882 0
M  V30 43 H -2.022651 2.927292 1.668953 0
M  V30 44 H 1.528908 -3.891082 -2.207587 0
M  V30 45 H 1.695942 -5.826918 -0.668973 0
M  V30 END ATOM
M  V30 BEGIN BOND
M  V30 1 1 1 2
M  V30 2 2 2 3
M  V30 3 1 3 4
M  V30 4 2 4 5
M  V30 5 1 5 6
M  V30 6 1 6 7
M  V30 7 2 7 8
M  V30 8 1 8 9
M  V30 9 2 9 10
M  V30 10 1 10 11
M  V30 11 1 11 12
M  V30 12 1 12 13
M  V30 13 1 13 14
M  V30 14 1 14 15
M  V30 15 1 15 16
M  V30 16 1 15 17
M  V30 17 1 17 18
M  V30 18 1 18 19
M  V30 19 1 18 20
M  V30 20 2 12 21
M  V30 21 1 21 22
M  V30 22 1 5 23
M  V30 23 2 23 24
M  V30 24 1 24 2
M  V30 25 2 22 6
M  V30 26 1 21 9
M  V30 27 1 20 13
M  V30 28 1 1 25
M  V30 29 1 1 26
M  V30 30 1 1 27
M  V30 31 1 3 28
M  V30 32 1 4 29
M  V30 33 1 7 30
M  V30 34 1 8 31
M  V30 35 1 14 32
M  V30 36 1 14 33
M  V30 37 1 15 34 CFG=3
M  V30 38 1 16 35
M  V30 39 1 16 36
M  V30 40 1 16 37
M  V30 41 1 18 38 CFG=3
M  V30 42 1 19 39
M  V30 43 1 19 40
M  V30 44 1 19 41
M  V30 45 1 20 42
M  V30 46 1 20 43
M  V30 47 1 23 44
M  V30 48 1 24 45
M  V30 END BOND
M  V30 END CTAB
M  END
>  <Dataset>  (76) 
ChEMBL_Kinases

>  <Ligand_Instance>  (76) 
nan

>  <PDB_ID>  (76) 
nan

>  <Standardized_SMILES>  (76) 
Cc1ccc(-c2ccc3nsc(N4C[C@@H](C)O[C@@H](C)C4)c3n2)cc1

>  <Name>  (76) 
nan

>  <Pocket>  (76) 
nan

>  <ATP_Site>  (76) 
nan

>  <Peripheral>  (76) 
nan

>  <Num_H_Atoms_ProtBoundConf>  (76) 
nan

>  <Num_Resolved_Atoms>  (76) 
nan

>  <Num_Not_Resolved_Atoms>  (76) 
nan

$$$$
CHEMBL4513488
     RDKit          3D

  0  0  0  0  0  0  0  0  0  0999 V3000
M  V30 BEGIN CTAB
M  V30 COUNTS 41 45 0 0 0
M  V30 BEGIN ATOM
M  V30 1 C 0.856238 -4.912222 3.425794 0
M  V30 2 N 0.609722 -3.860585 2.431746 0
M  V30 3 C 0.257651 -2.555648 2.596474 0
M  V30 4 O 0.106990 -2.132731 3.756825 0
M  V30 5 N 0.156973 -2.023798 1.367106 0
M  V30 6 C -0.203585 -0.651580 1.247702 0
M  V30 7 C 0.597941 0.286512 0.631020 0
M  V30 8 C 0.285863 1.621498 0.495100 0
M  V30 9 C 1.162786 2.581081 -0.164820 0
M  V30 10 C 2.384537 2.299598 -0.726342 0
M  V30 11 C 3.179930 3.228914 -1.337938 0
M  V30 12 C 2.760801 4.540552 -1.414001 0
M  V30 13 F 3.536175 5.473942 -2.016288 0
M  V30 14 C 1.536242 4.837041 -0.854361 0
M  V30 15 C 0.748321 3.889912 -0.242643 0
M  V30 16 F -0.449628 4.240684 0.291404 0
M  V30 17 N -0.902779 1.986385 1.021252 0
M  V30 18 C -1.701440 1.089927 1.627264 0
M  V30 19 N -2.914519 1.353904 2.188205 0
M  V30 20 C -3.384925 0.186081 2.686644 0
M  V30 21 C -2.468312 -0.822521 2.441742 0
M  V30 22 C -1.412693 -0.244282 1.774923 0
M  V30 23 C 0.437291 -2.964611 0.446287 0
M  V30 24 C 0.451266 -2.846320 -0.928431 0
M  V30 25 C 0.780848 -4.001788 -1.614452 0
M  V30 26 N 1.068967 -5.164693 -0.985006 0
M  V30 27 C 1.046620 -5.247319 0.356306 0
M  V30 28 C 0.727775 -4.141572 1.117109 0
M  V30 29 H 0.334305 -4.664216 4.393548 0
M  V30 30 H 1.949995 -5.006633 3.629956 0
M  V30 31 H 0.407891 -5.878495 3.104965 0
M  V30 32 H 1.530819 -0.094851 0.239090 0
M  V30 33 H 2.729241 1.275926 -0.675953 0
M  V30 34 H 4.141205 2.960849 -1.769439 0
M  V30 35 H 1.155424 5.866571 -0.887589 0
M  V30 36 H -3.413251 2.271173 2.239965 0
M  V30 37 H -4.336184 0.063811 3.199339 0
M  V30 38 H -2.510446 -1.857671 2.692194 0
M  V30 39 H 0.221497 -1.921488 -1.409764 0
M  V30 40 H 0.810164 -3.976247 -2.707656 0
M  V30 41 H 1.277121 -6.181139 0.887804 0
M  V30 END ATOM
M  V30 BEGIN BOND
M  V30 1 1 1 2
M  V30 2 1 2 3
M  V30 3 2 3 4
M  V30 4 1 3 5
M  V30 5 1 5 6
M  V30 6 2 6 7
M  V30 7 1 7 8
M  V30 8 1 8 9
M  V30 9 2 9 10
M  V30 10 1 10 11
M  V30 11 2 11 12
M  V30 12 1 12 13
M  V30 13 1 12 14
M  V30 14 2 14 15
M  V30 15 1 15 16
M  V30 16 2 8 17
M  V30 17 1 17 18
M  V30 18 1 18 19
M  V30 19 1 19 20
M  V30 20 2 20 21
M  V30 21 1 21 22
M  V30 22 1 5 23
M  V30 23 2 23 24
M  V30 24 1 24 25
M  V30 25 2 25 26
M  V30 26 1 26 27
M  V30 27 2 27 28
M  V30 28 1 28 2
M  V30 29 1 22 6
M  V30 30 1 28 23
M  V30 31 1 15 9
M  V30 32 2 22 18
M  V30 33 1 1 29
M  V30 34 1 1 30
M  V30 35 1 1 31
M  V30 36 1 7 32
M  V30 37 1 10 33
M  V30 38 1 11 34
M  V30 39 1 14 35
M  V30 40 1 19 36
M  V30 41 1 20 37
M  V30 42 1 21 38
M  V30 43 1 24 39
M  V30 44 1 25 40
M  V30 45 1 27 41
M  V30 END BOND
M  V30 END CTAB
M  END
>  <Dataset>  (77) 
ChEMBL_Kinases

>  <Ligand_Instance>  (77) 
nan

>  <PDB_ID>  (77) 
nan

>  <Standardized_SMILES>  (77) 
Cn1c(=O)n(-c2cc(-c3ccc(F)cc3F)nc3[nH]ccc23)c2ccncc21

>  <Name>  (77) 
nan

>  <Pocket>  (77) 
nan

>  <ATP_Site>  (77) 
nan

>  <Peripheral>  (77) 
nan

>  <Num_H_Atoms_ProtBoundConf>  (77) 
nan

>  <Num_Resolved_Atoms>  (77) 
nan

>  <Num_Not_Resolved_Atoms>  (77) 
nan

$$$$
CHEMBL4513287
     RDKit          3D

  0  0  0  0  0  0  0  0  0  0999 V3000
M  V30 BEGIN CTAB
M  V30 COUNTS 49 51 0 0 0
M  V30 BEGIN ATOM
M  V30 1 C 3.540635 -2.934472 3.973144 0
M  V30 2 O 3.054425 -2.511029 2.723861 0
M  V30 3 C 3.526242 -2.987203 1.491390 0
M  V30 4 O 4.416825 -3.815813 1.781175 0
M  V30 5 C 2.838031 -2.371559 0.327112 0
M  V30 6 C 1.772511 -3.315139 -0.135336 0
M  V30 7 C 0.989656 -2.819006 -1.310909 0
M  V30 8 C 0.267322 -1.546819 -1.096755 0
M  V30 9 C -0.753791 -1.567432 0.009814 0
M  V30 10 N -1.417221 -0.291175 0.140590 0
M  V30 11 C -0.985002 0.771573 0.883995 0
M  V30 12 C 0.141299 0.923765 1.668314 0
M  V30 13 C 0.395509 2.099432 2.347589 0
M  V30 14 O 1.495607 2.344647 3.156214 0
M  V30 15 C 2.515293 1.377006 3.380017 0
M  V30 16 C -0.489501 3.159032 2.250415 0
M  V30 17 C -1.619130 3.008007 1.464435 0
M  V30 18 C -1.865766 1.828054 0.787981 0
M  V30 19 C -2.874835 1.355423 -0.062535 0
M  V30 20 C -3.985427 2.063503 -0.452762 0
M  V30 21 C -4.844489 1.381431 -1.292289 0
M  V30 22 N -4.592588 0.121823 -1.683815 0
M  V30 23 C -3.489745 -0.577955 -1.294917 0
M  V30 24 C -3.250156 -1.965605 -1.723243 0
M  V30 25 C -2.586679 0.059580 -0.448853 0
M  V30 26 H 2.627012 -3.234590 4.562717 0
M  V30 27 H 4.151390 -3.850105 3.912820 0
M  V30 28 H 4.016218 -2.124869 4.560035 0
M  V30 29 H 2.529282 -1.346824 0.517612 0
M  V30 30 H 3.620398 -2.287417 -0.486410 0
M  V30 31 H 1.107495 -3.600008 0.701873 0
M  V30 32 H 2.283983 -4.250503 -0.442297 0
M  V30 33 H 0.327312 -3.650912 -1.637102 0
M  V30 34 H 1.706413 -2.665584 -2.143796 0
M  V30 35 H 1.061129 -0.762717 -0.894617 0
M  V30 36 H -0.195571 -1.212511 -2.036191 0
M  V30 37 H -1.379566 -2.446158 0.026883 0
M  V30 38 H -0.127347 -1.668102 0.950734 0
M  V30 39 H 0.868381 0.130185 1.781962 0
M  V30 40 H 2.041667 0.357097 3.434643 0
M  V30 41 H 3.216737 1.350966 2.526375 0
M  V30 42 H 3.016842 1.545857 4.358096 0
M  V30 43 H -0.332882 4.103371 2.766315 0
M  V30 44 H -2.325936 3.821496 1.371933 0
M  V30 45 H -4.181093 3.078368 -0.132458 0
M  V30 46 H -5.749166 1.877559 -1.646449 0
M  V30 47 H -3.539326 -2.711450 -0.940235 0
M  V30 48 H -2.317945 -2.175258 -2.230147 0
M  V30 49 H -4.031553 -2.175408 -2.521329 0
M  V30 END ATOM
M  V30 BEGIN BOND
M  V30 1 1 1 2
M  V30 2 1 2 3
M  V30 3 2 3 4
M  V30 4 1 3 5
M  V30 5 1 5 6
M  V30 6 1 6 7
M  V30 7 1 7 8
M  V30 8 1 8 9
M  V30 9 1 9 10
M  V30 10 1 10 11
M  V30 11 2 11 12
M  V30 12 1 12 13
M  V30 13 1 13 14
M  V30 14 1 14 15
M  V30 15 2 13 16
M  V30 16 1 16 17
M  V30 17 2 17 18
M  V30 18 1 18 19
M  V30 19 2 19 20
M  V30 20 1 20 21
M  V30 21 2 21 22
M  V30 22 1 22 23
M  V30 23 1 23 24
M  V30 24 2 23 25
M  V30 25 1 25 10
M  V30 26 1 18 11
M  V30 27 1 25 19
M  V30 28 1 1 26
M  V30 29 1 1 27
M  V30 30 1 1 28
M  V30 31 1 5 29
M  V30 32 1 5 30
M  V30 33 1 6 31
M  V30 34 1 6 32
M  V30 35 1 7 33
M  V30 36 1 7 34
M  V30 37 1 8 35
M  V30 38 1 8 36
M  V30 39 1 9 37
M  V30 40 1 9 38
M  V30 41 1 12 39
M  V30 42 1 15 40
M  V30 43 1 15 41
M  V30 44 1 15 42
M  V30 45 1 16 43
M  V30 46 1 17 44
M  V30 47 1 20 45
M  V30 48 1 21 46
M  V30 49 1 24 47
M  V30 50 1 24 48
M  V30 51 1 24 49
M  V30 END BOND
M  V30 END CTAB
M  END
>  <Dataset>  (78) 
ChEMBL_Kinases

>  <Ligand_Instance>  (78) 
nan

>  <PDB_ID>  (78) 
nan

>  <Standardized_SMILES>  (78) 
COC(=O)CCCCCn1c2cc(OC)ccc2c2ccnc(C)c21

>  <Name>  (78) 
nan

>  <Pocket>  (78) 
nan

>  <ATP_Site>  (78) 
nan

>  <Peripheral>  (78) 
nan

>  <Num_H_Atoms_ProtBoundConf>  (78) 
nan

>  <Num_Resolved_Atoms>  (78) 
nan

>  <Num_Not_Resolved_Atoms>  (78) 
nan

$$$$
CHEMBL4648725
     RDKit          3D

  0  0  0  0  0  0  0  0  0  0999 V3000
M  V30 BEGIN CTAB
M  V30 COUNTS 63 68 0 0 0
M  V30 BEGIN ATOM
M  V30 1 C -2.834055 0.107598 4.084020 0
M  V30 2 C -1.860927 0.873673 3.481402 0
M  V30 3 C -1.340348 0.402992 2.291995 0
M  V30 4 O -0.372347 1.094943 1.622348 0
M  V30 5 C 0.982836 1.031200 1.783305 0
M  V30 6 C 1.647561 0.228959 2.687539 0
M  V30 7 N 2.947519 0.506959 2.479504 0
M  V30 8 C 4.141868 -0.026410 3.133591 0
M  V30 9 C 4.484782 0.458927 4.502382 0
M  V30 10 C 5.314369 0.953350 3.360353 0
M  V30 11 N 3.103002 1.402212 1.532027 0
M  V30 12 C 1.882032 1.777794 1.046129 0
M  V30 13 C 1.629268 2.779610 -0.045155 0
M  V30 14 C 1.443811 4.156093 0.470098 0
M  V30 15 C 0.150357 4.808845 0.070729 0
M  V30 16 O -0.313664 4.376194 -1.165919 0
M  V30 17 C -0.679582 3.035257 -1.037376 0
M  V30 18 C 0.572579 2.233978 -0.936824 0
M  V30 19 C -1.841453 -0.789713 1.815880 0
M  V30 20 C -2.813237 -1.545901 2.424846 0
M  V30 21 N -3.351997 -2.762693 1.937439 0
M  V30 22 C -3.181936 -3.461745 0.719620 0
M  V30 23 C -3.348655 -4.833429 0.496807 0
M  V30 24 N -3.113755 -5.074780 -0.784328 0
M  V30 25 N -2.799843 -3.986482 -1.463928 0
M  V30 26 C -2.493852 -3.933407 -2.863249 0
M  V30 27 C -2.373024 -5.331975 -3.420140 0
M  V30 28 C -1.014327 -5.934518 -3.153174 0
M  V30 29 O 0.034591 -5.061722 -3.316260 0
M  V30 30 C -0.097148 -3.938603 -2.510851 0
M  V30 31 C -1.244845 -3.118499 -3.115880 0
M  V30 32 C -2.842313 -3.005528 -0.545686 0
M  V30 33 N -3.281905 -1.045229 3.572556 0
M  V30 34 H -3.271890 0.439104 5.022550 0
M  V30 35 H -1.491013 1.802844 3.881520 0
M  V30 36 H 1.284453 -0.469904 3.410377 0
M  V30 37 H 4.473168 -1.025981 2.806530 0
M  V30 38 H 3.705623 1.113140 4.947849 0
M  V30 39 H 4.990286 -0.217100 5.201084 0
M  V30 40 H 5.102542 1.992773 2.981867 0
M  V30 41 H 6.335397 0.576703 3.227290 0
M  V30 42 H 2.587579 2.771610 -0.646744 0
M  V30 43 H 1.463585 4.111576 1.578968 0
M  V30 44 H 2.299978 4.830647 0.209506 0
M  V30 45 H 0.327103 5.899659 -0.010376 0
M  V30 46 H -0.664855 4.677232 0.821466 0
M  V30 47 H -1.200661 2.744184 -1.992114 0
M  V30 48 H -1.369487 2.860556 -0.209521 0
M  V30 49 H 0.273550 1.184898 -0.640589 0
M  V30 50 H 0.940215 2.091977 -1.995435 0
M  V30 51 H -1.412775 -1.129179 0.905123 0
M  V30 52 H -4.019806 -3.272529 2.595239 0
M  V30 53 H -3.621292 -5.574462 1.236319 0
M  V30 54 H -3.331724 -3.428243 -3.383271 0
M  V30 55 H -2.607986 -5.397672 -4.505193 0
M  V30 56 H -3.124036 -5.959696 -2.898454 0
M  V30 57 H -0.893315 -6.750531 -3.914143 0
M  V30 58 H -0.922017 -6.397369 -2.157524 0
M  V30 59 H 0.805139 -3.327639 -2.477914 0
M  V30 60 H -0.473769 -4.268540 -1.515585 0
M  V30 61 H -1.044604 -3.000101 -4.183875 0
M  V30 62 H -1.299894 -2.176336 -2.572230 0
M  V30 63 H -2.630321 -2.012135 -0.856228 0
M  V30 END ATOM
M  V30 BEGIN BOND
M  V30 1 2 1 2
M  V30 2 1 2 3
M  V30 3 1 3 4
M  V30 4 1 4 5
M  V30 5 2 5 6
M  V30 6 1 6 7
M  V30 7 1 7 8
M  V30 8 1 8 9
M  V30 9 1 9 10
M  V30 10 1 7 11
M  V30 11 2 11 12
M  V30 12 1 12 13
M  V30 13 1 13 14
M  V30 14 1 14 15
M  V30 15 1 15 16
M  V30 16 1 16 17
M  V30 17 1 17 18
M  V30 18 2 3 19
M  V30 19 1 19 20
M  V30 20 1 20 21
M  V30 21 1 21 22
M  V30 22 1 22 23
M  V30 23 2 23 24
M  V30 24 1 24 25
M  V30 25 1 25 26
M  V30 26 1 26 27
M  V30 27 1 27 28
M  V30 28 1 28 29
M  V30 29 1 29 30
M  V30 30 1 30 31
M  V30 31 1 25 32
M  V30 32 2 20 33
M  V30 33 1 33 1
M  V30 34 1 12 5
M  V30 35 1 18 13
M  V30 36 2 32 22
M  V30 37 1 10 8
M  V30 38 1 31 26
M  V30 39 1 1 34
M  V30 40 1 2 35
M  V30 41 1 6 36
M  V30 42 1 8 37
M  V30 43 1 9 38
M  V30 44 1 9 39
M  V30 45 1 10 40
M  V30 46 1 10 41
M  V30 47 1 13 42
M  V30 48 1 14 43
M  V30 49 1 14 44
M  V30 50 1 15 45
M  V30 51 1 15 46
M  V30 52 1 17 47
M  V30 53 1 17 48
M  V30 54 1 18 49
M  V30 55 1 18 50
M  V30 56 1 19 51
M  V30 57 1 21 52
M  V30 58 1 23 53
M  V30 59 1 26 54
M  V30 60 1 27 55
M  V30 61 1 27 56
M  V30 62 1 28 57
M  V30 63 1 28 58
M  V30 64 1 30 59
M  V30 65 1 30 60
M  V30 66 1 31 61
M  V30 67 1 31 62
M  V30 68 1 32 63
M  V30 END BOND
M  V30 END CTAB
M  END
>  <Dataset>  (79) 
ChEMBL_Kinases

>  <Ligand_Instance>  (79) 
nan

>  <PDB_ID>  (79) 
nan

>  <Standardized_SMILES>  (79) 
c1cc(Oc2cn(C3CC3)nc2C2CCOCC2)cc(Nc2cnn(C3CCOCC3)c2)n1

>  <Name>  (79) 
nan

>  <Pocket>  (79) 
nan

>  <ATP_Site>  (79) 
nan

>  <Peripheral>  (79) 
nan

>  <Num_H_Atoms_ProtBoundConf>  (79) 
nan

>  <Num_Resolved_Atoms>  (79) 
nan

>  <Num_Not_Resolved_Atoms>  (79) 
nan

$$$$
CHEMBL4517319
     RDKit          3D

  0  0  0  0  0  0  0  0  0  0999 V3000
M  V30 BEGIN CTAB
M  V30 COUNTS 59 64 0 0 0
M  V30 BEGIN ATOM
M  V30 1 N 5.257948 -3.953321 1.715637 0
M  V30 2 C 3.958807 -3.442204 1.389228 0
M  V30 3 O 2.975010 -4.262623 1.295218 0
M  V30 4 C 3.921227 -1.962994 1.193560 0
M  V30 5 C 2.589095 -1.385681 0.883266 0
M  V30 6 C 2.124307 -0.329078 1.683542 0
M  V30 7 C 0.901013 0.161595 1.249629 0
M  V30 8 C 0.123298 -0.264043 0.154898 0
M  V30 9 N -1.087456 0.377683 -0.077286 0
M  V30 10 C -1.138288 1.601994 -0.455423 0
M  V30 11 C -0.772412 2.884305 -0.847000 0
M  V30 12 C 0.645743 2.426634 -1.076654 0
M  V30 13 C 1.838910 3.082027 -1.514615 0
M  V30 14 C 1.794001 4.441203 -1.825280 0
M  V30 15 N 0.520918 4.919126 -1.636503 0
M  V30 16 C -0.422561 4.104803 -1.219795 0
M  V30 17 N -1.818223 4.532707 -0.992280 0
M  V30 18 N -2.469895 1.934393 -0.522054 0
M  V30 19 C -3.265560 0.879336 -0.176406 0
M  V30 20 C -4.625792 0.515783 -0.031444 0
M  V30 21 C -4.964184 -0.755206 0.367517 0
M  V30 22 C -3.983512 -1.682458 0.627581 0
M  V30 23 C -4.476602 -2.984748 1.037265 0
M  V30 24 C -5.775808 -3.341713 1.182988 0
M  V30 25 C -6.094415 -4.614486 1.576734 0
M  V30 26 C -5.182331 -5.610325 1.851070 0
M  V30 27 C -3.869976 -5.184727 1.684211 0
M  V30 28 C -3.464791 -3.913822 1.288461 0
M  V30 29 N -2.699328 -1.312054 0.481571 0
M  V30 30 C -2.332974 -0.082564 0.095887 0
M  V30 31 C 0.718931 -1.302672 -0.517659 0
M  V30 32 C 1.922221 -1.911688 -0.230197 0
M  V30 33 C 4.862482 -1.681406 -0.013498 0
M  V30 34 C 5.848807 -0.974234 0.868461 0
M  V30 35 C 4.862951 -1.196830 2.020447 0
M  V30 36 H 5.112857 -4.150371 2.724058 0
M  V30 37 H 5.684598 -4.287337 2.610795 0
M  V30 38 H 2.608920 0.075996 2.522212 0
M  V30 39 H 0.506665 0.987170 1.842077 0
M  V30 40 H 1.272760 1.457155 -1.042428 0
M  V30 41 H 2.893035 2.880098 -1.715604 0
M  V30 42 H 2.333844 5.294485 -2.154482 0
M  V30 43 H -2.745097 4.518573 -1.436109 0
M  V30 44 H -2.356457 5.031826 -0.241837 0
M  V30 45 H -5.252412 1.376267 -0.283126 0
M  V30 46 H -6.037762 -0.802041 0.409388 0
M  V30 47 H -6.550234 -2.632948 0.992899 0
M  V30 48 H -7.152733 -4.862157 1.684168 0
M  V30 49 H -5.459419 -6.595021 2.156838 0
M  V30 50 H -3.064686 -5.911555 1.874832 0
M  V30 51 H -2.402557 -3.710069 1.193587 0
M  V30 52 H 0.143144 -1.666401 -1.384013 0
M  V30 53 H 2.333728 -2.710068 -0.786322 0
M  V30 54 H 5.258236 -2.571792 -0.503328 0
M  V30 55 H 4.368780 -1.045373 -0.793354 0
M  V30 56 H 6.829228 -1.471122 1.026885 0
M  V30 57 H 5.968029 0.085202 0.563221 0
M  V30 58 H 4.593964 -0.203315 2.412374 0
M  V30 59 H 5.360876 -1.814848 2.825735 0
M  V30 END ATOM
M  V30 BEGIN BOND
M  V30 1 1 1 2
M  V30 2 2 2 3
M  V30 3 1 2 4
M  V30 4 1 4 5
M  V30 5 2 5 6
M  V30 6 1 6 7
M  V30 7 2 7 8
M  V30 8 1 8 9
M  V30 9 1 9 10
M  V30 10 1 10 11
M  V30 11 2 11 12
M  V30 12 1 12 13
M  V30 13 2 13 14
M  V30 14 1 14 15
M  V30 15 2 15 16
M  V30 16 1 16 17
M  V30 17 2 10 18
M  V30 18 1 18 19
M  V30 19 2 19 20
M  V30 20 1 20 21
M  V30 21 2 21 22
M  V30 22 1 22 23
M  V30 23 2 23 24
M  V30 24 1 24 25
M  V30 25 2 25 26
M  V30 26 1 26 27
M  V30 27 2 27 28
M  V30 28 1 22 29
M  V30 29 2 29 30
M  V30 30 1 8 31
M  V30 31 2 31 32
M  V30 32 1 4 33
M  V30 33 1 33 34
M  V30 34 1 34 35
M  V30 35 1 35 4
M  V30 36 1 32 5
M  V30 37 1 30 9
M  V30 38 1 16 11
M  V30 39 1 30 19
M  V30 40 1 28 23
M  V30 41 1 1 36
M  V30 42 1 1 37
M  V30 43 1 6 38
M  V30 44 1 7 39
M  V30 45 1 12 40
M  V30 46 1 13 41
M  V30 47 1 14 42
M  V30 48 1 17 43
M  V30 49 1 17 44
M  V30 50 1 20 45
M  V30 51 1 21 46
M  V30 52 1 24 47
M  V30 53 1 25 48
M  V30 54 1 26 49
M  V30 55 1 27 50
M  V30 56 1 28 51
M  V30 57 1 31 52
M  V30 58 1 32 53
M  V30 59 1 33 54
M  V30 60 1 33 55
M  V30 61 1 34 56
M  V30 62 1 34 57
M  V30 63 1 35 58
M  V30 64 1 35 59
M  V30 END BOND
M  V30 END CTAB
M  END
>  <Dataset>  (80) 
ChEMBL_Kinases

>  <Ligand_Instance>  (80) 
nan

>  <PDB_ID>  (80) 
nan

>  <Standardized_SMILES>  (80) 
NC(=O)C1(c2ccc(-n3c(-c4cccnc4N)nc4ccc(-c5ccccc5)nc43)cc2)CCC1

>  <Name>  (80) 
nan

>  <Pocket>  (80) 
nan

>  <ATP_Site>  (80) 
nan

>  <Peripheral>  (80) 
nan

>  <Num_H_Atoms_ProtBoundConf>  (80) 
nan

>  <Num_Resolved_Atoms>  (80) 
nan

>  <Num_Not_Resolved_Atoms>  (80) 
nan

$$$$
CHEMBL4647915
     RDKit          3D

  0  0  0  0  0  0  0  0  0  0999 V3000
M  V30 BEGIN CTAB
M  V30 COUNTS 50 53 0 0 0
M  V30 BEGIN ATOM
M  V30 1 C 5.014380 -1.660157 3.851471 0
M  V30 2 O 5.081110 -1.020120 2.596404 0
M  V30 3 C 4.336978 -1.522916 1.550248 0
M  V30 4 C 3.503001 -2.639594 1.632005 0
M  V30 5 C 2.774183 -3.102039 0.535046 0
M  V30 6 C 2.885252 -2.421684 -0.685551 0
M  V30 7 C 2.090135 -2.967396 -1.773689 0
M  V30 8 C 1.445203 -2.260639 -2.672335 0
M  V30 9 N 1.211698 -0.879123 -3.012424 0
M  V30 10 C 0.421235 -0.212595 -2.015834 0
M  V30 11 C 0.803580 1.007565 -1.438367 0
M  V30 12 C -0.012822 1.612317 -0.470790 0
M  V30 13 C -1.206806 0.981349 -0.093395 0
M  V30 14 C -1.991723 1.681448 0.919628 0
M  V30 15 O -1.723502 2.855568 1.257869 0
M  V30 16 N -3.085364 1.071327 1.568834 0
M  V30 17 C -3.963014 1.553123 2.560244 0
M  V30 18 C -4.893940 0.694248 3.162251 0
M  V30 19 C -5.764788 1.109772 4.128391 0
M  V30 20 C -5.789742 2.407286 4.580440 0
M  V30 21 C -4.897195 3.330708 4.035573 0
M  V30 22 C -4.054914 2.834919 3.070507 0
M  V30 23 C -1.558965 -0.212346 -0.675265 0
M  V30 24 C -0.765243 -0.815604 -1.626392 0
M  V30 25 C 0.776232 -3.170990 -3.577384 0
M  V30 26 O 0.027723 -3.090083 -4.607813 0
M  V30 27 N 1.048034 -4.534301 -3.182423 0
M  V30 28 C 1.897742 -4.387446 -2.016227 0
M  V30 29 O 2.364198 -5.355271 -1.358463 0
M  V30 30 C 3.694144 -1.300802 -0.846556 0
M  V30 31 C 4.357351 -0.949322 0.306408 0
M  V30 32 H 4.089246 -1.377838 4.425401 0
M  V30 33 H 5.021018 -2.785403 3.776591 0
M  V30 34 H 5.867814 -1.304824 4.498780 0
M  V30 35 H 3.425038 -3.155218 2.583711 0
M  V30 36 H 2.133994 -3.978106 0.641835 0
M  V30 37 H 1.603520 -0.463112 -3.908413 0
M  V30 38 H 1.745054 1.367074 -1.826138 0
M  V30 39 H 0.382990 2.563238 -0.088945 0
M  V30 40 H -3.265449 0.082862 1.242172 0
M  V30 41 H -4.889500 -0.355950 2.826214 0
M  V30 42 H -6.432630 0.313265 4.511923 0
M  V30 43 H -6.500451 2.683429 5.341928 0
M  V30 44 H -4.871204 4.358332 4.345403 0
M  V30 45 H -3.369130 3.573751 2.658405 0
M  V30 46 H -2.481318 -0.698834 -0.401379 0
M  V30 47 H -1.133790 -1.771648 -2.036820 0
M  V30 48 H 0.768622 -5.479201 -3.549086 0
M  V30 49 H 3.778234 -0.779954 -1.781648 0
M  V30 50 H 5.005304 -0.070502 0.206921 0
M  V30 END ATOM
M  V30 BEGIN BOND
M  V30 1 1 1 2
M  V30 2 1 2 3
M  V30 3 2 3 4
M  V30 4 1 4 5
M  V30 5 2 5 6
M  V30 6 1 6 7
M  V30 7 2 7 8
M  V30 8 1 8 9
M  V30 9 1 9 10
M  V30 10 2 10 11
M  V30 11 1 11 12
M  V30 12 2 12 13
M  V30 13 1 13 14
M  V30 14 2 14 15
M  V30 15 1 14 16
M  V30 16 1 16 17
M  V30 17 2 17 18
M  V30 18 1 18 19
M  V30 19 2 19 20
M  V30 20 1 20 21
M  V30 21 2 21 22
M  V30 22 1 13 23
M  V30 23 2 23 24
M  V30 24 1 8 25
M  V30 25 2 25 26
M  V30 26 1 25 27
M  V30 27 1 27 28
M  V30 28 2 28 29
M  V30 29 1 6 30
M  V30 30 2 30 31
M  V30 31 1 31 3
M  V30 32 1 28 7
M  V30 33 1 24 10
M  V30 34 1 22 17
M  V30 35 1 1 32
M  V30 36 1 1 33
M  V30 37 1 1 34
M  V30 38 1 4 35
M  V30 39 1 5 36
M  V30 40 1 9 37
M  V30 41 1 11 38
M  V30 42 1 12 39
M  V30 43 1 16 40
M  V30 44 1 18 41
M  V30 45 1 19 42
M  V30 46 1 20 43
M  V30 47 1 21 44
M  V30 48 1 22 45
M  V30 49 1 23 46
M  V30 50 1 24 47
M  V30 51 1 27 48
M  V30 52 1 30 49
M  V30 53 1 31 50
M  V30 END BOND
M  V30 END CTAB
M  END
>  <Dataset>  (81) 
ChEMBL_Kinases

>  <Ligand_Instance>  (81) 
nan

>  <PDB_ID>  (81) 
nan

>  <Standardized_SMILES>  (81) 
COc1ccc(C2=C(Nc3ccc(C(=O)Nc4ccccc4)cc3)C(=O)NC2=O)cc1

>  <Name>  (81) 
nan

>  <Pocket>  (81) 
nan

>  <ATP_Site>  (81) 
nan

>  <Peripheral>  (81) 
nan

>  <Num_H_Atoms_ProtBoundConf>  (81) 
nan

>  <Num_Resolved_Atoms>  (81) 
nan

>  <Num_Not_Resolved_Atoms>  (81) 
nan

$$$$
CHEMBL4517252
     RDKit          3D

  0  0  0  0  0  0  0  0  0  0999 V3000
M  V30 BEGIN CTAB
M  V30 COUNTS 36 39 0 0 0
M  V30 BEGIN ATOM
M  V30 1 F 0.373620 -3.278048 4.375686 0
M  V30 2 C 1.196186 -3.613016 3.293590 0
M  V30 3 F 0.824814 -4.806674 2.748486 0
M  V30 4 F 2.476976 -3.575350 3.756002 0
M  V30 5 C 1.050241 -2.483424 2.264745 0
M  V30 6 N -0.286097 -2.268299 1.758730 0
M  V30 7 C -0.575424 -1.220485 0.841336 0
M  V30 8 N 0.313805 -0.345595 0.365203 0
M  V30 9 C 0.084758 0.644978 -0.490615 0
M  V30 10 C 1.153556 1.534647 -0.932604 0
M  V30 11 C 0.873369 2.550278 -1.821719 0
M  V30 12 C 1.946424 3.359764 -2.198099 0
M  V30 13 N 3.188748 3.154159 -1.714229 0
M  V30 14 C 3.438469 2.153810 -0.845220 0
M  V30 15 C 2.421230 1.322270 -0.436786 0
M  V30 16 N -1.184319 0.824601 -0.960396 0
M  V30 17 C -2.179094 -0.011944 -0.542154 0
M  V30 18 C -3.448520 0.197253 -1.035666 0
M  V30 19 N -4.436843 -0.635536 -0.618617 0
M  V30 20 C -4.191959 -1.636136 0.249358 0
M  V30 21 C -2.903303 -1.797524 0.709315 0
M  V30 22 C -1.845636 -1.014883 0.350374 0
M  V30 23 C 2.239103 -2.201631 1.407249 0
M  V30 24 C 1.956430 -1.298335 2.519293 0
M  V30 25 H -1.001369 -2.908960 2.097446 0
M  V30 26 H -0.112829 2.720656 -2.211595 0
M  V30 27 H 1.829231 4.178807 -2.887249 0
M  V30 28 H 4.474394 2.080696 -0.520863 0
M  V30 29 H 2.688218 0.534019 0.265969 0
M  V30 30 H -3.617951 1.013145 -1.735677 0
M  V30 31 H -5.022912 -2.265893 0.543324 0
M  V30 32 H -2.795168 -2.616244 1.396081 0
M  V30 33 H 2.098776 -1.858823 0.369598 0
M  V30 34 H 3.116670 -2.899092 1.562773 0
M  V30 35 H 1.449228 -0.322368 2.446123 0
M  V30 36 H 2.620846 -1.337693 3.425792 0
M  V30 END ATOM
M  V30 BEGIN BOND
M  V30 1 1 1 2
M  V30 2 1 2 3
M  V30 3 1 2 4
M  V30 4 1 2 5
M  V30 5 1 5 6
M  V30 6 1 6 7
M  V30 7 2 7 8
M  V30 8 1 8 9
M  V30 9 1 9 10
M  V30 10 2 10 11
M  V30 11 1 11 12
M  V30 12 2 12 13
M  V30 13 1 13 14
M  V30 14 2 14 15
M  V30 15 2 9 16
M  V30 16 1 16 17
M  V30 17 2 17 18
M  V30 18 1 18 19
M  V30 19 2 19 20
M  V30 20 1 20 21
M  V30 21 2 21 22
M  V30 22 1 5 23
M  V30 23 1 23 24
M  V30 24 1 24 5
M  V30 25 1 22 7
M  V30 26 1 15 10
M  V30 27 1 22 17
M  V30 28 1 6 25
M  V30 29 1 11 26
M  V30 30 1 12 27
M  V30 31 1 14 28
M  V30 32 1 15 29
M  V30 33 1 18 30
M  V30 34 1 20 31
M  V30 35 1 21 32
M  V30 36 1 23 33
M  V30 37 1 23 34
M  V30 38 1 24 35
M  V30 39 1 24 36
M  V30 END BOND
M  V30 END CTAB
M  END
>  <Dataset>  (82) 
ChEMBL_Kinases

>  <Ligand_Instance>  (82) 
nan

>  <PDB_ID>  (82) 
nan

>  <Standardized_SMILES>  (82) 
FC(F)(F)C1(Nc2nc(-c3ccncc3)nc3cnccc23)CC1

>  <Name>  (82) 
nan

>  <Pocket>  (82) 
nan

>  <ATP_Site>  (82) 
nan

>  <Peripheral>  (82) 
nan

>  <Num_H_Atoms_ProtBoundConf>  (82) 
nan

>  <Num_Resolved_Atoms>  (82) 
nan

>  <Num_Not_Resolved_Atoms>  (82) 
nan

$$$$
CHEMBL4647991
     RDKit          3D

  0  0  0  0  0  0  0  0  0  0999 V3000
M  V30 BEGIN CTAB
M  V30 COUNTS 66 69 0 0 0
M  V30 BEGIN ATOM
M  V30 1 C 3.592932 -3.737799 5.923090 0
M  V30 2 O 3.180015 -2.501820 6.460347 0
M  V30 3 C 2.782832 -1.468326 5.629961 0
M  V30 4 C 2.751217 -1.538594 4.248902 0
M  V30 5 C 2.357118 -0.516835 3.407854 0
M  V30 6 C 2.412003 -0.818175 1.984306 0
M  V30 7 C 3.597140 -1.396954 1.547022 0
M  V30 8 N 3.799612 -1.729767 0.238699 0
M  V30 9 C 2.761386 -1.454288 -0.599001 0
M  V30 10 C 1.543973 -0.873218 -0.220068 0
M  V30 11 C 0.550215 -0.655647 -1.262330 0
M  V30 12 C -0.202808 0.485235 -1.462639 0
M  V30 13 C -1.116668 0.572208 -2.492088 0
M  V30 14 C -1.339219 -0.456106 -3.379247 0
M  V30 15 N -2.286364 -0.352567 -4.431108 0
M  V30 16 C -3.235034 0.709730 -4.647884 0
M  V30 17 C -4.638579 0.245087 -4.919945 0
M  V30 18 N -4.853442 -1.145819 -4.924211 0
M  V30 19 C -5.473000 -1.731531 -3.784968 0
M  V30 20 C -4.673049 -1.728935 -2.526226 0
M  V30 21 F -4.326143 -0.465609 -2.088187 0
M  V30 22 C -3.830588 -1.939015 -5.530960 0
M  V30 23 C -2.469065 -1.292307 -5.490868 0
M  V30 24 C -0.600552 -1.603250 -3.199977 0
M  V30 25 C 0.326459 -1.688206 -2.153379 0
M  V30 26 C 1.391465 -0.556731 1.112774 0
M  V30 27 C 0.140184 0.042867 1.559823 0
M  V30 28 C 1.964879 0.670110 4.026239 0
M  V30 29 C 1.982569 0.779402 5.401147 0
M  V30 30 O 1.587918 1.964972 5.947328 0
M  V30 31 C 1.162559 3.097052 5.263352 0
M  V30 32 C 2.381561 -0.260462 6.211678 0
M  V30 33 O 2.408230 -0.176331 7.598139 0
M  V30 34 C 3.607976 0.275156 8.199930 0
M  V30 35 H 4.580407 -3.574611 5.445121 0
M  V30 36 H 2.847461 -4.157176 5.196036 0
M  V30 37 H 3.699357 -4.472428 6.758686 0
M  V30 38 H 3.073684 -2.498691 3.863226 0
M  V30 39 H 4.428249 -1.614152 2.236458 0
M  V30 40 H 2.967463 -1.734592 -1.622865 0
M  V30 41 H -0.030810 1.291928 -0.773672 0
M  V30 42 H -1.633024 1.511037 -2.536680 0
M  V30 43 H -3.167642 1.426913 -3.822371 0
M  V30 44 H -2.844965 1.267029 -5.551108 0
M  V30 45 H -4.978897 0.653126 -5.912515 0
M  V30 46 H -5.347389 0.713479 -4.186686 0
M  V30 47 H -5.728086 -2.773850 -4.020873 0
M  V30 48 H -6.409140 -1.136546 -3.575657 0
M  V30 49 H -3.803955 -2.421631 -2.560703 0
M  V30 50 H -5.335153 -2.161635 -1.733049 0
M  V30 51 H -4.114568 -2.053435 -6.607368 0
M  V30 52 H -3.860597 -2.955743 -5.092221 0
M  V30 53 H -2.270402 -0.759818 -6.470138 0
M  V30 54 H -1.732869 -2.122154 -5.495664 0
M  V30 55 H -0.682109 -2.463804 -3.816442 0
M  V30 56 H 0.898692 -2.612289 -2.036116 0
M  V30 57 H -0.117967 -0.311555 2.601794 0
M  V30 58 H -0.679905 -0.433113 0.944635 0
M  V30 59 H 0.079465 1.123474 1.599693 0
M  V30 60 H 1.665472 1.449279 3.340695 0
M  V30 61 H 0.246882 2.809385 4.667053 0
M  V30 62 H 0.787263 3.903194 5.936547 0
M  V30 63 H 1.870452 3.483801 4.509194 0
M  V30 64 H 4.181205 0.901467 7.465443 0
M  V30 65 H 3.428783 0.956016 9.058160 0
M  V30 66 H 4.301692 -0.560732 8.461120 0
M  V30 END ATOM
M  V30 BEGIN BOND
M  V30 1 1 1 2
M  V30 2 1 2 3
M  V30 3 2 3 4
M  V30 4 1 4 5
M  V30 5 1 5 6
M  V30 6 2 6 7
M  V30 7 1 7 8
M  V30 8 2 8 9
M  V30 9 1 9 10
M  V30 10 1 10 11
M  V30 11 2 11 12
M  V30 12 1 12 13
M  V30 13 2 13 14
M  V30 14 1 14 15
M  V30 15 1 15 16
M  V30 16 1 16 17
M  V30 17 1 17 18
M  V30 18 1 18 19
M  V30 19 1 19 20
M  V30 20 1 20 21
M  V30 21 1 18 22
M  V30 22 1 22 23
M  V30 23 1 14 24
M  V30 24 2 24 25
M  V30 25 2 10 26
M  V30 26 1 26 27
M  V30 27 2 5 28
M  V30 28 1 28 29
M  V30 29 1 29 30
M  V30 30 1 30 31
M  V30 31 2 29 32
M  V30 32 1 32 33
M  V30 33 1 33 34
M  V30 34 1 32 3
M  V30 35 1 26 6
M  V30 36 1 25 11
M  V30 37 1 23 15
M  V30 38 1 1 35
M  V30 39 1 1 36
M  V30 40 1 1 37
M  V30 41 1 4 38
M  V30 42 1 7 39
M  V30 43 1 9 40
M  V30 44 1 12 41
M  V30 45 1 13 42
M  V30 46 1 16 43
M  V30 47 1 16 44
M  V30 48 1 17 45
M  V30 49 1 17 46
M  V30 50 1 19 47
M  V30 51 1 19 48
M  V30 52 1 20 49
M  V30 53 1 20 50
M  V30 54 1 22 51
M  V30 55 1 22 52
M  V30 56 1 23 53
M  V30 57 1 23 54
M  V30 58 1 24 55
M  V30 59 1 25 56
M  V30 60 1 27 57
M  V30 61 1 27 58
M  V30 62 1 27 59
M  V30 63 1 28 60
M  V30 64 1 31 61
M  V30 65 1 31 62
M  V30 66 1 31 63
M  V30 67 1 34 64
M  V30 68 1 34 65
M  V30 69 1 34 66
M  V30 END BOND
M  V30 END CTAB
M  END
>  <Dataset>  (83) 
ChEMBL_Kinases

>  <Ligand_Instance>  (83) 
nan

>  <PDB_ID>  (83) 
nan

>  <Standardized_SMILES>  (83) 
COc1cc(-c2cncc(-c3ccc(N4CCN(CCF)CC4)cc3)c2C)cc(OC)c1OC

>  <Name>  (83) 
nan

>  <Pocket>  (83) 
nan

>  <ATP_Site>  (83) 
nan

>  <Peripheral>  (83) 
nan

>  <Num_H_Atoms_ProtBoundConf>  (83) 
nan

>  <Num_Resolved_Atoms>  (83) 
nan

>  <Num_Not_Resolved_Atoms>  (83) 
nan

$$$$
CHEMBL4516941
     RDKit          3D

  0  0  0  0  0  0  0  0  0  0999 V3000
M  V30 BEGIN CTAB
M  V30 COUNTS 44 46 0 0 0
M  V30 BEGIN ATOM
M  V30 1 C -1.108601 -7.857204 -0.549453 0
M  V30 2 C -0.859012 -6.583220 -0.762165 0
M  V30 3 C -0.021578 -6.258594 -1.901485 0
M  V30 4 O 0.367984 -7.259644 -2.553688 0
M  V30 5 C 0.320578 -4.886071 -2.235552 0
M  V30 6 C 1.118276 -4.604330 -3.324211 0
M  V30 7 C 1.415721 -3.273946 -3.603350 0
M  V30 8 C 0.938713 -2.235078 -2.827476 0
M  V30 9 N 1.042781 -0.889109 -2.835923 0
M  V30 10 C 0.345254 -0.360755 -1.804747 0
M  V30 11 N 0.145065 0.990776 -1.390465 0
M  V30 12 C 1.000105 1.660488 -0.481651 0
M  V30 13 O 1.985010 1.037931 -0.018516 0
M  V30 14 N 0.735707 2.986205 -0.120274 0
M  V30 15 C 1.512791 3.800597 0.795896 0
M  V30 16 C 1.239434 3.416036 2.224370 0
M  V30 17 C 0.191807 4.061162 2.841764 0
M  V30 18 C -0.138600 3.782575 4.148307 0
M  V30 19 C 0.559512 2.854542 4.885597 0
M  V30 20 O 0.358420 2.460193 6.198272 0
M  V30 21 C -0.695829 3.065621 6.919791 0
M  V30 22 C 1.609611 2.220068 4.238997 0
M  V30 23 C 1.985627 2.464089 2.920482 0
M  V30 24 N -0.209449 -1.398666 -1.133175 0
M  V30 25 C 0.134094 -2.560686 -1.733404 0
M  V30 26 C -0.174020 -3.874170 -1.437486 0
M  V30 27 H -0.974067 -8.884194 -0.848764 0
M  V30 28 H -1.690871 -8.335984 0.217157 0
M  V30 29 H -1.343249 -5.969200 -0.015709 0
M  V30 30 H 1.511588 -5.406502 -3.958411 0
M  V30 31 H 2.036973 -3.005142 -4.446396 0
M  V30 32 H -0.696127 1.425484 -1.827142 0
M  V30 33 H -0.119572 3.441900 -0.559824 0
M  V30 34 H 1.252555 4.865319 0.676366 0
M  V30 35 H 2.611361 3.674165 0.583630 0
M  V30 36 H -0.399790 4.796512 2.333782 0
M  V30 37 H -0.961105 4.259860 4.698145 0
M  V30 38 H -0.638491 2.859399 8.006738 0
M  V30 39 H -0.709795 4.155635 6.720731 0
M  V30 40 H -1.669844 2.662577 6.535948 0
M  V30 41 H 2.219850 1.475577 4.729167 0
M  V30 42 H 2.788752 1.982004 2.424047 0
M  V30 43 H -0.813341 -1.345369 -0.280196 0
M  V30 44 H -0.806344 -4.081671 -0.572138 0
M  V30 END ATOM
M  V30 BEGIN BOND
M  V30 1 2 1 2
M  V30 2 1 2 3
M  V30 3 2 3 4
M  V30 4 1 3 5
M  V30 5 2 5 6
M  V30 6 1 6 7
M  V30 7 2 7 8
M  V30 8 1 8 9
M  V30 9 2 9 10
M  V30 10 1 10 11
M  V30 11 1 11 12
M  V30 12 2 12 13
M  V30 13 1 12 14
M  V30 14 1 14 15
M  V30 15 1 15 16
M  V30 16 2 16 17
M  V30 17 1 17 18
M  V30 18 2 18 19
M  V30 19 1 19 20
M  V30 20 1 20 21
M  V30 21 1 19 22
M  V30 22 2 22 23
M  V30 23 1 10 24
M  V30 24 1 24 25
M  V30 25 2 25 26
M  V30 26 1 26 5
M  V30 27 1 25 8
M  V30 28 1 23 16
M  V30 29 1 1 27
M  V30 30 1 1 28
M  V30 31 1 2 29
M  V30 32 1 6 30
M  V30 33 1 7 31
M  V30 34 1 11 32
M  V30 35 1 14 33
M  V30 36 1 15 34
M  V30 37 1 15 35
M  V30 38 1 17 36
M  V30 39 1 18 37
M  V30 40 1 21 38
M  V30 41 1 21 39
M  V30 42 1 21 40
M  V30 43 1 22 41
M  V30 44 1 23 42
M  V30 45 1 24 43
M  V30 46 1 26 44
M  V30 END BOND
M  V30 END CTAB
M  END
>  <Dataset>  (84) 
ChEMBL_Kinases

>  <Ligand_Instance>  (84) 
nan

>  <PDB_ID>  (84) 
nan

>  <Standardized_SMILES>  (84) 
C=CC(=O)c1ccc2nc(NC(=O)NCc3ccc(OC)cc3)[nH]c2c1

>  <Name>  (84) 
nan

>  <Pocket>  (84) 
nan

>  <ATP_Site>  (84) 
nan

>  <Peripheral>  (84) 
nan

>  <Num_H_Atoms_ProtBoundConf>  (84) 
nan

>  <Num_Resolved_Atoms>  (84) 
nan

>  <Num_Not_Resolved_Atoms>  (84) 
nan

$$$$
CHEMBL4516885
     RDKit          3D

  0  0  0  0  0  0  0  0  0  0999 V3000
M  V30 BEGIN CTAB
M  V30 COUNTS 32 34 0 0 0
M  V30 BEGIN ATOM
M  V30 1 C -1.215984 -1.165611 3.969680 0
M  V30 2 N -1.061730 -1.561446 2.598832 0
M  V30 3 C -1.516764 -2.948135 2.437308 0
M  V30 4 C -0.560199 -0.808340 1.500390 0
M  V30 5 N 0.530361 -1.184745 0.779151 0
M  V30 6 C 0.986223 -0.457142 -0.254957 0
M  V30 7 C 2.163405 -0.916487 -0.989536 0
M  V30 8 C 2.649760 -0.186033 -2.055017 0
M  V30 9 C 3.769865 -0.665263 -2.719099 0
M  V30 10 N 4.390851 -1.813037 -2.356876 0
M  V30 11 C 3.908044 -2.518514 -1.315431 0
M  V30 12 C 2.797065 -2.085559 -0.621674 0
M  V30 13 N 0.379486 0.685413 -0.626224 0
M  V30 14 C -0.722773 1.144740 0.037447 0
M  V30 15 C -1.352733 2.315794 -0.335414 0
M  V30 16 N -2.421379 2.697273 0.360874 0
M  V30 17 C -2.898056 1.997815 1.391397 0
M  V30 18 C -2.290424 0.823702 1.787936 0
M  V30 19 C -1.169200 0.377943 1.095071 0
M  V30 20 H -0.871907 -0.140909 4.202325 0
M  V30 21 H -2.261070 -1.361670 4.295300 0
M  V30 22 H -0.559370 -1.844772 4.571595 0
M  V30 23 H -1.506462 -3.172892 1.350425 0
M  V30 24 H -0.742443 -3.590548 2.899430 0
M  V30 25 H -2.527445 -3.064821 2.875601 0
M  V30 26 H 2.153998 0.743976 -2.355538 0
M  V30 27 H 4.089634 -0.033335 -3.545214 0
M  V30 28 H 4.477015 -3.434014 -1.096269 0
M  V30 29 H 2.465293 -2.701185 0.202323 0
M  V30 30 H -0.895541 2.815937 -1.182457 0
M  V30 31 H -3.771044 2.406597 1.879788 0
M  V30 32 H -2.718593 0.300972 2.626207 0
M  V30 END ATOM
M  V30 BEGIN BOND
M  V30 1 1 1 2
M  V30 2 1 2 3
M  V30 3 1 2 4
M  V30 4 2 4 5
M  V30 5 1 5 6
M  V30 6 1 6 7
M  V30 7 2 7 8
M  V30 8 1 8 9
M  V30 9 2 9 10
M  V30 10 1 10 11
M  V30 11 2 11 12
M  V30 12 2 6 13
M  V30 13 1 13 14
M  V30 14 2 14 15
M  V30 15 1 15 16
M  V30 16 2 16 17
M  V30 17 1 17 18
M  V30 18 2 18 19
M  V30 19 1 19 4
M  V30 20 1 12 7
M  V30 21 1 19 14
M  V30 22 1 1 20
M  V30 23 1 1 21
M  V30 24 1 1 22
M  V30 25 1 3 23
M  V30 26 1 3 24
M  V30 27 1 3 25
M  V30 28 1 8 26
M  V30 29 1 9 27
M  V30 30 1 11 28
M  V30 31 1 12 29
M  V30 32 1 15 30
M  V30 33 1 17 31
M  V30 34 1 18 32
M  V30 END BOND
M  V30 END CTAB
M  END
>  <Dataset>  (85) 
ChEMBL_Kinases

>  <Ligand_Instance>  (85) 
nan

>  <PDB_ID>  (85) 
nan

>  <Standardized_SMILES>  (85) 
CN(C)c1nc(-c2ccncc2)nc2cnccc12

>  <Name>  (85) 
nan

>  <Pocket>  (85) 
nan

>  <ATP_Site>  (85) 
nan

>  <Peripheral>  (85) 
nan

>  <Num_H_Atoms_ProtBoundConf>  (85) 
nan

>  <Num_Resolved_Atoms>  (85) 
nan

>  <Num_Not_Resolved_Atoms>  (85) 
nan

$$$$
CHEMBL4516855
     RDKit          3D

  0  0  0  0  0  0  0  0  0  0999 V3000
M  V30 BEGIN CTAB
M  V30 COUNTS 49 52 0 0 0
M  V30 BEGIN ATOM
M  V30 1 C 0.551028 -4.914408 2.280683 0
M  V30 2 C -0.088854 -4.808673 0.916341 0
M  V30 3 C -0.943811 -6.002853 0.635434 0
M  V30 4 C 1.021311 -4.658818 -0.110318 0
M  V30 5 N 1.798605 -3.474172 0.156666 0
M  V30 6 C 1.476755 -2.294007 -0.380032 0
M  V30 7 C 2.304382 -1.244599 -0.042110 0
M  V30 8 C 2.503376 0.176961 -0.241858 0
M  V30 9 N 3.712571 0.620679 -0.672552 0
M  V30 10 N 3.722558 1.932785 -0.806084 0
M  V30 11 C 2.522009 2.418676 -0.469411 0
M  V30 12 C 2.008189 3.695533 -0.429217 0
M  V30 13 C 0.700008 3.772007 -0.013005 0
M  V30 14 N -0.029652 2.696360 0.330454 0
M  V30 15 C 0.462115 1.445461 0.295025 0
M  V30 16 N -0.382956 0.381050 0.703476 0
M  V30 17 C -1.708975 0.698356 1.102440 0
M  V30 18 C -2.553602 1.376848 0.050710 0
M  V30 19 C -3.309275 2.550712 0.575771 0
M  V30 20 O -4.001656 2.288644 1.748369 0
M  V30 21 C -3.278536 1.580580 2.696745 0
M  V30 22 C -1.788066 1.566622 2.357758 0
M  V30 23 C 1.763220 1.326988 -0.117014 0
M  V30 24 C 3.208091 -1.935157 0.795365 0
M  V30 25 N 2.866740 -3.254083 0.882178 0
M  V30 26 H 0.059991 -5.720807 2.878503 0
M  V30 27 H 1.636778 -5.175652 2.202486 0
M  V30 28 H 0.464283 -3.940785 2.799183 0
M  V30 29 H -0.726852 -3.906792 0.854395 0
M  V30 30 H -2.044606 -5.805866 0.751477 0
M  V30 31 H -0.754507 -6.392005 -0.392547 0
M  V30 32 H -0.694180 -6.844607 1.334914 0
M  V30 33 H 1.663139 -5.565796 -0.114129 0
M  V30 34 H 0.539988 -4.615831 -1.105571 0
M  V30 35 H 0.654677 -1.997201 -1.057398 0
M  V30 36 H 4.558308 2.468746 -1.127294 0
M  V30 37 H 2.597713 4.559097 -0.705574 0
M  V30 38 H 0.207645 4.732334 0.050924 0
M  V30 39 H -0.206829 -0.627644 0.781759 0
M  V30 40 H -2.263318 -0.238785 1.392165 0
M  V30 41 H -1.877223 1.717349 -0.755765 0
M  V30 42 H -3.267508 0.634203 -0.410384 0
M  V30 43 H -4.116608 2.774634 -0.182943 0
M  V30 44 H -2.702166 3.478302 0.602697 0
M  V30 45 H -3.462506 1.918680 3.743699 0
M  V30 46 H -3.612445 0.523363 2.647730 0
M  V30 47 H -1.407328 2.575472 2.227428 0
M  V30 48 H -1.285659 1.049237 3.211716 0
M  V30 49 H 4.096535 -1.648589 1.372313 0
M  V30 END ATOM
M  V30 BEGIN BOND
M  V30 1 1 1 2
M  V30 2 1 2 3
M  V30 3 1 2 4
M  V30 4 1 4 5
M  V30 5 1 5 6
M  V30 6 2 6 7
M  V30 7 1 7 8
M  V30 8 2 8 9
M  V30 9 1 9 10
M  V30 10 1 10 11
M  V30 11 2 11 12
M  V30 12 1 12 13
M  V30 13 2 13 14
M  V30 14 1 14 15
M  V30 15 1 15 16
M  V30 16 1 16 17
M  V30 17 1 17 18
M  V30 18 1 18 19
M  V30 19 1 19 20
M  V30 20 1 20 21
M  V30 21 1 21 22
M  V30 22 2 15 23
M  V30 23 1 7 24
M  V30 24 2 24 25
M  V30 25 1 25 5
M  V30 26 1 23 8
M  V30 27 1 23 11
M  V30 28 1 22 17
M  V30 29 1 1 26
M  V30 30 1 1 27
M  V30 31 1 1 28
M  V30 32 1 2 29
M  V30 33 1 3 30
M  V30 34 1 3 31
M  V30 35 1 3 32
M  V30 36 1 4 33
M  V30 37 1 4 34
M  V30 38 1 6 35
M  V30 39 1 10 36
M  V30 40 1 12 37
M  V30 41 1 13 38
M  V30 42 1 16 39
M  V30 43 1 17 40
M  V30 44 1 18 41
M  V30 45 1 18 42
M  V30 46 1 19 43
M  V30 47 1 19 44
M  V30 48 1 21 45
M  V30 49 1 21 46
M  V30 50 1 22 47
M  V30 51 1 22 48
M  V30 52 1 24 49
M  V30 END BOND
M  V30 END CTAB
M  END
>  <Dataset>  (86) 
ChEMBL_Kinases

>  <Ligand_Instance>  (86) 
nan

>  <PDB_ID>  (86) 
nan

>  <Standardized_SMILES>  (86) 
CC(C)Cn1cc(-c2n[nH]c3ccnc(NC4CCOCC4)c23)cn1

>  <Name>  (86) 
nan

>  <Pocket>  (86) 
nan

>  <ATP_Site>  (86) 
nan

>  <Peripheral>  (86) 
nan

>  <Num_H_Atoms_ProtBoundConf>  (86) 
nan

>  <Num_Resolved_Atoms>  (86) 
nan

>  <Num_Not_Resolved_Atoms>  (86) 
nan

$$$$
CHEMBL4516825
     RDKit          3D

  0  0  0  0  0  0  0  0  0  0999 V3000
M  V30 BEGIN CTAB
M  V30 COUNTS 49 53 0 0 0
M  V30 BEGIN ATOM
M  V30 1 O 2.107211 -1.862447 3.231115 0
M  V30 2 N 2.671542 -1.310439 2.254828 0 CHG=1 VAL=4
M  V30 3 O 1.710673 -1.852388 1.443990 0 CHG=-1 VAL=1
M  V30 4 C 3.803425 -0.487005 2.061700 0
M  V30 5 C 4.829569 -0.621560 2.963946 0
M  V30 6 C 5.982674 0.141929 2.770290 0
M  V30 7 C 6.021456 0.984091 1.685394 0
M  V30 8 C 4.967112 1.062811 0.838899 0
M  V30 9 C 3.773815 0.330319 0.965671 0
M  V30 10 S 2.515130 0.631735 -0.197895 0
M  V30 11 O 2.130486 -0.695876 -0.885514 0
M  V30 12 O 3.129022 1.416765 -1.363265 0
M  V30 13 N 1.186938 1.480061 0.319854 0
M  V30 14 C 0.311597 1.080444 1.312576 0
M  V30 15 C -0.869769 0.242874 0.943323 0
M  V30 16 C -1.512851 0.752551 -0.300955 0
M  V30 17 C -0.799865 1.704976 -0.947593 0
M  V30 18 S -1.837044 2.125003 -2.415231 0
M  V30 19 C -3.103009 0.987648 -2.006310 0
M  V30 20 N -4.285390 0.682773 -2.632603 0
M  V30 21 C -5.129800 -0.216994 -2.169660 0
M  V30 22 N -4.772679 -0.827088 -1.042613 0
M  V30 23 C -3.637090 -0.569210 -0.394187 0
M  V30 24 N -3.489287 -1.350773 0.784651 0
M  V30 25 C -2.975007 -2.651179 1.039458 0
M  V30 26 C -2.963463 -3.045916 2.360532 0
M  V30 27 C -2.467657 -4.317855 2.607316 0
M  V30 28 C -2.020133 -5.110459 1.548160 0
M  V30 29 Br -1.358319 -6.854572 2.028305 0
M  V30 30 C -2.045413 -4.684462 0.235937 0
M  V30 31 C -2.538236 -3.417184 -0.018016 0
M  V30 32 C -2.711457 0.355909 -0.820492 0
M  V30 33 C 0.495339 2.300914 -0.615477 0
M  V30 34 H 4.735468 -1.298531 3.792355 0
M  V30 35 H 6.767311 0.008294 3.499007 0
M  V30 36 H 6.926561 1.563380 1.557427 0
M  V30 37 H 5.099629 1.756790 0.016271 0
M  V30 38 H 0.808687 0.626269 2.178553 0
M  V30 39 H -0.149420 2.048417 1.740875 0
M  V30 40 H -1.599131 0.333716 1.808863 0
M  V30 41 H -0.712899 -0.822291 0.830100 0
M  V30 42 H -5.978961 -0.286948 -2.821142 0
M  V30 43 H -3.875824 -0.704270 1.491639 0
M  V30 44 H -3.307862 -2.432393 3.170733 0
M  V30 45 H -2.443384 -4.665796 3.638162 0
M  V30 46 H -1.685138 -5.342026 -0.539107 0
M  V30 47 H -2.554929 -3.089902 -1.049080 0
M  V30 48 H 1.144573 2.484176 -1.493465 0
M  V30 49 H 0.298700 3.308267 -0.161722 0
M  V30 END ATOM
M  V30 BEGIN BOND
M  V30 1 2 1 2
M  V30 2 1 2 3
M  V30 3 1 2 4
M  V30 4 2 4 5
M  V30 5 1 5 6
M  V30 6 2 6 7
M  V30 7 1 7 8
M  V30 8 2 8 9
M  V30 9 1 9 10
M  V30 10 2 10 11
M  V30 11 2 10 12
M  V30 12 1 10 13
M  V30 13 1 13 14
M  V30 14 1 14 15
M  V30 15 1 15 16
M  V30 16 2 16 17
M  V30 17 1 17 18
M  V30 18 1 18 19
M  V30 19 2 19 20
M  V30 20 1 20 21
M  V30 21 2 21 22
M  V30 22 1 22 23
M  V30 23 1 23 24
M  V30 24 1 24 25
M  V30 25 2 25 26
M  V30 26 1 26 27
M  V30 27 2 27 28
M  V30 28 1 28 29
M  V30 29 1 28 30
M  V30 30 2 30 31
M  V30 31 2 23 32
M  V30 32 1 17 33
M  V30 33 1 9 4
M  V30 34 1 33 13
M  V30 35 1 32 16
M  V30 36 1 32 19
M  V30 37 1 31 25
M  V30 38 1 5 34
M  V30 39 1 6 35
M  V30 40 1 7 36
M  V30 41 1 8 37
M  V30 42 1 14 38
M  V30 43 1 14 39
M  V30 44 1 15 40
M  V30 45 1 15 41
M  V30 46 1 21 42
M  V30 47 1 24 43
M  V30 48 1 26 44
M  V30 49 1 27 45
M  V30 50 1 30 46
M  V30 51 1 31 47
M  V30 52 1 33 48
M  V30 53 1 33 49
M  V30 END BOND
M  V30 END CTAB
M  END
>  <Dataset>  (87) 
ChEMBL_Kinases

>  <Ligand_Instance>  (87) 
nan

>  <PDB_ID>  (87) 
nan

>  <Standardized_SMILES>  (87) 
O=[N+]([O-])c1ccccc1S(=O)(=O)N1CCc2c(sc3ncnc(Nc4ccc(Br)cc4)c23)C1

>  <Name>  (87) 
nan

>  <Pocket>  (87) 
nan

>  <ATP_Site>  (87) 
nan

>  <Peripheral>  (87) 
nan

>  <Num_H_Atoms_ProtBoundConf>  (87) 
nan

>  <Num_Resolved_Atoms>  (87) 
nan

>  <Num_Not_Resolved_Atoms>  (87) 
nan

$$$$
CHEMBL4516822
     RDKit          3D

  0  0  0  0  0  0  0  0  0  0999 V3000
M  V30 BEGIN CTAB
M  V30 COUNTS 38 41 0 0 0
M  V30 BEGIN ATOM
M  V30 1 C 1.734188 -4.334012 1.718112 0
M  V30 2 C 1.873783 -3.480796 2.952491 0
M  V30 3 C 0.574918 -2.756158 3.267721 0
M  V30 4 N 0.086704 -1.882757 2.278584 0
M  V30 5 C -0.401539 -1.009053 1.289188 0
M  V30 6 N 0.154319 0.073675 0.728695 0
M  V30 7 C -0.453213 0.795522 -0.214007 0
M  V30 8 C 0.248062 1.951751 -0.750981 0
M  V30 9 C -0.332096 2.731882 -1.726698 0
M  V30 10 N 0.581465 3.711473 -1.996322 0
M  V30 11 C 1.663052 3.530363 -1.218760 0
M  V30 12 N 2.819893 4.217012 -1.107643 0
M  V30 13 C 3.733963 3.783911 -0.221688 0
M  V30 14 N 3.556385 2.702432 0.559746 0
M  V30 15 C 2.429606 1.968923 0.504381 0
M  V30 16 C 1.498599 2.417111 -0.403884 0
M  V30 17 N -1.665087 0.387379 -0.585547 0
M  V30 18 C -2.332626 -0.668524 -0.111653 0
M  V30 19 C -3.575561 -0.903207 -0.641581 0
M  V30 20 N -4.229056 -1.979864 -0.141174 0
M  V30 21 C -3.670255 -2.747636 0.810814 0
M  V30 22 C -2.418370 -2.478540 1.317810 0
M  V30 23 C -1.676622 -1.394999 0.862892 0
M  V30 24 H 0.759871 -4.876190 1.702736 0
M  V30 25 H 2.524884 -5.123480 1.711335 0
M  V30 26 H 1.822954 -3.755194 0.793466 0
M  V30 27 H 2.721392 -2.787060 2.776859 0
M  V30 28 H 2.115014 -4.129477 3.806913 0
M  V30 29 H 0.637828 -2.324024 4.306284 0
M  V30 30 H -0.152068 -3.629900 3.453945 0
M  V30 31 H 1.024196 -1.386816 2.434148 0
M  V30 32 H -1.319714 2.590114 -2.185449 0
M  V30 33 H 0.386896 4.447291 -2.711163 0
M  V30 34 H 4.642378 4.374214 -0.175917 0
M  V30 35 H 2.263270 1.096482 1.121352 0
M  V30 36 H -3.985428 -0.256972 -1.407819 0
M  V30 37 H -4.197944 -3.603521 1.203900 0
M  V30 38 H -1.969322 -3.092491 2.081096 0
M  V30 END ATOM
M  V30 BEGIN BOND
M  V30 1 1 1 2
M  V30 2 1 2 3
M  V30 3 1 3 4
M  V30 4 1 4 5
M  V30 5 2 5 6
M  V30 6 1 6 7
M  V30 7 1 7 8
M  V30 8 2 8 9
M  V30 9 1 9 10
M  V30 10 1 10 11
M  V30 11 2 11 12
M  V30 12 1 12 13
M  V30 13 2 13 14
M  V30 14 1 14 15
M  V30 15 2 15 16
M  V30 16 2 7 17
M  V30 17 1 17 18
M  V30 18 2 18 19
M  V30 19 1 19 20
M  V30 20 2 20 21
M  V30 21 1 21 22
M  V30 22 2 22 23
M  V30 23 1 23 5
M  V30 24 1 16 8
M  V30 25 1 23 18
M  V30 26 1 16 11
M  V30 27 1 1 24
M  V30 28 1 1 25
M  V30 29 1 1 26
M  V30 30 1 2 27
M  V30 31 1 2 28
M  V30 32 1 3 29
M  V30 33 1 3 30
M  V30 34 1 4 31
M  V30 35 1 9 32
M  V30 36 1 10 33
M  V30 37 1 13 34
M  V30 38 1 15 35
M  V30 39 1 19 36
M  V30 40 1 21 37
M  V30 41 1 22 38
M  V30 END BOND
M  V30 END CTAB
M  END
>  <Dataset>  (88) 
ChEMBL_Kinases

>  <Ligand_Instance>  (88) 
nan

>  <PDB_ID>  (88) 
nan

>  <Standardized_SMILES>  (88) 
CCCNc1nc(-c2c[nH]c3ncncc23)nc2cnccc12

>  <Name>  (88) 
nan

>  <Pocket>  (88) 
nan

>  <ATP_Site>  (88) 
nan

>  <Peripheral>  (88) 
nan

>  <Num_H_Atoms_ProtBoundConf>  (88) 
nan

>  <Num_Resolved_Atoms>  (88) 
nan

>  <Num_Not_Resolved_Atoms>  (88) 
nan

$$$$
CHEMBL4648033
     RDKit          3D

  0  0  0  0  0  0  0  0  0  0999 V3000
M  V30 BEGIN CTAB
M  V30 COUNTS 55 59 0 0 0
M  V30 BEGIN ATOM
M  V30 1 C 5.284630 -3.157144 3.319306 0
M  V30 2 C 4.275596 -3.703969 2.364401 0
M  V30 3 O 3.647986 -4.855933 2.854597 0
M  V30 4 C 3.185792 -2.754235 2.093589 0
M  V30 5 C 2.299862 -1.955091 1.873707 0
M  V30 6 C 1.250704 -0.997346 1.628111 0
M  V30 7 C 1.596741 0.339397 1.620591 0
M  V30 8 C 0.674691 1.344133 1.395861 0
M  V30 9 C -0.630351 0.947407 1.175224 0
M  V30 10 N -1.542646 2.016992 0.944458 0
M  V30 11 C -2.429126 2.488817 -0.103984 0
M  V30 12 C -1.947168 3.816739 -0.653981 0
M  V30 13 O -1.341954 4.501304 0.400537 0
M  V30 14 C -2.059026 4.254588 1.583126 0
M  V30 15 C -1.610816 2.904405 2.103146 0
M  V30 16 C -0.978053 -0.389087 1.182535 0
M  V30 17 N -2.317914 -0.759222 0.955991 0
M  V30 18 C -3.394316 -0.721725 0.061376 0
M  V30 19 C -4.601435 -0.134458 0.364687 0
M  V30 20 C -5.580701 -0.163277 -0.602831 0
M  V30 21 N -5.342009 -0.747198 -1.786436 0
M  V30 22 C -4.186871 -1.326050 -2.117130 0
M  V30 23 N -3.783540 -1.944578 -3.232872 0
M  V30 24 C -2.524584 -2.360467 -3.077026 0
M  V30 25 C -2.126205 -1.977839 -1.792543 0
M  V30 26 C -3.178072 -1.314803 -1.164761 0
M  V30 27 C -0.054515 -1.393069 1.407501 0
M  V30 28 C 4.920892 -4.155322 1.076018 0
M  V30 29 N 4.511033 -4.628577 0.095023 0
M  V30 30 C 5.215962 -4.975186 -0.966104 0
M  V30 31 C 6.685010 -4.725233 -0.874951 0
M  V30 32 S 6.781139 -3.976720 0.864769 0
M  V30 33 H 5.157982 -3.653833 4.296349 0
M  V30 34 H 6.287749 -3.317341 2.880101 0
M  V30 35 H 5.080662 -2.068572 3.448533 0
M  V30 36 H 2.925427 -5.059897 2.178913 0
M  V30 37 H 2.630797 0.617363 1.797262 0
M  V30 38 H 1.031454 2.364852 1.407250 0
M  V30 39 H -3.477410 2.528281 0.190697 0
M  V30 40 H -2.358877 1.774054 -0.972306 0
M  V30 41 H -1.303115 3.717494 -1.526968 0
M  V30 42 H -2.835254 4.410307 -0.949845 0
M  V30 43 H -1.939918 5.062027 2.320185 0
M  V30 44 H -3.142977 4.254954 1.302656 0
M  V30 45 H -0.647786 3.056775 2.584057 0
M  V30 46 H -2.404283 2.538398 2.784902 0
M  V30 47 H -2.673662 -1.285243 1.806346 0
M  V30 48 H -4.673772 0.299811 1.341726 0
M  V30 49 H -6.518278 0.305652 -0.336516 0
M  V30 50 H -4.384549 -2.062651 -4.067782 0
M  V30 51 H -1.968281 -2.889604 -3.837795 0
M  V30 52 H -1.170530 -2.159602 -1.352528 0
M  V30 53 H -0.326864 -2.439069 1.413181 0
M  V30 54 H 4.705268 -5.406057 -1.812412 0
M  V30 55 H 7.250562 -5.026287 -1.780693 0
M  V30 END ATOM
M  V30 BEGIN BOND
M  V30 1 1 1 2
M  V30 2 1 2 3
M  V30 3 1 2 4
M  V30 4 3 4 5
M  V30 5 1 5 6
M  V30 6 2 6 7
M  V30 7 1 7 8
M  V30 8 2 8 9
M  V30 9 1 9 10
M  V30 10 1 10 11
M  V30 11 1 11 12
M  V30 12 1 12 13
M  V30 13 1 13 14
M  V30 14 1 14 15
M  V30 15 1 9 16
M  V30 16 1 16 17
M  V30 17 1 17 18
M  V30 18 2 18 19
M  V30 19 1 19 20
M  V30 20 2 20 21
M  V30 21 1 21 22
M  V30 22 1 22 23
M  V30 23 1 23 24
M  V30 24 2 24 25
M  V30 25 1 25 26
M  V30 26 2 16 27
M  V30 27 1 2 28
M  V30 28 2 28 29
M  V30 29 1 29 30
M  V30 30 2 30 31
M  V30 31 1 31 32
M  V30 32 1 27 6
M  V30 33 1 32 28
M  V30 34 1 15 10
M  V30 35 1 26 18
M  V30 36 2 26 22
M  V30 37 1 1 33
M  V30 38 1 1 34
M  V30 39 1 1 35
M  V30 40 1 3 36
M  V30 41 1 7 37
M  V30 42 1 8 38
M  V30 43 1 11 39
M  V30 44 1 11 40
M  V30 45 1 12 41
M  V30 46 1 12 42
M  V30 47 1 14 43
M  V30 48 1 14 44
M  V30 49 1 15 45
M  V30 50 1 15 46
M  V30 51 1 17 47
M  V30 52 1 19 48
M  V30 53 1 20 49
M  V30 54 1 23 50
M  V30 55 1 24 51
M  V30 56 1 25 52
M  V30 57 1 27 53
M  V30 58 1 30 54
M  V30 59 1 31 55
M  V30 END BOND
M  V30 END CTAB
M  END
>  <Dataset>  (89) 
ChEMBL_Kinases

>  <Ligand_Instance>  (89) 
nan

>  <PDB_ID>  (89) 
nan

>  <Standardized_SMILES>  (89) 
CC(O)(C#Cc1ccc(N2CCOCC2)c(Nc2ccnc3[nH]ccc23)c1)c1nccs1

>  <Name>  (89) 
nan

>  <Pocket>  (89) 
nan

>  <ATP_Site>  (89) 
nan

>  <Peripheral>  (89) 
nan

>  <Num_H_Atoms_ProtBoundConf>  (89) 
nan

>  <Num_Resolved_Atoms>  (89) 
nan

>  <Num_Not_Resolved_Atoms>  (89) 
nan

$$$$
CHEMBL4648050
     RDKit          3D

  0  0  0  0  0  0  0  0  0  0999 V3000
M  V30 BEGIN CTAB
M  V30 COUNTS 50 53 0 0 0
M  V30 BEGIN ATOM
M  V30 1 C -0.577121 -3.063007 4.956506 0
M  V30 2 C 0.701443 -2.969684 4.609653 0
M  V30 3 C 0.950618 -2.672823 3.208079 0
M  V30 4 O -0.146211 -2.567936 2.614259 0
M  V30 5 N 2.192785 -2.515086 2.551823 0
M  V30 6 C 2.406729 -2.229959 1.182283 0
M  V30 7 C 3.714724 -2.144251 0.797957 0
M  V30 8 C 4.030009 -1.886825 -0.520128 0
M  V30 9 C 3.084396 -1.704716 -1.504855 0
M  V30 10 C 1.765962 -1.792593 -1.108358 0
M  V30 11 C 0.629455 -1.653502 -2.044176 0
M  V30 12 C -0.513692 -0.982124 -1.970948 0
M  V30 13 C -0.974963 -0.146415 -0.873864 0
M  V30 14 C -0.085382 0.740020 -0.261189 0
M  V30 15 N -0.679684 1.438296 0.736650 0
M  V30 16 C -0.087211 2.449085 1.593961 0
M  V30 17 C 0.725934 3.441782 0.771856 0
M  V30 18 C 0.694812 1.888363 2.739874 0
M  V30 19 C -1.947087 0.994500 0.758548 0
M  V30 20 N -3.010378 1.305188 1.526831 0
M  V30 21 C -4.212748 0.721202 1.375167 0
M  V30 22 C -4.400171 -0.243635 0.398359 0
M  V30 23 C -3.349533 -0.614631 -0.430342 0
M  V30 24 C -2.160009 0.037999 -0.199176 0
M  V30 25 C -1.234018 -1.234301 -3.212131 0
M  V30 26 O -2.358286 -0.818395 -3.609501 0
M  V30 27 N -0.479857 -2.099406 -4.062506 0
M  V30 28 C 0.719464 -2.366638 -3.305898 0
M  V30 29 O 1.622721 -3.119509 -3.784913 0
M  V30 30 C 1.465810 -2.047586 0.199151 0
M  V30 31 H -0.774541 -3.286917 6.015637 0
M  V30 32 H -1.395165 -2.941433 4.271539 0
M  V30 33 H 1.509373 -3.110494 5.310231 0
M  V30 34 H 2.954293 -2.643593 3.240514 0
M  V30 35 H 4.558929 -2.267305 1.479045 0
M  V30 36 H 5.060189 -1.818844 -0.818380 0
M  V30 37 H 3.252634 -1.501789 -2.544950 0
M  V30 38 H 0.976525 0.914275 -0.494338 0
M  V30 39 H -0.941428 3.022411 2.061869 0
M  V30 40 H 0.891815 3.098102 -0.260957 0
M  V30 41 H 1.686854 3.672398 1.289944 0
M  V30 42 H 0.179359 4.403454 0.691824 0
M  V30 43 H 0.224261 0.923556 3.021798 0
M  V30 44 H 1.774836 1.802276 2.534451 0
M  V30 45 H 0.618774 2.570833 3.624073 0
M  V30 46 H -5.037670 1.009459 2.021656 0
M  V30 47 H -5.381650 -0.691275 0.307396 0
M  V30 48 H -3.458067 -1.358975 -1.189990 0
M  V30 49 H -0.715110 -2.467913 -5.010687 0
M  V30 50 H 0.428798 -2.113075 0.485620 0
M  V30 END ATOM
M  V30 BEGIN BOND
M  V30 1 2 1 2
M  V30 2 1 2 3
M  V30 3 2 3 4
M  V30 4 1 3 5
M  V30 5 1 5 6
M  V30 6 2 6 7
M  V30 7 1 7 8
M  V30 8 2 8 9
M  V30 9 1 9 10
M  V30 10 1 10 11
M  V30 11 2 11 12
M  V30 12 1 12 13
M  V30 13 2 13 14
M  V30 14 1 14 15
M  V30 15 1 15 16
M  V30 16 1 16 17
M  V30 17 1 16 18
M  V30 18 1 15 19
M  V30 19 2 19 20
M  V30 20 1 20 21
M  V30 21 2 21 22
M  V30 22 1 22 23
M  V30 23 2 23 24
M  V30 24 1 12 25
M  V30 25 2 25 26
M  V30 26 1 25 27
M  V30 27 1 27 28
M  V30 28 2 28 29
M  V30 29 2 10 30
M  V30 30 1 30 6
M  V30 31 1 28 11
M  V30 32 1 24 13
M  V30 33 1 24 19
M  V30 34 1 1 31
M  V30 35 1 1 32
M  V30 36 1 2 33
M  V30 37 1 5 34
M  V30 38 1 7 35
M  V30 39 1 8 36
M  V30 40 1 9 37
M  V30 41 1 14 38
M  V30 42 1 16 39
M  V30 43 1 17 40
M  V30 44 1 17 41
M  V30 45 1 17 42
M  V30 46 1 18 43
M  V30 47 1 18 44
M  V30 48 1 18 45
M  V30 49 1 21 46
M  V30 50 1 22 47
M  V30 51 1 23 48
M  V30 52 1 27 49
M  V30 53 1 30 50
M  V30 END BOND
M  V30 END CTAB
M  END
>  <Dataset>  (90) 
ChEMBL_Kinases

>  <Ligand_Instance>  (90) 
nan

>  <PDB_ID>  (90) 
nan

>  <Standardized_SMILES>  (90) 
C=CC(=O)Nc1cccc(C2=C(c3cn(C(C)C)c4ncccc34)C(=O)NC2=O)c1

>  <Name>  (90) 
nan

>  <Pocket>  (90) 
nan

>  <ATP_Site>  (90) 
nan

>  <Peripheral>  (90) 
nan

>  <Num_H_Atoms_ProtBoundConf>  (90) 
nan

>  <Num_Resolved_Atoms>  (90) 
nan

>  <Num_Not_Resolved_Atoms>  (90) 
nan

$$$$
CHEMBL464859
     RDKit          3D

  0  0  0  0  0  0  0  0  0  0999 V3000
M  V30 BEGIN CTAB
M  V30 COUNTS 38 40 0 0 0
M  V30 BEGIN ATOM
M  V30 1 C 1.801534 -6.185120 2.326917 0
M  V30 2 C 2.215045 -4.901910 1.629715 0
M  V30 3 N 1.252326 -3.883298 2.019748 0
M  V30 4 C 1.412794 -2.574808 1.499720 0
M  V30 5 O 2.338496 -2.238693 0.719743 0
M  V30 6 C 0.439414 -1.520737 1.886627 0 CFG=1
M  V30 7 O 0.709916 -0.308900 1.315922 0
M  V30 8 C -0.481290 0.219976 0.836436 0 CFG=1
M  V30 9 N -0.293546 1.280670 -0.092439 0
M  V30 10 C -0.199003 1.086580 -1.436727 0
M  V30 11 N -0.024542 2.309283 -2.014445 0
M  V30 12 C -0.010307 3.241142 -1.059953 0
M  V30 13 C 0.121948 4.612389 -0.963052 0
M  V30 14 N 0.300101 5.347334 -2.171354 0
M  V30 15 N 0.092635 5.293360 0.200996 0
M  V30 16 C -0.075193 4.620982 1.363222 0
M  V30 17 N -0.207214 3.283663 1.304395 0
M  V30 18 C -0.180089 2.591451 0.152532 0
M  V30 19 C -1.099955 -1.016278 0.199704 0 CFG=2
M  V30 20 O -2.433397 -0.780552 -0.108711 0
M  V30 21 C -0.928106 -1.980851 1.367539 0 CFG=2
M  V30 22 O -1.908983 -1.704621 2.296939 0
M  V30 23 H 1.928640 -7.066109 1.660574 0
M  V30 24 H 0.739937 -6.132269 2.685165 0
M  V30 25 H 2.457452 -6.377118 3.222355 0
M  V30 26 H 3.249427 -4.666738 1.949896 0
M  V30 27 H 2.257167 -5.046310 0.533307 0
M  V30 28 H 0.438174 -4.070938 2.672497 0
M  V30 29 H 0.411779 -1.370411 2.984959 0
M  V30 30 H -1.169374 0.460505 1.693209 0
M  V30 31 H -0.240345 0.187130 -2.033728 0
M  V30 32 H 0.957411 5.832401 -2.818745 0
M  V30 33 H -0.644194 5.462051 -2.630261 0
M  V30 34 H -0.086289 5.237894 2.235971 0
M  V30 35 H -0.496077 -1.351909 -0.683376 0
M  V30 36 H -2.693749 -1.355947 -0.861257 0
M  V30 37 H -0.906405 -3.025611 1.040851 0
M  V30 38 H -1.571420 -1.328816 3.157291 0
M  V30 END ATOM
M  V30 BEGIN BOND
M  V30 1 1 1 2
M  V30 2 1 2 3
M  V30 3 1 3 4
M  V30 4 2 4 5
M  V30 5 1 4 6
M  V30 6 1 6 7
M  V30 7 1 7 8
M  V30 8 1 8 9
M  V30 9 1 9 10
M  V30 10 2 10 11
M  V30 11 1 11 12
M  V30 12 2 12 13
M  V30 13 1 13 14
M  V30 14 1 13 15
M  V30 15 2 15 16
M  V30 16 1 16 17
M  V30 17 2 17 18
M  V30 18 1 8 19
M  V30 19 1 19 20
M  V30 20 1 19 21
M  V30 21 1 21 22
M  V30 22 1 21 6
M  V30 23 1 18 9
M  V30 24 1 18 12
M  V30 25 1 1 23
M  V30 26 1 1 24
M  V30 27 1 1 25
M  V30 28 1 2 26
M  V30 29 1 2 27
M  V30 30 1 3 28
M  V30 31 1 6 29 CFG=1
M  V30 32 1 8 30 CFG=1
M  V30 33 1 10 31
M  V30 34 1 14 32
M  V30 35 1 14 33
M  V30 36 1 16 34
M  V30 37 1 19 35 CFG=3
M  V30 38 1 20 36
M  V30 39 1 21 37 CFG=3
M  V30 40 1 22 38
M  V30 END BOND
M  V30 END CTAB
M  END
>  <Dataset>  (91) 
ChEMBL_Kinases

>  <Ligand_Instance>  (91) 
nan

>  <PDB_ID>  (91) 
nan

>  <Standardized_SMILES>  (91) 
CCNC(=O)[C@H]1O[C@@H](n2cnc3c(N)ncnc32)[C@H](O)[C@@H]1O

>  <Name>  (91) 
NECA

>  <Pocket>  (91) 
nan

>  <ATP_Site>  (91) 
nan

>  <Peripheral>  (91) 
nan

>  <Num_H_Atoms_ProtBoundConf>  (91) 
nan

>  <Num_Resolved_Atoms>  (91) 
nan

>  <Num_Not_Resolved_Atoms>  (91) 
nan

$$$$
CHEMBL4648213
     RDKit          3D

  0  0  0  0  0  0  0  0  0  0999 V3000
M  V30 BEGIN CTAB
M  V30 COUNTS 60 64 0 0 0
M  V30 BEGIN ATOM
M  V30 1 C 4.322841 -3.854957 4.090736 0
M  V30 2 N 3.448821 -3.185412 3.188394 0
M  V30 3 C 2.689202 -2.109407 3.703204 0
M  V30 4 C 3.304658 -0.809621 3.226203 0
M  V30 5 C 3.015918 -0.788242 1.717593 0
M  V30 6 O 1.651011 -0.990836 1.592799 0
M  V30 7 C 0.694918 -0.167035 1.072751 0
M  V30 8 C 1.055983 1.066877 0.578022 0
M  V30 9 C 0.045613 1.848226 0.068267 0
M  V30 10 C -1.266627 1.469552 0.029657 0
M  V30 11 C -2.295465 2.313804 -0.511561 0
M  V30 12 C -3.157330 3.014780 -0.985523 0
M  V30 13 C -4.219058 3.861147 -1.588167 0
M  V30 14 C -5.540693 3.602262 -0.892521 0
M  V30 15 O -3.794214 5.161176 -1.466818 0
M  V30 16 C -4.397245 3.418371 -3.010815 0
M  V30 17 N -4.194277 2.254202 -3.614644 0
M  V30 18 C -4.465004 2.229838 -4.905674 0
M  V30 19 C -4.964825 3.449178 -5.609130 0
M  V30 20 S -4.969221 4.599385 -4.099878 0
M  V30 21 C -1.554229 0.232981 0.537298 0
M  V30 22 C -0.617952 -0.655248 1.082913 0
M  V30 23 N -0.911019 -1.909966 1.612823 0
M  V30 24 C -0.638153 -3.261034 1.413741 0
M  V30 25 N -1.136808 -4.147266 2.322402 0
M  V30 26 C -0.926861 -5.464108 2.205063 0
M  V30 27 N -0.218028 -5.967491 1.190091 0
M  V30 28 C 0.299776 -5.159075 0.263047 0
M  V30 29 N 1.032611 -5.397291 -0.839574 0
M  V30 30 C 1.298924 -4.222619 -1.442082 0
M  V30 31 C 0.702234 -3.237409 -0.670634 0
M  V30 32 C 0.081123 -3.821410 0.390400 0
M  V30 33 C 3.863095 -1.873870 1.127101 0
M  V30 34 C 3.792119 -3.182010 1.823615 0
M  V30 35 H 4.562641 -3.199902 4.960891 0
M  V30 36 H 5.223236 -4.280307 3.633667 0
M  V30 37 H 3.734362 -4.699276 4.544368 0
M  V30 38 H 1.642132 -2.147235 3.336374 0
M  V30 39 H 2.670109 -2.176998 4.802200 0
M  V30 40 H 4.391453 -0.771921 3.416244 0
M  V30 41 H 2.740190 0.010239 3.672983 0
M  V30 42 H 3.404030 0.175181 1.342678 0
M  V30 43 H 2.040875 1.462139 0.557219 0
M  V30 44 H 0.287391 2.834091 -0.334868 0
M  V30 45 H -6.035741 2.691942 -1.280481 0
M  V30 46 H -6.222844 4.444886 -1.148302 0
M  V30 47 H -5.462126 3.509791 0.194183 0
M  V30 48 H -4.533637 5.793682 -1.547329 0
M  V30 49 H -4.233374 1.191924 -5.211187 0
M  V30 50 H -5.088363 3.009607 -6.770771 0
M  V30 51 H -2.599869 -0.102996 0.522090 0
M  V30 52 H -1.540024 -1.618403 2.406312 0
M  V30 53 H -1.337677 -6.134766 2.945095 0
M  V30 54 H 1.380167 -6.313072 -1.234682 0
M  V30 55 H 1.867005 -4.031623 -2.357451 0
M  V30 56 H 0.741374 -2.205053 -0.903901 0
M  V30 57 H 3.491106 -2.018378 0.071726 0
M  V30 58 H 4.902271 -1.498304 1.021087 0
M  V30 59 H 4.795627 -3.668919 1.715394 0
M  V30 60 H 3.104522 -3.918765 1.312228 0
M  V30 END ATOM
M  V30 BEGIN BOND
M  V30 1 1 1 2
M  V30 2 1 2 3
M  V30 3 1 3 4
M  V30 4 1 4 5
M  V30 5 1 5 6
M  V30 6 1 6 7
M  V30 7 2 7 8
M  V30 8 1 8 9
M  V30 9 2 9 10
M  V30 10 1 10 11
M  V30 11 3 11 12
M  V30 12 1 12 13
M  V30 13 1 13 14
M  V30 14 1 13 15
M  V30 15 1 13 16
M  V30 16 2 16 17
M  V30 17 1 17 18
M  V30 18 2 18 19
M  V30 19 1 19 20
M  V30 20 1 10 21
M  V30 21 2 21 22
M  V30 22 1 22 23
M  V30 23 1 23 24
M  V30 24 2 24 25
M  V30 25 1 25 26
M  V30 26 2 26 27
M  V30 27 1 27 28
M  V30 28 1 28 29
M  V30 29 1 29 30
M  V30 30 2 30 31
M  V30 31 1 31 32
M  V30 32 1 5 33
M  V30 33 1 33 34
M  V30 34 1 34 2
M  V30 35 1 22 7
M  V30 36 1 32 24
M  V30 37 1 20 16
M  V30 38 2 32 28
M  V30 39 1 1 35
M  V30 40 1 1 36
M  V30 41 1 1 37
M  V30 42 1 3 38
M  V30 43 1 3 39
M  V30 44 1 4 40
M  V30 45 1 4 41
M  V30 46 1 5 42
M  V30 47 1 8 43
M  V30 48 1 9 44
M  V30 49 1 14 45
M  V30 50 1 14 46
M  V30 51 1 14 47
M  V30 52 1 15 48
M  V30 53 1 18 49
M  V30 54 1 19 50
M  V30 55 1 21 51
M  V30 56 1 23 52
M  V30 57 1 26 53
M  V30 58 1 29 54
M  V30 59 1 30 55
M  V30 60 1 31 56
M  V30 61 1 33 57
M  V30 62 1 33 58
M  V30 63 1 34 59
M  V30 64 1 34 60
M  V30 END BOND
M  V30 END CTAB
M  END
>  <Dataset>  (92) 
ChEMBL_Kinases

>  <Ligand_Instance>  (92) 
nan

>  <PDB_ID>  (92) 
nan

>  <Standardized_SMILES>  (92) 
CN1CCC(Oc2ccc(C#CC(C)(O)c3nccs3)cc2Nc2ncnc3[nH]ccc23)CC1

>  <Name>  (92) 
nan

>  <Pocket>  (92) 
nan

>  <ATP_Site>  (92) 
nan

>  <Peripheral>  (92) 
nan

>  <Num_H_Atoms_ProtBoundConf>  (92) 
nan

>  <Num_Resolved_Atoms>  (92) 
nan

>  <Num_Not_Resolved_Atoms>  (92) 
nan

$$$$
CHEMBL4516559
     RDKit          3D

  0  0  0  0  0  0  0  0  0  0999 V3000
M  V30 BEGIN CTAB
M  V30 COUNTS 40 42 0 0 0
M  V30 BEGIN ATOM
M  V30 1 C -1.140963 -4.882803 0.753083 0
M  V30 2 C -0.763125 -3.447619 0.798703 0
M  V30 3 C 0.298349 -2.997458 0.046620 0
M  V30 4 N 0.670980 -1.712861 0.059428 0
M  V30 5 C 0.050813 -0.786104 0.791153 0
M  V30 6 N 0.391578 0.574334 0.848632 0
M  V30 7 C 1.431632 1.248175 0.169807 0
M  V30 8 C 2.331657 0.677821 -0.700557 0
M  V30 9 C 3.340974 1.342085 -1.356802 0
M  V30 10 C 3.489688 2.695526 -1.145523 0
M  V30 11 C 4.543661 3.433644 -1.819890 0
M  V30 12 N 4.818496 4.737226 -1.723120 0
M  V30 13 N 5.836801 5.020469 -2.480140 0
M  V30 14 N 6.232508 3.912513 -3.073208 0
M  V30 15 N 5.445116 2.934855 -2.673990 0
M  V30 16 C 2.619819 3.320182 -0.286278 0
M  V30 17 C 1.636524 2.594084 0.333678 0
M  V30 18 N -0.984472 -1.223788 1.525005 0
M  V30 19 C -1.405950 -2.494123 1.555429 0
M  V30 20 O -2.480185 -2.901708 2.328413 0
M  V30 21 C -3.240315 -2.054206 3.154388 0
M  V30 22 C -3.236140 -2.474058 4.592021 0
M  V30 23 C -4.665565 -2.058269 2.589458 0
M  V30 24 H -0.215379 -5.477195 0.735961 0
M  V30 25 H -1.724911 -5.172628 1.651003 0
M  V30 26 H -1.737746 -5.135046 -0.164108 0
M  V30 27 H 0.867903 -3.686661 -0.585556 0
M  V30 28 H -0.193986 1.199194 1.477485 0
M  V30 29 H 2.281964 -0.365735 -0.916162 0
M  V30 30 H 4.023755 0.848167 -2.032129 0
M  V30 31 H 5.513570 1.947911 -2.971746 0
M  V30 32 H 2.752096 4.371715 -0.135681 0
M  V30 33 H 0.992949 3.186244 1.001327 0
M  V30 34 H -2.864141 -1.010612 3.106828 0
M  V30 35 H -3.083845 -1.625544 5.289627 0
M  V30 36 H -2.455606 -3.236603 4.792201 0
M  V30 37 H -4.211748 -2.944089 4.874501 0
M  V30 38 H -4.636544 -1.801597 1.520833 0
M  V30 39 H -5.274187 -1.308893 3.107899 0
M  V30 40 H -5.052546 -3.094988 2.667237 0
M  V30 END ATOM
M  V30 BEGIN BOND
M  V30 1 1 1 2
M  V30 2 2 2 3
M  V30 3 1 3 4
M  V30 4 2 4 5
M  V30 5 1 5 6
M  V30 6 1 6 7
M  V30 7 2 7 8
M  V30 8 1 8 9
M  V30 9 2 9 10
M  V30 10 1 10 11
M  V30 11 2 11 12
M  V30 12 1 12 13
M  V30 13 2 13 14
M  V30 14 1 14 15
M  V30 15 1 10 16
M  V30 16 2 16 17
M  V30 17 1 5 18
M  V30 18 2 18 19
M  V30 19 1 19 20
M  V30 20 1 20 21
M  V30 21 1 21 22
M  V30 22 1 21 23
M  V30 23 1 19 2
M  V30 24 1 17 7
M  V30 25 1 15 11
M  V30 26 1 1 24
M  V30 27 1 1 25
M  V30 28 1 1 26
M  V30 29 1 3 27
M  V30 30 1 6 28
M  V30 31 1 8 29
M  V30 32 1 9 30
M  V30 33 1 15 31
M  V30 34 1 16 32
M  V30 35 1 17 33
M  V30 36 1 21 34
M  V30 37 1 22 35
M  V30 38 1 22 36
M  V30 39 1 22 37
M  V30 40 1 23 38
M  V30 41 1 23 39
M  V30 42 1 23 40
M  V30 END BOND
M  V30 END CTAB
M  END
>  <Dataset>  (93) 
ChEMBL_Kinases

>  <Ligand_Instance>  (93) 
nan

>  <PDB_ID>  (93) 
nan

>  <Standardized_SMILES>  (93) 
Cc1cnc(Nc2ccc(-c3nnn[nH]3)cc2)nc1OC(C)C

>  <Name>  (93) 
nan

>  <Pocket>  (93) 
nan

>  <ATP_Site>  (93) 
nan

>  <Peripheral>  (93) 
nan

>  <Num_H_Atoms_ProtBoundConf>  (93) 
nan

>  <Num_Resolved_Atoms>  (93) 
nan

>  <Num_Not_Resolved_Atoms>  (93) 
nan

$$$$
CHEMBL4515962
     RDKit          3D

  0  0  0  0  0  0  0  0  0  0999 V3000
M  V30 BEGIN CTAB
M  V30 COUNTS 40 43 0 0 0
M  V30 BEGIN ATOM
M  V30 1 C 1.513612 -2.536921 2.851775 0
M  V30 2 C 1.680511 -1.488173 1.814131 0
M  V30 3 C 2.904371 -0.919348 1.540410 0
M  V30 4 N 3.070801 0.031341 0.603655 0
M  V30 5 C 2.068093 0.514759 -0.150019 0
M  V30 6 C 2.393516 1.539828 -1.122831 0
M  V30 7 C 3.704497 1.952644 -1.213695 0
M  V30 8 C 4.108387 2.921241 -2.108324 0
M  V30 9 Cl 5.784153 3.418071 -2.192703 0
M  V30 10 C 3.222457 3.535712 -2.967143 0
M  V30 11 C 1.903193 3.142231 -2.898306 0
M  V30 12 C 1.540856 2.172334 -1.991741 0
M  V30 13 F 0.234871 1.835622 -1.977982 0
M  V30 14 C 0.853659 -0.057215 0.129351 0
M  V30 15 C 0.628118 -1.016418 1.059797 0
M  V30 16 N -0.678409 -1.544878 1.270850 0
M  V30 17 C -1.237185 -2.529816 0.516688 0
M  V30 18 O -0.725327 -3.134541 -0.469196 0
M  V30 19 N -2.462499 -2.757504 1.012715 0
M  V30 20 C -3.390299 -3.751968 0.473641 0
M  V30 21 C -2.682929 -1.937777 2.059593 0
M  V30 22 C -3.767580 -1.758907 2.921953 0
M  V30 23 N -3.675011 -0.831505 3.897217 0
M  V30 24 C -2.574059 -0.070309 4.070855 0
M  V30 25 C -1.457300 -0.201100 3.242355 0
M  V30 26 C -1.551161 -1.156738 2.236464 0
M  V30 27 H 1.549422 -3.556231 2.387537 0
M  V30 28 H 2.344034 -2.485120 3.588992 0
M  V30 29 H 0.514176 -2.469971 3.315124 0
M  V30 30 H 3.795840 -1.225217 2.082833 0
M  V30 31 H 4.486954 1.540982 -0.590150 0
M  V30 32 H 3.531287 4.290901 -3.666211 0
M  V30 33 H 1.174574 3.598130 -3.553683 0
M  V30 34 H 0.008372 0.276255 -0.429725 0
M  V30 35 H -4.231808 -3.862414 1.200884 0
M  V30 36 H -2.905418 -4.706608 0.252305 0
M  V30 37 H -3.757256 -3.322600 -0.491738 0
M  V30 38 H -4.661191 -2.368199 2.790527 0
M  V30 39 H -2.488311 0.676095 4.848904 0
M  V30 40 H -0.566530 0.394887 3.360716 0
M  V30 END ATOM
M  V30 BEGIN BOND
M  V30 1 1 1 2
M  V30 2 2 2 3
M  V30 3 1 3 4
M  V30 4 2 4 5
M  V30 5 1 5 6
M  V30 6 2 6 7
M  V30 7 1 7 8
M  V30 8 1 8 9
M  V30 9 2 8 10
M  V30 10 1 10 11
M  V30 11 2 11 12
M  V30 12 1 12 13
M  V30 13 1 5 14
M  V30 14 2 14 15
M  V30 15 1 15 16
M  V30 16 1 16 17
M  V30 17 2 17 18
M  V30 18 1 17 19
M  V30 19 1 19 20
M  V30 20 1 19 21
M  V30 21 2 21 22
M  V30 22 1 22 23
M  V30 23 2 23 24
M  V30 24 1 24 25
M  V30 25 2 25 26
M  V30 26 1 15 2
M  V30 27 1 26 16
M  V30 28 1 12 6
M  V30 29 1 26 21
M  V30 30 1 1 27
M  V30 31 1 1 28
M  V30 32 1 1 29
M  V30 33 1 3 30
M  V30 34 1 7 31
M  V30 35 1 10 32
M  V30 36 1 11 33
M  V30 37 1 14 34
M  V30 38 1 20 35
M  V30 39 1 20 36
M  V30 40 1 20 37
M  V30 41 1 22 38
M  V30 42 1 24 39
M  V30 43 1 25 40
M  V30 END BOND
M  V30 END CTAB
M  END
>  <Dataset>  (94) 
ChEMBL_Kinases

>  <Ligand_Instance>  (94) 
nan

>  <PDB_ID>  (94) 
nan

>  <Standardized_SMILES>  (94) 
Cc1cnc(-c2cc(Cl)ccc2F)cc1-n1c(=O)n(C)c2cnccc21

>  <Name>  (94) 
nan

>  <Pocket>  (94) 
nan

>  <ATP_Site>  (94) 
nan

>  <Peripheral>  (94) 
nan

>  <Num_H_Atoms_ProtBoundConf>  (94) 
nan

>  <Num_Resolved_Atoms>  (94) 
nan

>  <Num_Not_Resolved_Atoms>  (94) 
nan

$$$$
CHEMBL4515873
     RDKit          3D

  0  0  0  0  0  0  0  0  0  0999 V3000
M  V30 BEGIN CTAB
M  V30 COUNTS 46 49 0 0 0
M  V30 BEGIN ATOM
M  V30 1 C -1.546734 -6.897801 -1.413967 0
M  V30 2 O -1.708648 -5.663473 -0.757664 0
M  V30 3 C -0.869179 -4.569114 -0.898114 0
M  V30 4 C 0.234712 -4.536327 -1.695219 0
M  V30 5 C 1.023105 -3.385552 -1.773670 0
M  V30 6 C 0.672407 -2.276537 -1.033028 0
M  V30 7 C 1.426922 -1.011148 -1.041462 0
M  V30 8 C 2.065860 -0.650140 -2.204366 0
M  V30 9 N 2.776400 0.480882 -2.314060 0
M  V30 10 C 2.889942 1.323812 -1.257185 0
M  V30 11 N 3.498192 2.500254 -1.017090 0
M  V30 12 C 3.277922 2.908297 0.245716 0
M  V30 13 C 2.479358 1.941459 0.865615 0
M  V30 14 N 1.995320 1.966260 2.226830 0
M  V30 15 C 0.734770 2.609815 2.262352 0
M  V30 16 O 0.315156 3.010326 1.147028 0
M  V30 17 C -0.079485 2.835432 3.438770 0
M  V30 18 C -1.290750 3.490708 3.228492 0
M  V30 19 C -2.125711 3.738699 4.324607 0
M  V30 20 N -1.759342 3.345107 5.578142 0
M  V30 21 C -0.585979 2.714315 5.759016 0
M  V30 22 C 0.282934 2.441516 4.708790 0
M  V30 23 C 2.252568 0.969707 -0.087151 0
M  V30 24 C 1.501086 -0.199502 0.072445 0
M  V30 25 C -0.451822 -2.292546 -0.213569 0
M  V30 26 C -1.225614 -3.457168 -0.151974 0
M  V30 27 O -2.348905 -3.455549 0.674135 0
M  V30 28 C -2.653710 -2.294493 1.402903 0
M  V30 29 H -0.464756 -7.095077 -1.632508 0
M  V30 30 H -1.959388 -7.679212 -0.717235 0
M  V30 31 H -2.119221 -6.945738 -2.369573 0
M  V30 32 H 0.499060 -5.415744 -2.272554 0
M  V30 33 H 1.899236 -3.332956 -2.394694 0
M  V30 34 H 2.027315 -1.263660 -3.093963 0
M  V30 35 H 4.056128 2.965870 -1.790048 0
M  V30 36 H 3.655851 3.822561 0.691444 0
M  V30 37 H 2.378308 1.616575 3.152279 0
M  V30 38 H -1.688316 3.848540 2.290364 0
M  V30 39 H -3.086614 4.248003 4.218268 0
M  V30 40 H -0.319348 2.410840 6.773535 0
M  V30 41 H 1.239745 1.927022 4.857216 0
M  V30 42 H 1.009181 -0.468300 0.982193 0
M  V30 43 H -0.727458 -1.427633 0.365897 0
M  V30 44 H -2.738201 -1.429286 0.696872 0
M  V30 45 H -3.654370 -2.392825 1.909088 0
M  V30 46 H -1.899629 -2.022685 2.144998 0
M  V30 END ATOM
M  V30 BEGIN BOND
M  V30 1 1 1 2
M  V30 2 1 2 3
M  V30 3 2 3 4
M  V30 4 1 4 5
M  V30 5 2 5 6
M  V30 6 1 6 7
M  V30 7 2 7 8
M  V30 8 1 8 9
M  V30 9 2 9 10
M  V30 10 1 10 11
M  V30 11 1 11 12
M  V30 12 2 12 13
M  V30 13 1 13 14
M  V30 14 1 14 15
M  V30 15 2 15 16
M  V30 16 1 15 17
M  V30 17 2 17 18
M  V30 18 1 18 19
M  V30 19 2 19 20
M  V30 20 1 20 21
M  V30 21 2 21 22
M  V30 22 1 13 23
M  V30 23 2 23 24
M  V30 24 1 6 25
M  V30 25 2 25 26
M  V30 26 1 26 27
M  V30 27 1 27 28
M  V30 28 1 26 3
M  V30 29 1 24 7
M  V30 30 1 23 10
M  V30 31 1 22 17
M  V30 32 1 1 29
M  V30 33 1 1 30
M  V30 34 1 1 31
M  V30 35 1 4 32
M  V30 36 1 5 33
M  V30 37 1 8 34
M  V30 38 1 11 35
M  V30 39 1 12 36
M  V30 40 1 14 37
M  V30 41 1 18 38
M  V30 42 1 19 39
M  V30 43 1 21 40
M  V30 44 1 22 41
M  V30 45 1 24 42
M  V30 46 1 25 43
M  V30 47 1 28 44
M  V30 48 1 28 45
M  V30 49 1 28 46
M  V30 END BOND
M  V30 END CTAB
M  END
>  <Dataset>  (95) 
ChEMBL_Kinases

>  <Ligand_Instance>  (95) 
nan

>  <PDB_ID>  (95) 
nan

>  <Standardized_SMILES>  (95) 
COc1ccc(-c2cnc3[nH]cc(NC(=O)c4ccncc4)c3c2)cc1OC

>  <Name>  (95) 
nan

>  <Pocket>  (95) 
nan

>  <ATP_Site>  (95) 
nan

>  <Peripheral>  (95) 
nan

>  <Num_H_Atoms_ProtBoundConf>  (95) 
nan

>  <Num_Resolved_Atoms>  (95) 
nan

>  <Num_Not_Resolved_Atoms>  (95) 
nan

$$$$
CHEMBL4515859
     RDKit          3D

  0  0  0  0  0  0  0  0  0  0999 V3000
M  V30 BEGIN CTAB
M  V30 COUNTS 35 37 0 0 0
M  V30 BEGIN ATOM
M  V30 1 O 3.582452 -0.519157 2.524354 0
M  V30 2 C 2.507828 -0.621003 1.859377 0
M  V30 3 N 1.794846 -1.844208 1.759684 0
M  V30 4 C 1.912010 -3.179435 2.229944 0
M  V30 5 C 2.609672 -4.113734 1.456238 0
M  V30 6 C 2.734734 -5.417821 1.894466 0
M  V30 7 C 2.137319 -5.704492 3.107746 0
M  V30 8 N 1.462789 -4.810765 3.860879 0
M  V30 9 C 1.327771 -3.519672 3.447590 0
M  V30 10 C 1.878738 0.473373 1.129736 0
M  V30 11 C 0.742521 0.566369 0.355473 0
M  V30 12 C 0.563698 1.843448 -0.126071 0
M  V30 13 C -0.518923 2.354317 -0.943268 0
M  V30 14 O -0.163589 3.332117 -1.669183 0
M  V30 15 C -1.911511 1.979915 -1.100795 0
M  V30 16 C -2.555547 2.441377 -2.219694 0
M  V30 17 F -1.970832 3.204131 -3.190236 0
M  V30 18 C -3.904428 2.173577 -2.485506 0
M  V30 19 C -4.599334 1.399248 -1.552512 0
M  V30 20 C -3.939097 0.945666 -0.437590 0
M  V30 21 C -2.608998 1.215900 -0.184381 0
M  V30 22 F -2.054096 0.751412 0.951529 0
M  V30 23 C 1.629326 2.557352 0.370132 0
M  V30 24 N 2.378590 1.719607 1.102281 0
M  V30 25 H 0.910719 -1.979131 1.227685 0
M  V30 26 H 3.069162 -3.876924 0.513873 0
M  V30 27 H 3.243278 -6.234210 1.399791 0
M  V30 28 H 2.119653 -6.657184 3.622020 0
M  V30 29 H 0.811864 -2.735078 3.973278 0
M  V30 30 H 0.162323 -0.337819 0.211853 0
M  V30 31 H -4.411890 2.537296 -3.367167 0
M  V30 32 H -5.658860 1.194864 -1.771183 0
M  V30 33 H -4.504081 0.347693 0.267354 0
M  V30 34 H 1.850084 3.618980 0.212289 0
M  V30 35 H 3.265973 2.022535 1.599307 0
M  V30 END ATOM
M  V30 BEGIN BOND
M  V30 1 2 1 2
M  V30 2 1 2 3
M  V30 3 1 3 4
M  V30 4 2 4 5
M  V30 5 1 5 6
M  V30 6 2 6 7
M  V30 7 1 7 8
M  V30 8 2 8 9
M  V30 9 1 2 10
M  V30 10 2 10 11
M  V30 11 1 11 12
M  V30 12 1 12 13
M  V30 13 2 13 14
M  V30 14 1 13 15
M  V30 15 2 15 16
M  V30 16 1 16 17
M  V30 17 1 16 18
M  V30 18 2 18 19
M  V30 19 1 19 20
M  V30 20 2 20 21
M  V30 21 1 21 22
M  V30 22 2 12 23
M  V30 23 1 23 24
M  V30 24 1 9 4
M  V30 25 1 24 10
M  V30 26 1 21 15
M  V30 27 1 3 25
M  V30 28 1 5 26
M  V30 29 1 6 27
M  V30 30 1 7 28
M  V30 31 1 9 29
M  V30 32 1 11 30
M  V30 33 1 18 31
M  V30 34 1 19 32
M  V30 35 1 20 33
M  V30 36 1 23 34
M  V30 37 1 24 35
M  V30 END BOND
M  V30 END CTAB
M  END
>  <Dataset>  (96) 
ChEMBL_Kinases

>  <Ligand_Instance>  (96) 
nan

>  <PDB_ID>  (96) 
nan

>  <Standardized_SMILES>  (96) 
O=C(Nc1cccnc1)c1cc(C(=O)c2c(F)cccc2F)c[nH]1

>  <Name>  (96) 
nan

>  <Pocket>  (96) 
nan

>  <ATP_Site>  (96) 
nan

>  <Peripheral>  (96) 
nan

>  <Num_H_Atoms_ProtBoundConf>  (96) 
nan

>  <Num_Resolved_Atoms>  (96) 
nan

>  <Num_Not_Resolved_Atoms>  (96) 
nan

$$$$
CHEMBL451570
     RDKit          3D

  0  0  0  0  0  0  0  0  0  0999 V3000
M  V30 BEGIN CTAB
M  V30 COUNTS 34 36 0 0 0
M  V30 BEGIN ATOM
M  V30 1 N -0.350762 -5.857593 3.037024 0
M  V30 2 C 0.625433 -4.943062 2.554334 0
M  V30 3 N 1.966763 -5.061513 2.623785 0
M  V30 4 C 2.754587 -4.090062 2.109871 0
M  V30 5 C 2.183812 -2.972889 1.511897 0
M  V30 6 C 0.810628 -2.850185 1.440031 0
M  V30 7 C 0.170690 -1.692609 0.820206 0
M  V30 8 C -1.198402 -1.543000 0.734040 0
M  V30 9 C -1.437703 -0.344117 0.094070 0
M  V30 10 C -0.199957 0.234239 -0.208217 0
M  V30 11 N 0.756980 -0.621965 0.252482 0
M  V30 12 C -0.024039 1.556946 -0.910418 0 CFG=2
M  V30 13 C 0.278226 2.577852 0.124091 0
M  V30 14 C 0.493451 3.970744 -0.337481 0
M  V30 15 F -0.624300 4.454211 -0.981540 0
M  V30 16 C -1.232375 1.798963 -1.740507 0
M  V30 17 N -2.474874 1.644874 -0.973926 0
M  V30 18 C -2.665191 0.381929 -0.300172 0
M  V30 19 O -3.809583 -0.122525 -0.036489 0
M  V30 20 N 0.090369 -3.874031 1.982179 0
M  V30 21 H -0.141674 -6.044515 4.057928 0
M  V30 22 H -0.063083 -5.975675 4.033123 0
M  V30 23 H 3.832815 -4.236655 2.193065 0
M  V30 24 H 2.832192 -2.200058 1.103158 0
M  V30 25 H -1.969228 -2.213580 1.087742 0
M  V30 26 H 1.805491 -0.535882 0.211519 0
M  V30 27 H 0.841497 1.471480 -1.587705 0
M  V30 28 H 1.094829 2.208052 0.778111 0
M  V30 29 H -0.618019 2.606452 0.812696 0
M  V30 30 H 0.612795 4.602754 0.567210 0
M  V30 31 H 1.419576 4.120972 -0.926049 0
M  V30 32 H -1.258623 0.961531 -2.500282 0
M  V30 33 H -1.234736 2.710010 -2.329249 0
M  V30 34 H -3.269191 2.335425 -0.838285 0
M  V30 END ATOM
M  V30 BEGIN BOND
M  V30 1 1 1 2
M  V30 2 2 2 3
M  V30 3 1 3 4
M  V30 4 2 4 5
M  V30 5 1 5 6
M  V30 6 1 6 7
M  V30 7 2 7 8
M  V30 8 1 8 9
M  V30 9 2 9 10
M  V30 10 1 10 11
M  V30 11 1 10 12
M  V30 12 1 12 13
M  V30 13 1 13 14
M  V30 14 1 14 15
M  V30 15 1 12 16
M  V30 16 1 16 17
M  V30 17 1 17 18
M  V30 18 2 18 19
M  V30 19 2 6 20
M  V30 20 1 20 2
M  V30 21 1 11 7
M  V30 22 1 18 9
M  V30 23 1 1 21
M  V30 24 1 1 22
M  V30 25 1 4 23
M  V30 26 1 5 24
M  V30 27 1 8 25
M  V30 28 1 11 26
M  V30 29 1 12 27 CFG=3
M  V30 30 1 13 28
M  V30 31 1 13 29
M  V30 32 1 14 30
M  V30 33 1 14 31
M  V30 34 1 16 32
M  V30 35 1 16 33
M  V30 36 1 17 34
M  V30 END BOND
M  V30 END CTAB
M  END
>  <Dataset>  (97) 
ChEMBL_Kinases

>  <Ligand_Instance>  (97) 
nan

>  <PDB_ID>  (97) 
nan

>  <Standardized_SMILES>  (97) 
Nc1nccc(-c2cc3c([nH]2)[C@H](CCF)CNC3=O)n1

>  <Name>  (97) 
nan

>  <Pocket>  (97) 
nan

>  <ATP_Site>  (97) 
nan

>  <Peripheral>  (97) 
nan

>  <Num_H_Atoms_ProtBoundConf>  (97) 
nan

>  <Num_Resolved_Atoms>  (97) 
nan

>  <Num_Not_Resolved_Atoms>  (97) 
nan

$$$$
CHEMBL4515689
     RDKit          3D

  0  0  0  0  0  0  0  0  0  0999 V3000
M  V30 BEGIN CTAB
M  V30 COUNTS 48 51 0 0 0
M  V30 BEGIN ATOM
M  V30 1 C 3.119223 -6.662368 0.834413 0
M  V30 2 N 3.220074 -5.868967 -0.363086 0
M  V30 3 N 3.673032 -6.440546 -1.496125 0
M  V30 4 C 3.604603 -5.531041 -2.477108 0
M  V30 5 C 3.094742 -4.434786 -1.830553 0
M  V30 6 Cl 2.938601 -3.107597 -2.972580 0
M  V30 7 C 2.843439 -4.616558 -0.495993 0
M  V30 8 C 2.256709 -3.597027 0.296843 0
M  V30 9 C 1.806758 -2.402218 -0.158799 0
M  V30 10 C 1.331090 -1.427248 0.612333 0
M  V30 11 C 0.804980 -0.124159 0.366526 0
M  V30 12 O 0.702637 0.382885 -0.779321 0
M  V30 13 N 0.372033 0.640365 1.492698 0
M  V30 14 C -0.170261 1.961119 1.276405 0 CFG=2
M  V30 15 C 0.817213 3.005412 1.816031 0
M  V30 16 N 0.279140 4.249046 1.244209 0
M  V30 17 C -0.889213 4.570169 1.984419 0
M  V30 18 C -1.942266 3.542572 2.108002 0
M  V30 19 C -1.516322 2.122853 1.927356 0 CFG=1
M  V30 20 C -2.580763 1.376170 1.211630 0
M  V30 21 C -3.257066 0.372843 1.891306 0
M  V30 22 C -4.259052 -0.350989 1.252096 0
M  V30 23 C -4.611977 -0.095618 -0.074096 0
M  V30 24 C -3.891699 0.908600 -0.659020 0
M  V30 25 F -4.207619 1.192768 -1.964012 0
M  V30 26 C -2.886314 1.663634 -0.079993 0
M  V30 27 S 1.480138 -2.181747 2.345052 0
M  V30 28 C 2.189486 -3.741614 1.660785 0
M  V30 29 Cl 2.501708 -4.696327 3.075875 0
M  V30 30 H 3.213355 -7.766913 0.553858 0
M  V30 31 H 2.118527 -6.581418 1.289922 0
M  V30 32 H 3.924112 -6.433865 1.529366 0
M  V30 33 H 3.947256 -5.895207 -3.426781 0
M  V30 34 H 1.754731 -2.064052 -1.176597 0
M  V30 35 H 0.433033 0.276123 2.486152 0
M  V30 36 H -0.177348 2.154399 0.177791 0
M  V30 37 H 0.773385 3.059585 2.909991 0
M  V30 38 H 1.805038 2.817789 1.396429 0
M  V30 39 H 0.172469 4.170377 0.218152 0
M  V30 40 H -0.527500 4.931888 2.993182 0
M  V30 41 H -1.300426 5.519296 1.526811 0
M  V30 42 H -2.397235 3.686803 3.135435 0
M  V30 43 H -2.783528 3.811175 1.432178 0
M  V30 44 H -1.440734 1.660055 2.933524 0
M  V30 45 H -3.024200 0.124103 2.938502 0
M  V30 46 H -4.789052 -1.141804 1.795420 0
M  V30 47 H -5.382387 -0.634256 -0.604482 0
M  V30 48 H -2.398525 2.429083 -0.659422 0
M  V30 END ATOM
M  V30 BEGIN BOND
M  V30 1 1 1 2
M  V30 2 1 2 3
M  V30 3 2 3 4
M  V30 4 1 4 5
M  V30 5 1 5 6
M  V30 6 2 5 7
M  V30 7 1 7 8
M  V30 8 1 8 9
M  V30 9 2 9 10
M  V30 10 1 10 11
M  V30 11 2 11 12
M  V30 12 1 11 13
M  V30 13 1 13 14
M  V30 14 1 14 15
M  V30 15 1 15 16
M  V30 16 1 16 17
M  V30 17 1 17 18
M  V30 18 1 18 19
M  V30 19 1 19 20
M  V30 20 2 20 21
M  V30 21 1 21 22
M  V30 22 2 22 23
M  V30 23 1 23 24
M  V30 24 1 24 25
M  V30 25 2 24 26
M  V30 26 1 10 27
M  V30 27 1 27 28
M  V30 28 1 28 29
M  V30 29 1 7 2
M  V30 30 2 28 8
M  V30 31 1 19 14
M  V30 32 1 26 20
M  V30 33 1 1 30
M  V30 34 1 1 31
M  V30 35 1 1 32
M  V30 36 1 4 33
M  V30 37 1 9 34
M  V30 38 1 13 35
M  V30 39 1 14 36 CFG=3
M  V30 40 1 15 37
M  V30 41 1 15 38
M  V30 42 1 16 39
M  V30 43 1 17 40
M  V30 44 1 17 41
M  V30 45 1 18 42
M  V30 46 1 18 43
M  V30 47 1 19 44 CFG=1
M  V30 48 1 21 45
M  V30 49 1 22 46
M  V30 50 1 23 47
M  V30 51 1 26 48
M  V30 END BOND
M  V30 END CTAB
M  END
>  <Dataset>  (98) 
ChEMBL_Kinases

>  <Ligand_Instance>  (98) 
nan

>  <PDB_ID>  (98) 
nan

>  <Standardized_SMILES>  (98) 
Cn1ncc(Cl)c1-c1cc(C(=O)N[C@@H]2CNCC[C@H]2c2cccc(F)c2)sc1Cl

>  <Name>  (98) 
nan

>  <Pocket>  (98) 
nan

>  <ATP_Site>  (98) 
nan

>  <Peripheral>  (98) 
nan

>  <Num_H_Atoms_ProtBoundConf>  (98) 
nan

>  <Num_Resolved_Atoms>  (98) 
nan

>  <Num_Not_Resolved_Atoms>  (98) 
nan

$$$$
CHEMBL4648499
     RDKit          3D

  0  0  0  0  0  0  0  0  0  0999 V3000
M  V30 BEGIN CTAB
M  V30 COUNTS 48 52 0 0 0
M  V30 BEGIN ATOM
M  V30 1 O -2.999833 -4.637854 0.926647 0
M  V30 2 C -2.181491 -3.495063 1.097872 0
M  V30 3 C -0.909817 -3.768907 0.388425 0
M  V30 4 C -0.216588 -2.629390 -0.261253 0
M  V30 5 N -0.805775 -1.376013 0.154994 0
M  V30 6 C -0.010372 -0.199791 0.231417 0
M  V30 7 N -0.316609 0.647857 -0.745408 0
M  V30 8 C 0.254867 1.823250 -0.988777 0
M  V30 9 C -0.081802 2.751045 -2.059639 0
M  V30 10 C -1.092424 2.409776 -2.931088 0
M  V30 11 C -1.389853 3.307065 -3.935285 0
M  V30 12 N -0.720794 4.483356 -4.070592 0
M  V30 13 C 0.266939 4.827603 -3.226906 0
M  V30 14 C 0.585451 3.949250 -2.213386 0
M  V30 15 N 1.239757 2.152347 -0.136660 0
M  V30 16 C 1.604036 1.346974 0.874386 0
M  V30 17 S 2.816514 1.439125 2.164773 0
M  V30 18 C 2.442886 -0.139851 2.937551 0
M  V30 19 C 1.433310 -0.622214 2.169514 0
M  V30 20 C 0.994723 0.125818 1.110778 0
M  V30 21 C 1.023511 -1.933110 2.740108 0
M  V30 22 C 1.111873 -1.846218 4.272410 0
M  V30 23 C 2.564916 -1.861488 4.609903 0
M  V30 24 C 3.167847 -0.602309 4.091832 0
M  V30 25 C -2.170046 -1.061204 0.537127 0
M  V30 26 C -2.986482 -2.335837 0.629284 0
M  V30 27 H -2.457741 -5.448193 0.796333 0
M  V30 28 H -2.019976 -3.466543 2.215804 0
M  V30 29 H -0.182998 -4.222595 1.136066 0
M  V30 30 H -1.010965 -4.603819 -0.369420 0
M  V30 31 H 0.871061 -2.658655 -0.032697 0
M  V30 32 H -0.362767 -2.653109 -1.391461 0
M  V30 33 H -1.616738 1.468334 -2.810348 0
M  V30 34 H -2.185915 3.035157 -4.619418 0
M  V30 35 H 0.821483 5.755497 -3.303773 0
M  V30 36 H 1.379251 4.153062 -1.480769 0
M  V30 37 H 1.604285 -2.786755 2.371615 0
M  V30 38 H -0.072980 -2.117844 2.574738 0
M  V30 39 H 0.528834 -2.692319 4.684764 0
M  V30 40 H 0.698190 -0.847373 4.527552 0
M  V30 41 H 2.713605 -1.872205 5.715451 0
M  V30 42 H 3.103459 -2.724386 4.134905 0
M  V30 43 H 3.216627 0.177317 4.906224 0
M  V30 44 H 4.229197 -0.795662 3.825059 0
M  V30 45 H -2.241922 -0.453513 1.451365 0
M  V30 46 H -2.604902 -0.454137 -0.286693 0
M  V30 47 H -3.771640 -2.156164 1.392937 0
M  V30 48 H -3.518167 -2.557520 -0.311538 0
M  V30 END ATOM
M  V30 BEGIN BOND
M  V30 1 1 1 2
M  V30 2 1 2 3
M  V30 3 1 3 4
M  V30 4 1 4 5
M  V30 5 1 5 6
M  V30 6 2 6 7
M  V30 7 1 7 8
M  V30 8 1 8 9
M  V30 9 2 9 10
M  V30 10 1 10 11
M  V30 11 2 11 12
M  V30 12 1 12 13
M  V30 13 2 13 14
M  V30 14 2 8 15
M  V30 15 1 15 16
M  V30 16 1 16 17
M  V30 17 1 17 18
M  V30 18 2 18 19
M  V30 19 1 19 20
M  V30 20 1 19 21
M  V30 21 1 21 22
M  V30 22 1 22 23
M  V30 23 1 23 24
M  V30 24 1 5 25
M  V30 25 1 25 26
M  V30 26 1 26 2
M  V30 27 1 20 6
M  V30 28 1 14 9
M  V30 29 2 20 16
M  V30 30 1 24 18
M  V30 31 1 1 27
M  V30 32 1 2 28
M  V30 33 1 3 29
M  V30 34 1 3 30
M  V30 35 1 4 31
M  V30 36 1 4 32
M  V30 37 1 10 33
M  V30 38 1 11 34
M  V30 39 1 13 35
M  V30 40 1 14 36
M  V30 41 1 21 37
M  V30 42 1 21 38
M  V30 43 1 22 39
M  V30 44 1 22 40
M  V30 45 1 23 41
M  V30 46 1 23 42
M  V30 47 1 24 43
M  V30 48 1 24 44
M  V30 49 1 25 45
M  V30 50 1 25 46
M  V30 51 1 26 47
M  V30 52 1 26 48
M  V30 END BOND
M  V30 END CTAB
M  END
>  <Dataset>  (99) 
ChEMBL_Kinases

>  <Ligand_Instance>  (99) 
nan

>  <PDB_ID>  (99) 
nan

>  <Standardized_SMILES>  (99) 
OC1CCN(c2nc(-c3ccncc3)nc3sc4c(c23)CCCC4)CC1

>  <Name>  (99) 
nan

>  <Pocket>  (99) 
nan

>  <ATP_Site>  (99) 
nan

>  <Peripheral>  (99) 
nan

>  <Num_H_Atoms_ProtBoundConf>  (99) 
nan

>  <Num_Resolved_Atoms>  (99) 
nan

>  <Num_Not_Resolved_Atoms>  (99) 
nan

$$$$
CHEMBL4515682
     RDKit          3D

  0  0  0  0  0  0  0  0  0  0999 V3000
M  V30 BEGIN CTAB
M  V30 COUNTS 62 67 0 0 0
M  V30 BEGIN ATOM
M  V30 1 O -1.179235 0.235509 1.686164 0
M  V30 2 C -1.533549 -0.666735 2.549264 0
M  V30 3 N -0.573994 -1.729577 2.300340 0
M  V30 4 C 0.203612 -1.116618 1.282069 0
M  V30 5 C 1.121613 -0.179952 1.806070 0
M  V30 6 C 1.924599 0.532810 0.951906 0
M  V30 7 O 2.825464 1.448400 1.244301 0
M  V30 8 C 3.304048 1.836011 0.091604 0
M  V30 9 N 4.269247 2.771345 -0.329146 0
M  V30 10 C 5.448839 2.913178 -1.137506 0
M  V30 11 C 5.019604 3.808036 -2.317029 0
M  V30 12 O 4.744053 5.065724 -1.774209 0
M  V30 13 C 3.633392 4.953324 -0.962502 0
M  V30 14 C 3.923697 4.069687 0.245663 0
M  V30 15 N 2.708282 1.160007 -0.921245 0
M  V30 16 C 1.810136 0.307790 -0.401276 0
M  V30 17 C 0.914154 -0.605673 -0.878931 0
M  V30 18 C 0.098662 -1.332373 -0.047977 0
M  V30 19 N -0.676763 -2.277835 -0.745669 0
M  V30 20 C -1.461747 -1.997227 -1.911787 0
M  V30 21 C -1.592655 -3.308236 -2.717972 0
M  V30 22 C -2.289313 -4.357361 -1.906547 0
M  V30 23 C -1.963528 -5.714974 -2.480904 0
M  V30 24 O -0.581946 -5.916243 -2.429686 0
M  V30 25 C -1.947304 -4.299234 -0.429293 0
M  V30 26 C -0.616417 -3.658054 -0.264922 0
M  V30 27 C -2.658091 -0.451240 3.469001 0
M  V30 28 C -2.968941 0.896535 3.686024 0
M  V30 29 N -3.979764 0.950564 4.565322 0
M  V30 30 N -4.312782 -0.263888 4.901915 0
M  V30 31 C -5.225607 -0.815674 5.718146 0
M  V30 32 C -5.375003 -2.193243 5.901151 0
M  V30 33 C -4.505242 -2.996791 5.173248 0
M  V30 34 N -3.546284 -2.512869 4.319907 0
M  V30 35 C -3.527480 -1.150656 4.251655 0
M  V30 36 H -0.783803 -2.535844 2.921892 0
M  V30 37 H 1.202513 -0.012243 2.877861 0
M  V30 38 H 5.826034 1.937996 -1.515458 0
M  V30 39 H 6.220451 3.441308 -0.571799 0
M  V30 40 H 4.109908 3.396745 -2.779009 0
M  V30 41 H 5.887640 3.888993 -3.016506 0
M  V30 42 H 3.375823 5.963887 -0.591087 0
M  V30 43 H 2.792280 4.485790 -1.511057 0
M  V30 44 H 4.817890 4.500189 0.760800 0
M  V30 45 H 3.029186 4.087479 0.865329 0
M  V30 46 H 0.938688 -0.672949 -1.967499 0
M  V30 47 H -2.471383 -1.648226 -1.738861 0
M  V30 48 H -0.986921 -1.289309 -2.632386 0
M  V30 49 H -0.594046 -3.602432 -3.087634 0
M  V30 50 H -2.220684 -3.106239 -3.601653 0
M  V30 51 H -3.397284 -4.226245 -2.009843 0
M  V30 52 H -2.197390 -5.684668 -3.586496 0
M  V30 53 H -2.469552 -6.541762 -1.962731 0
M  V30 54 H -0.307243 -6.678723 -3.010034 0
M  V30 55 H -2.741677 -3.801505 0.142834 0
M  V30 56 H -1.927380 -5.354712 -0.031117 0
M  V30 57 H -0.161957 -3.739858 0.724411 0
M  V30 58 H 0.079252 -4.201018 -0.980464 0
M  V30 59 H -2.667430 1.912233 3.385091 0
M  V30 60 H -5.865901 -0.100186 6.254471 0
M  V30 61 H -6.114835 -2.591981 6.561798 0
M  V30 62 H -4.607122 -4.053428 5.295702 0
M  V30 END ATOM
M  V30 BEGIN BOND
M  V30 1 2 1 2
M  V30 2 1 2 3
M  V30 3 1 3 4
M  V30 4 2 4 5
M  V30 5 1 5 6
M  V30 6 1 6 7
M  V30 7 1 7 8
M  V30 8 1 8 9
M  V30 9 1 9 10
M  V30 10 1 10 11
M  V30 11 1 11 12
M  V30 12 1 12 13
M  V30 13 1 13 14
M  V30 14 2 8 15
M  V30 15 1 15 16
M  V30 16 1 16 17
M  V30 17 2 17 18
M  V30 18 1 18 19
M  V30 19 1 19 20
M  V30 20 1 20 21
M  V30 21 1 21 22
M  V30 22 1 22 23
M  V30 23 1 23 24
M  V30 24 1 22 25
M  V30 25 1 25 26
M  V30 26 1 2 27
M  V30 27 1 27 28
M  V30 28 2 28 29
M  V30 29 1 29 30
M  V30 30 1 30 31
M  V30 31 2 31 32
M  V30 32 1 32 33
M  V30 33 2 33 34
M  V30 34 1 34 35
M  V30 35 1 18 4
M  V30 36 1 26 19
M  V30 37 2 35 27
M  V30 38 2 16 6
M  V30 39 1 35 30
M  V30 40 1 14 9
M  V30 41 1 3 36
M  V30 42 1 5 37
M  V30 43 1 10 38
M  V30 44 1 10 39
M  V30 45 1 11 40
M  V30 46 1 11 41
M  V30 47 1 13 42
M  V30 48 1 13 43
M  V30 49 1 14 44
M  V30 50 1 14 45
M  V30 51 1 17 46
M  V30 52 1 20 47
M  V30 53 1 20 48
M  V30 54 1 21 49
M  V30 55 1 21 50
M  V30 56 1 22 51
M  V30 57 1 23 52
M  V30 58 1 23 53
M  V30 59 1 24 54
M  V30 60 1 25 55
M  V30 61 1 25 56
M  V30 62 1 26 57
M  V30 63 1 26 58
M  V30 64 1 28 59
M  V30 65 1 31 60
M  V30 66 1 32 61
M  V30 67 1 33 62
M  V30 END BOND
M  V30 END CTAB
M  END
>  <Dataset>  (100) 
ChEMBL_Kinases

>  <Ligand_Instance>  (100) 
nan

>  <PDB_ID>  (100) 
nan

>  <Standardized_SMILES>  (100) 
O=C(Nc1cc2oc(N3CCOCC3)nc2cc1N1CCC(CO)CC1)c1cnn2cccnc12

>  <Name>  (100) 
nan

>  <Pocket>  (100) 
nan

>  <ATP_Site>  (100) 
nan

>  <Peripheral>  (100) 
nan

>  <Num_H_Atoms_ProtBoundConf>  (100) 
nan

>  <Num_Resolved_Atoms>  (100) 
nan

>  <Num_Not_Resolved_Atoms>  (100) 
nan

$$$$
CHEMBL4515601
     RDKit          3D

  0  0  0  0  0  0  0  0  0  0999 V3000
M  V30 BEGIN CTAB
M  V30 COUNTS 55 57 0 0 0
M  V30 BEGIN ATOM
M  V30 1 C 0.116147 -2.901502 6.357663 0
M  V30 2 O 0.686720 -3.423730 5.178861 0
M  V30 3 C 1.333437 -2.603166 4.270287 0
M  V30 4 C 1.591475 -1.271355 4.212818 0
M  V30 5 C 2.277437 -0.719558 3.152538 0
M  V30 6 C 2.726239 -1.508887 2.109577 0
M  V30 7 S 3.596212 -0.783231 0.773575 0
M  V30 8 O 4.380712 0.385501 1.287961 0
M  V30 9 O 4.585050 -1.753722 0.175459 0
M  V30 10 N 2.482348 -0.294925 -0.466867 0
M  V30 11 C 1.451792 0.668098 -0.289146 0
M  V30 12 C 0.134779 0.108904 0.193118 0
M  V30 13 C -0.874916 1.253856 0.335268 0
M  V30 14 C -2.178576 0.767854 0.809198 0
M  V30 15 O -2.290730 0.603611 2.021147 0
M  V30 16 C -3.343268 0.466314 -0.035813 0
M  V30 17 C -3.837549 1.660320 -0.839493 0
M  V30 18 C -5.106868 1.040788 -1.427605 0
M  V30 19 C -5.678808 0.235511 -0.275333 0
M  V30 20 C -4.587432 0.174570 0.776582 0
M  V30 21 C 2.505518 -0.821000 -1.784114 0
M  V30 22 C 3.254867 -0.248881 -2.805793 0
M  V30 23 C 3.243027 -0.800404 -4.069606 0
M  V30 24 C 2.501700 -1.931515 -4.391769 0
M  V30 25 C 1.762618 -2.488687 -3.367311 0
M  V30 26 C 1.753713 -1.960663 -2.093433 0
M  V30 27 C 2.481506 -2.882851 2.130567 0
M  V30 28 C 1.781505 -3.417111 3.221144 0
M  V30 29 H 0.471280 -1.882450 6.602843 0
M  V30 30 H 0.336978 -3.548784 7.233975 0
M  V30 31 H -0.982194 -2.840680 6.201179 0
M  V30 32 H 1.192998 -0.764116 5.079077 0
M  V30 33 H 2.437922 0.345365 3.189599 0
M  V30 34 H 1.229621 1.290994 -1.170164 0
M  V30 35 H 1.791519 1.400051 0.500685 0
M  V30 36 H -0.238585 -0.648071 -0.523327 0
M  V30 37 H 0.188478 -0.387530 1.171432 0
M  V30 38 H -0.491725 2.039900 0.996308 0
M  V30 39 H -1.003304 1.726423 -0.661648 0
M  V30 40 H -3.206191 -0.362390 -0.750787 0
M  V30 41 H -4.144663 2.433826 -0.136680 0
M  V30 42 H -3.135409 1.970280 -1.633413 0
M  V30 43 H -4.752804 0.290447 -2.176932 0
M  V30 44 H -5.800575 1.781938 -1.841738 0
M  V30 45 H -6.567558 0.827665 0.088327 0
M  V30 46 H -5.941940 -0.785790 -0.570711 0
M  V30 47 H -4.556106 -0.761097 1.335939 0
M  V30 48 H -4.779323 1.061798 1.443703 0
M  V30 49 H 3.854104 0.643738 -2.596480 0
M  V30 50 H 3.858659 -0.291562 -4.815046 0
M  V30 51 H 2.564435 -2.280786 -5.412995 0
M  V30 52 H 1.185475 -3.370475 -3.619769 0
M  V30 53 H 1.148959 -2.460007 -1.357046 0
M  V30 54 H 2.858141 -3.422111 1.295363 0
M  V30 55 H 1.678235 -4.501647 3.076074 0
M  V30 END ATOM
M  V30 BEGIN BOND
M  V30 1 1 1 2
M  V30 2 1 2 3
M  V30 3 2 3 4
M  V30 4 1 4 5
M  V30 5 2 5 6
M  V30 6 1 6 7
M  V30 7 2 7 8
M  V30 8 2 7 9
M  V30 9 1 7 10
M  V30 10 1 10 11
M  V30 11 1 11 12
M  V30 12 1 12 13
M  V30 13 1 13 14
M  V30 14 2 14 15
M  V30 15 1 14 16
M  V30 16 1 16 17
M  V30 17 1 17 18
M  V30 18 1 18 19
M  V30 19 1 19 20
M  V30 20 1 10 21
M  V30 21 2 21 22
M  V30 22 1 22 23
M  V30 23 2 23 24
M  V30 24 1 24 25
M  V30 25 2 25 26
M  V30 26 1 6 27
M  V30 27 2 27 28
M  V30 28 1 28 3
M  V30 29 1 20 16
M  V30 30 1 26 21
M  V30 31 1 1 29
M  V30 32 1 1 30
M  V30 33 1 1 31
M  V30 34 1 4 32
M  V30 35 1 5 33
M  V30 36 1 11 34
M  V30 37 1 11 35
M  V30 38 1 12 36
M  V30 39 1 12 37
M  V30 40 1 13 38
M  V30 41 1 13 39
M  V30 42 1 16 40
M  V30 43 1 17 41
M  V30 44 1 17 42
M  V30 45 1 18 43
M  V30 46 1 18 44
M  V30 47 1 19 45
M  V30 48 1 19 46
M  V30 49 1 20 47
M  V30 50 1 20 48
M  V30 51 1 22 49
M  V30 52 1 23 50
M  V30 53 1 24 51
M  V30 54 1 25 52
M  V30 55 1 26 53
M  V30 56 1 27 54
M  V30 57 1 28 55
M  V30 END BOND
M  V30 END CTAB
M  END
>  <Dataset>  (101) 
ChEMBL_Kinases

>  <Ligand_Instance>  (101) 
nan

>  <PDB_ID>  (101) 
nan

>  <Standardized_SMILES>  (101) 
COc1ccc(S(=O)(=O)N(CCCC(=O)C2CCCC2)c2ccccc2)cc1

>  <Name>  (101) 
nan

>  <Pocket>  (101) 
nan

>  <ATP_Site>  (101) 
nan

>  <Peripheral>  (101) 
nan

>  <Num_H_Atoms_ProtBoundConf>  (101) 
nan

>  <Num_Resolved_Atoms>  (101) 
nan

>  <Num_Not_Resolved_Atoms>  (101) 
nan

$$$$
CHEMBL4515584
     RDKit          3D

  0  0  0  0  0  0  0  0  0  0999 V3000
M  V30 BEGIN CTAB
M  V30 COUNTS 47 50 0 0 0
M  V30 BEGIN ATOM
M  V30 1 N 2.765388 -2.203394 3.752898 0
M  V30 2 C 3.185558 -1.438108 2.621822 0
M  V30 3 N 4.246189 -1.755792 1.849662 0
M  V30 4 C 4.620342 -1.013048 0.787576 0
M  V30 5 C 3.928604 0.129125 0.427450 0
M  V30 6 C 4.414964 0.868262 -0.742363 0
M  V30 7 C 5.016148 0.170090 -1.786383 0
M  V30 8 C 5.439802 0.939016 -2.833731 0
M  V30 9 C 5.334198 2.309881 -2.958742 0
M  V30 10 C 4.725842 2.980294 -1.893354 0
M  V30 11 C 4.281891 2.241879 -0.812496 0
M  V30 12 C 2.829703 0.511007 1.178554 0
M  V30 13 C 2.493611 -0.282688 2.249419 0
M  V30 14 N 1.354012 0.061881 3.072935 0
M  V30 15 C 0.242371 -0.618995 2.452151 0
M  V30 16 O 0.611482 -1.277733 1.418501 0
M  V30 17 C -1.154545 -0.570631 2.938460 0
M  V30 18 C -1.576025 0.122167 4.053227 0
M  V30 19 C -2.901656 0.108889 4.428175 0
M  V30 20 N -3.785310 -0.601692 3.675848 0
M  V30 21 C -3.380128 -1.279361 2.587494 0
M  V30 22 N -4.297555 -2.035119 1.780468 0
M  V30 23 C -5.012717 -1.499291 0.655893 0
M  V30 24 O -4.819342 -0.274616 0.356820 0
M  V30 25 C -5.925746 -2.422758 -0.072057 0
M  V30 26 C -5.885378 -2.307463 -1.625210 0
M  V30 27 C -7.038068 -1.790271 -0.859811 0
M  V30 28 C -2.045781 -1.278220 2.192576 0
M  V30 29 H 3.577217 -2.077819 4.377365 0
M  V30 30 H 1.806036 -2.630121 3.593002 0
M  V30 31 H 5.482241 -1.316530 0.201580 0
M  V30 32 H 5.145341 -0.898380 -1.783714 0
M  V30 33 H 5.916561 0.394364 -3.665010 0
M  V30 34 H 5.715060 2.790191 -3.847921 0
M  V30 35 H 4.641149 4.053489 -1.986641 0
M  V30 36 H 3.816919 2.808885 -0.011252 0
M  V30 37 H 2.298576 1.385333 0.904350 0
M  V30 38 H 1.102343 0.619690 3.927080 0
M  V30 39 H -0.820474 0.665114 4.604116 0
M  V30 40 H -3.183798 0.666999 5.309185 0
M  V30 41 H -4.443084 -3.036169 2.040466 0
M  V30 42 H -6.025049 -3.459689 0.262415 0
M  V30 43 H -6.048152 -3.225587 -2.209452 0
M  V30 44 H -5.095780 -1.631393 -2.044397 0
M  V30 45 H -8.011305 -2.322340 -0.980622 0
M  V30 46 H -7.189233 -0.687165 -0.775161 0
M  V30 47 H -1.762337 -1.836454 1.310425 0
M  V30 END ATOM
M  V30 BEGIN BOND
M  V30 1 1 1 2
M  V30 2 2 2 3
M  V30 3 1 3 4
M  V30 4 2 4 5
M  V30 5 1 5 6
M  V30 6 2 6 7
M  V30 7 1 7 8
M  V30 8 2 8 9
M  V30 9 1 9 10
M  V30 10 2 10 11
M  V30 11 1 5 12
M  V30 12 2 12 13
M  V30 13 1 13 14
M  V30 14 1 14 15
M  V30 15 2 15 16
M  V30 16 1 15 17
M  V30 17 2 17 18
M  V30 18 1 18 19
M  V30 19 2 19 20
M  V30 20 1 20 21
M  V30 21 1 21 22
M  V30 22 1 22 23
M  V30 23 2 23 24
M  V30 24 1 23 25
M  V30 25 1 25 26
M  V30 26 1 26 27
M  V30 27 2 21 28
M  V30 28 1 13 2
M  V30 29 1 28 17
M  V30 30 1 11 6
M  V30 31 1 27 25
M  V30 32 1 1 29
M  V30 33 1 1 30
M  V30 34 1 4 31
M  V30 35 1 7 32
M  V30 36 1 8 33
M  V30 37 1 9 34
M  V30 38 1 10 35
M  V30 39 1 11 36
M  V30 40 1 12 37
M  V30 41 1 14 38
M  V30 42 1 18 39
M  V30 43 1 19 40
M  V30 44 1 22 41
M  V30 45 1 25 42
M  V30 46 1 26 43
M  V30 47 1 26 44
M  V30 48 1 27 45
M  V30 49 1 27 46
M  V30 50 1 28 47
M  V30 END BOND
M  V30 END CTAB
M  END
>  <Dataset>  (102) 
ChEMBL_Kinases

>  <Ligand_Instance>  (102) 
nan

>  <PDB_ID>  (102) 
nan

>  <Standardized_SMILES>  (102) 
Nc1ncc(-c2ccccc2)cc1NC(=O)c1ccnc(NC(=O)C2CC2)c1

>  <Name>  (102) 
nan

>  <Pocket>  (102) 
nan

>  <ATP_Site>  (102) 
nan

>  <Peripheral>  (102) 
nan

>  <Num_H_Atoms_ProtBoundConf>  (102) 
nan

>  <Num_Resolved_Atoms>  (102) 
nan

>  <Num_Not_Resolved_Atoms>  (102) 
nan

$$$$
CHEMBL4648554
     RDKit          3D

  0  0  0  0  0  0  0  0  0  0999 V3000
M  V30 BEGIN CTAB
M  V30 COUNTS 42 45 0 0 0
M  V30 BEGIN ATOM
M  V30 1 C -2.370078 1.015910 2.861333 0
M  V30 2 C -3.057075 0.813622 1.497669 0 CFG=2
M  V30 3 C -2.411258 -0.273555 0.724209 0
M  V30 4 N -2.786268 -0.175730 -0.666518 0
M  V30 5 C -2.700592 -1.430506 -1.311076 0
M  V30 6 S -3.941646 -2.471301 -1.843169 0
M  V30 7 N -2.848201 -3.806315 -2.508758 0
M  V30 8 C -1.551499 -3.267781 -2.229130 0
M  V30 9 C -0.426876 -3.977743 -2.566155 0
M  V30 10 C 0.808001 -3.440709 -2.274669 0
M  V30 11 C 0.924766 -2.221548 -1.658602 0
M  V30 12 C 2.178358 -1.582051 -1.283408 0
M  V30 13 C 3.369168 -2.205442 -1.586231 0
M  V30 14 C 4.575046 -1.641393 -1.229366 0
M  V30 15 C 4.592891 -0.433932 -0.556662 0
M  V30 16 C 3.375603 0.146399 -0.279235 0
M  V30 17 C 2.135050 -0.360569 -0.606970 0
M  V30 18 N -0.230193 -1.606494 -1.369457 0
M  V30 19 C -1.444304 -2.067987 -1.624101 0
M  V30 20 C -3.193519 1.096803 -1.272039 0
M  V30 21 C -2.826571 2.238420 -0.350308 0 CFG=2
M  V30 22 C -1.385764 2.686452 -0.529574 0
M  V30 23 O -3.174137 2.038801 0.945909 0
M  V30 24 H -2.252246 0.060168 3.409125 0
M  V30 25 H -1.384493 1.511087 2.747806 0
M  V30 26 H -3.048609 1.659617 3.451003 0
M  V30 27 H -4.093259 0.452637 1.757169 0
M  V30 28 H -1.290843 -0.289920 0.835305 0
M  V30 29 H -2.725345 -1.244543 1.186884 0
M  V30 30 H -0.440373 -4.935432 -3.047458 0
M  V30 31 H 1.703988 -3.985309 -2.531355 0
M  V30 32 H 3.482482 -3.141496 -2.102523 0
M  V30 33 H 5.546036 -2.079847 -1.437843 0
M  V30 34 H 5.509827 0.087302 -0.234565 0
M  V30 35 H 3.287965 1.104842 0.252063 0
M  V30 36 H 1.192509 0.102703 -0.386409 0
M  V30 37 H -2.546216 1.181153 -2.180569 0
M  V30 38 H -4.244658 1.075272 -1.550691 0
M  V30 39 H -3.457249 3.095644 -0.724198 0
M  V30 40 H -0.766531 2.425068 0.349030 0
M  V30 41 H -1.305793 3.812985 -0.586662 0
M  V30 42 H -0.976718 2.314096 -1.471182 0
M  V30 END ATOM
M  V30 BEGIN BOND
M  V30 1 1 1 2
M  V30 2 1 2 3
M  V30 3 1 3 4
M  V30 4 1 4 5
M  V30 5 1 5 6
M  V30 6 1 6 7
M  V30 7 2 7 8
M  V30 8 1 8 9
M  V30 9 2 9 10
M  V30 10 1 10 11
M  V30 11 1 11 12
M  V30 12 2 12 13
M  V30 13 1 13 14
M  V30 14 2 14 15
M  V30 15 1 15 16
M  V30 16 2 16 17
M  V30 17 2 11 18
M  V30 18 1 18 19
M  V30 19 1 4 20
M  V30 20 1 20 21
M  V30 21 1 21 22
M  V30 22 1 21 23
M  V30 23 1 23 2
M  V30 24 2 19 5
M  V30 25 1 19 8
M  V30 26 1 17 12
M  V30 27 1 1 24
M  V30 28 1 1 25
M  V30 29 1 1 26
M  V30 30 1 2 27 CFG=1
M  V30 31 1 3 28
M  V30 32 1 3 29
M  V30 33 1 9 30
M  V30 34 1 10 31
M  V30 35 1 13 32
M  V30 36 1 14 33
M  V30 37 1 15 34
M  V30 38 1 16 35
M  V30 39 1 17 36
M  V30 40 1 20 37
M  V30 41 1 20 38
M  V30 42 1 21 39 CFG=3
M  V30 43 1 22 40
M  V30 44 1 22 41
M  V30 45 1 22 42
M  V30 END BOND
M  V30 END CTAB
M  END
>  <Dataset>  (103) 
ChEMBL_Kinases

>  <Ligand_Instance>  (103) 
nan

>  <PDB_ID>  (103) 
nan

>  <Standardized_SMILES>  (103) 
C[C@@H]1CN(c2snc3ccc(-c4ccccc4)nc23)C[C@H](C)O1

>  <Name>  (103) 
nan

>  <Pocket>  (103) 
nan

>  <ATP_Site>  (103) 
nan

>  <Peripheral>  (103) 
nan

>  <Num_H_Atoms_ProtBoundConf>  (103) 
nan

>  <Num_Resolved_Atoms>  (103) 
nan

>  <Num_Not_Resolved_Atoms>  (103) 
nan

$$$$
CHEMBL4516715
     RDKit          3D

  0  0  0  0  0  0  0  0  0  0999 V3000
M  V30 BEGIN CTAB
M  V30 COUNTS 51 55 0 0 0
M  V30 BEGIN ATOM
M  V30 1 F 1.072927 -6.417940 0.351039 0
M  V30 2 C 1.152605 -5.053520 0.328940 0
M  V30 3 C 0.650143 -4.387212 -0.768731 0
M  V30 4 C 0.731181 -3.008120 -0.789832 0
M  V30 5 C 1.305974 -2.336738 0.274599 0
M  V30 6 C 1.472233 -0.891612 0.413656 0
M  V30 7 N 2.614096 -0.150754 0.519780 0
M  V30 8 C 2.247053 1.139853 0.627030 0
M  V30 9 C 3.195036 2.271955 0.763057 0
M  V30 10 C 3.099540 3.209598 -0.416322 0
M  V30 11 C 1.768335 3.901111 -0.426195 0
M  V30 12 N 1.439930 4.497360 0.843512 0
M  V30 13 C 2.556909 4.472961 1.767638 0
M  V30 14 C 2.958826 3.021583 2.041112 0
M  V30 15 O 0.941698 1.278190 0.596814 0
M  V30 16 C 0.471420 0.058632 0.468559 0
M  V30 17 C -0.968001 -0.175370 0.399494 0
M  V30 18 C -1.631707 0.426112 -0.667285 0
M  V30 19 C -3.009919 0.228636 -0.772337 0
M  V30 20 N -3.633989 -0.520160 0.141820 0
M  V30 21 C -2.989106 -1.094988 1.164354 0
M  V30 22 N -3.708674 -1.881435 2.105757 0
M  V30 23 C -3.794972 -3.258882 1.757288 0
M  V30 24 C -3.230337 -3.772655 0.611109 0
M  V30 25 C -3.280431 -5.094348 0.220170 0
M  V30 26 N -3.947233 -5.917071 1.058696 0
M  V30 27 C -4.514410 -5.457482 2.189785 0
M  V30 28 N -4.443652 -4.143205 2.542869 0
M  V30 29 N -1.648772 -0.931177 1.307830 0
M  V30 30 C 1.800456 -3.058747 1.363569 0
M  V30 31 C 1.740030 -4.442024 1.426760 0
M  V30 32 H 0.200573 -4.884492 -1.604506 0
M  V30 33 H 0.376364 -2.371380 -1.586679 0
M  V30 34 H 4.220092 1.832057 0.778074 0
M  V30 35 H 3.165937 2.602414 -1.334602 0
M  V30 36 H 3.909850 3.936479 -0.349812 0
M  V30 37 H 0.945454 3.218596 -0.707454 0
M  V30 38 H 1.739617 4.720371 -1.172301 0
M  V30 39 H 0.643983 4.050152 1.336388 0
M  V30 40 H 3.428187 5.008303 1.356895 0
M  V30 41 H 2.225948 4.889691 2.721920 0
M  V30 42 H 2.132857 2.538130 2.628911 0
M  V30 43 H 3.857943 3.068622 2.697577 0
M  V30 44 H -1.121667 1.034467 -1.409801 0
M  V30 45 H -3.599462 0.661346 -1.571533 0
M  V30 46 H -4.152439 -1.564888 2.974477 0
M  V30 47 H -2.693797 -3.105609 -0.061682 0
M  V30 48 H -2.824539 -5.461193 -0.688111 0
M  V30 49 H -5.013505 -6.216029 2.766018 0
M  V30 50 H 2.267841 -2.590584 2.239273 0
M  V30 51 H 2.121277 -5.005714 2.267073 0
M  V30 END ATOM
M  V30 BEGIN BOND
M  V30 1 1 1 2
M  V30 2 2 2 3
M  V30 3 1 3 4
M  V30 4 2 4 5
M  V30 5 1 5 6
M  V30 6 1 6 7
M  V30 7 2 7 8
M  V30 8 1 8 9
M  V30 9 1 9 10
M  V30 10 1 10 11
M  V30 11 1 11 12
M  V30 12 1 12 13
M  V30 13 1 13 14
M  V30 14 1 8 15
M  V30 15 1 15 16
M  V30 16 1 16 17
M  V30 17 2 17 18
M  V30 18 1 18 19
M  V30 19 2 19 20
M  V30 20 1 20 21
M  V30 21 1 21 22
M  V30 22 1 22 23
M  V30 23 2 23 24
M  V30 24 1 24 25
M  V30 25 2 25 26
M  V30 26 1 26 27
M  V30 27 2 27 28
M  V30 28 2 21 29
M  V30 29 1 5 30
M  V30 30 2 30 31
M  V30 31 1 31 2
M  V30 32 2 16 6
M  V30 33 1 29 17
M  V30 34 1 14 9
M  V30 35 1 28 23
M  V30 36 1 3 32
M  V30 37 1 4 33
M  V30 38 1 9 34
M  V30 39 1 10 35
M  V30 40 1 10 36
M  V30 41 1 11 37
M  V30 42 1 11 38
M  V30 43 1 12 39
M  V30 44 1 13 40
M  V30 45 1 13 41
M  V30 46 1 14 42
M  V30 47 1 14 43
M  V30 48 1 18 44
M  V30 49 1 19 45
M  V30 50 1 22 46
M  V30 51 1 24 47
M  V30 52 1 25 48
M  V30 53 1 27 49
M  V30 54 1 30 50
M  V30 55 1 31 51
M  V30 END BOND
M  V30 END CTAB
M  END
>  <Dataset>  (104) 
ChEMBL_Kinases

>  <Ligand_Instance>  (104) 
nan

>  <PDB_ID>  (104) 
nan

>  <Standardized_SMILES>  (104) 
Fc1ccc(-c2nc(C3CCNCC3)oc2-c2ccnc(Nc3ccncn3)n2)cc1

>  <Name>  (104) 
nan

>  <Pocket>  (104) 
nan

>  <ATP_Site>  (104) 
nan

>  <Peripheral>  (104) 
nan

>  <Num_H_Atoms_ProtBoundConf>  (104) 
nan

>  <Num_Resolved_Atoms>  (104) 
nan

>  <Num_Not_Resolved_Atoms>  (104) 
nan

$$$$
CHEMBL4483653
     RDKit          3D

  0  0  0  0  0  0  0  0  0  0999 V3000
M  V30 BEGIN CTAB
M  V30 COUNTS 47 49 0 0 0
M  V30 BEGIN ATOM
M  V30 1 C 2.473483 -5.432283 3.448672 0
M  V30 2 O 2.172485 -4.041249 3.530835 0
M  V30 3 C 2.067970 -3.348042 2.331671 0
M  V30 4 C 2.252450 -4.003843 1.132405 0
M  V30 5 C 2.147992 -3.312689 -0.055925 0
M  V30 6 C 1.859045 -1.967627 -0.033728 0
M  V30 7 C 1.706858 -1.077312 -1.068348 0
M  V30 8 C 1.794604 -1.211212 -2.430196 0
M  V30 9 C 1.590640 -0.078701 -3.189162 0
M  V30 10 N 1.320536 1.085606 -2.580733 0
M  V30 11 C 1.227014 1.251876 -1.235625 0
M  V30 12 C 0.952442 2.564743 -0.639824 0
M  V30 13 C 1.429243 0.118978 -0.461960 0
M  V30 14 N 1.388023 0.070652 0.891473 0
M  V30 15 C 1.114142 0.940090 1.959364 0
M  V30 16 C -0.209531 0.974826 2.601196 0
M  V30 17 C -1.452640 1.302016 1.940769 0
M  V30 18 C -1.930545 0.451447 0.799133 0
M  V30 19 C -3.277017 1.088251 0.380573 0
M  V30 20 C -4.240264 1.069590 1.500180 0
M  V30 21 N -5.427862 1.681957 1.031057 0
M  V30 22 O -4.582995 0.799338 2.665316 0
M  V30 23 C 1.663798 -1.255003 1.126631 0
M  V30 24 C 1.781978 -2.007806 2.301257 0
M  V30 25 H 2.291677 -5.895285 4.443294 0
M  V30 26 H 1.782454 -5.977333 2.758683 0
M  V30 27 H 3.490282 -5.627022 3.050622 0
M  V30 28 H 2.481919 -5.064650 1.071482 0
M  V30 29 H 2.290796 -3.817575 -1.000479 0
M  V30 30 H 2.012023 -2.158707 -2.862373 0
M  V30 31 H 1.642180 -0.101171 -4.265749 0
M  V30 32 H 0.725238 3.251706 -1.515772 0
M  V30 33 H 0.053884 2.674858 -0.051932 0
M  V30 34 H 1.861260 3.066808 -0.241452 0
M  V30 35 H 1.495926 1.981717 1.842987 0
M  V30 36 H 1.797509 0.619734 2.823998 0
M  V30 37 H -0.401325 0.012428 3.209607 0
M  V30 38 H -0.091949 1.713769 3.474564 0
M  V30 39 H -1.588499 2.356518 1.616923 0
M  V30 40 H -2.285271 1.194590 2.721114 0
M  V30 41 H -2.112731 -0.590342 1.141538 0
M  V30 42 H -1.310082 0.464035 -0.090575 0
M  V30 43 H -3.635293 0.530361 -0.496350 0
M  V30 44 H -3.086583 2.136039 0.074667 0
M  V30 45 H -6.005099 0.993626 0.512451 0
M  V30 46 H -6.285455 2.161620 0.703329 0
M  V30 47 H 1.645378 -1.533597 3.255991 0
M  V30 END ATOM
M  V30 BEGIN BOND
M  V30 1 1 1 2
M  V30 2 1 2 3
M  V30 3 2 3 4
M  V30 4 1 4 5
M  V30 5 2 5 6
M  V30 6 1 6 7
M  V30 7 2 7 8
M  V30 8 1 8 9
M  V30 9 2 9 10
M  V30 10 1 10 11
M  V30 11 1 11 12
M  V30 12 2 11 13
M  V30 13 1 13 14
M  V30 14 1 14 15
M  V30 15 1 15 16
M  V30 16 1 16 17
M  V30 17 1 17 18
M  V30 18 1 18 19
M  V30 19 1 19 20
M  V30 20 1 20 21
M  V30 21 2 20 22
M  V30 22 1 14 23
M  V30 23 2 23 24
M  V30 24 1 24 3
M  V30 25 1 23 6
M  V30 26 1 13 7
M  V30 27 1 1 25
M  V30 28 1 1 26
M  V30 29 1 1 27
M  V30 30 1 4 28
M  V30 31 1 5 29
M  V30 32 1 8 30
M  V30 33 1 9 31
M  V30 34 1 12 32
M  V30 35 1 12 33
M  V30 36 1 12 34
M  V30 37 1 15 35
M  V30 38 1 15 36
M  V30 39 1 16 37
M  V30 40 1 16 38
M  V30 41 1 17 39
M  V30 42 1 17 40
M  V30 43 1 18 41
M  V30 44 1 18 42
M  V30 45 1 19 43
M  V30 46 1 19 44
M  V30 47 1 21 45
M  V30 48 1 21 46
M  V30 49 1 24 47
M  V30 END BOND
M  V30 END CTAB
M  END
>  <Dataset>  (105) 
ChEMBL_Kinases

>  <Ligand_Instance>  (105) 
nan

>  <PDB_ID>  (105) 
nan

>  <Standardized_SMILES>  (105) 
COc1ccc2c3ccnc(C)c3n(CCCCCC(N)=O)c2c1

>  <Name>  (105) 
nan

>  <Pocket>  (105) 
nan

>  <ATP_Site>  (105) 
nan

>  <Peripheral>  (105) 
nan

>  <Num_H_Atoms_ProtBoundConf>  (105) 
nan

>  <Num_Resolved_Atoms>  (105) 
nan

>  <Num_Not_Resolved_Atoms>  (105) 
nan

$$$$
CHEMBL4483571
     RDKit          3D

  0  0  0  0  0  0  0  0  0  0999 V3000
M  V30 BEGIN CTAB
M  V30 COUNTS 56 59 0 0 0
M  V30 BEGIN ATOM
M  V30 1 C -0.707179 -0.583353 6.465352 0
M  V30 2 N -0.449268 -1.690976 5.557616 0
M  V30 3 C 0.943335 -1.698722 5.255461 0
M  V30 4 C 1.375183 -2.531730 4.107424 0
M  V30 5 C 0.400357 -2.774534 3.025132 0
M  V30 6 C 0.512753 -1.898800 1.837306 0
M  V30 7 C 0.782437 -0.566328 2.002299 0
M  V30 8 C 0.867142 0.214950 0.872357 0
M  V30 9 C 0.704759 -0.220439 -0.423268 0
M  V30 10 O 0.767425 0.456226 -1.589631 0
M  V30 11 C 0.998066 1.772595 -1.933703 0
M  V30 12 C 0.031015 2.765967 -1.412925 0
M  V30 13 C -1.102054 2.862957 -2.235110 0
M  V30 14 C -2.146909 3.728435 -1.981077 0
M  V30 15 C -2.110521 4.543370 -0.887676 0
M  V30 16 C -1.015136 4.458016 -0.082315 0
M  V30 17 C 0.034171 3.601713 -0.321064 0
M  V30 18 C 0.429513 -1.581371 -0.596111 0
M  V30 19 C 0.206802 -2.352535 -1.812267 0
M  V30 20 O -0.035407 -3.592968 -1.825824 0
M  V30 21 N 0.210734 -1.922846 -3.146638 0
M  V30 22 C -0.033507 -2.856273 -4.194858 0
M  V30 23 C 0.910928 -3.610113 -4.868887 0
M  V30 24 C 0.512774 -4.475326 -5.866471 0
M  V30 25 N -0.799394 -4.603350 -6.203468 0
M  V30 26 N -1.685497 -3.875872 -5.549184 0
M  V30 27 C -1.373325 -3.012176 -4.566238 0
M  V30 28 C 0.343541 -2.375953 0.557358 0
M  V30 29 C -1.003009 -2.867187 3.555812 0
M  V30 30 C -1.296368 -1.651282 4.393197 0
M  V30 31 H 0.233313 -0.345814 7.029711 0
M  V30 32 H -0.975498 0.350184 5.929068 0
M  V30 33 H -1.486354 -0.812307 7.206184 0
M  V30 34 H 1.453729 -2.101567 6.183755 0
M  V30 35 H 1.269670 -0.631305 5.216143 0
M  V30 36 H 2.332620 -2.084480 3.726965 0
M  V30 37 H 1.708399 -3.536273 4.513482 0
M  V30 38 H 0.600964 -3.822481 2.611817 0
M  V30 39 H 0.941578 -0.069379 2.927557 0
M  V30 40 H 1.082106 1.258372 0.969361 0
M  V30 41 H 2.027942 2.125085 -1.622513 0
M  V30 42 H 1.052467 1.824491 -3.064432 0
M  V30 43 H -1.266181 2.267972 -3.148554 0
M  V30 44 H -3.022724 3.802012 -2.618400 0
M  V30 45 H -2.917279 5.224886 -0.673908 0
M  V30 46 H -0.901844 5.065890 0.805344 0
M  V30 47 H 0.931504 3.487408 0.263738 0
M  V30 48 H 0.397625 -0.911676 -3.311596 0
M  V30 49 H 1.939382 -3.459692 -4.550497 0
M  V30 50 H 1.328842 -5.014652 -6.327487 0
M  V30 51 H -2.201953 -2.503332 -4.140151 0
M  V30 52 H 0.129962 -3.456515 0.524601 0
M  V30 53 H -1.754988 -2.996899 2.746854 0
M  V30 54 H -1.062500 -3.744470 4.234339 0
M  V30 55 H -1.130271 -0.738576 3.815563 0
M  V30 56 H -2.360370 -1.644845 4.743298 0
M  V30 END ATOM
M  V30 BEGIN BOND
M  V30 1 1 1 2
M  V30 2 1 2 3
M  V30 3 1 3 4
M  V30 4 1 4 5
M  V30 5 1 5 6
M  V30 6 2 6 7
M  V30 7 1 7 8
M  V30 8 2 8 9
M  V30 9 1 9 10
M  V30 10 1 10 11
M  V30 11 1 11 12
M  V30 12 2 12 13
M  V30 13 1 13 14
M  V30 14 2 14 15
M  V30 15 1 15 16
M  V30 16 2 16 17
M  V30 17 1 9 18
M  V30 18 1 18 19
M  V30 19 2 19 20
M  V30 20 1 19 21
M  V30 21 1 21 22
M  V30 22 2 22 23
M  V30 23 1 23 24
M  V30 24 2 24 25
M  V30 25 1 25 26
M  V30 26 2 26 27
M  V30 27 2 18 28
M  V30 28 1 5 29
M  V30 29 1 29 30
M  V30 30 1 30 2
M  V30 31 1 28 6
M  V30 32 1 17 12
M  V30 33 1 27 22
M  V30 34 1 1 31
M  V30 35 1 1 32
M  V30 36 1 1 33
M  V30 37 1 3 34
M  V30 38 1 3 35
M  V30 39 1 4 36
M  V30 40 1 4 37
M  V30 41 1 5 38
M  V30 42 1 7 39
M  V30 43 1 8 40
M  V30 44 1 11 41
M  V30 45 1 11 42
M  V30 46 1 13 43
M  V30 47 1 14 44
M  V30 48 1 15 45
M  V30 49 1 16 46
M  V30 50 1 17 47
M  V30 51 1 21 48
M  V30 52 1 23 49
M  V30 53 1 24 50
M  V30 54 1 27 51
M  V30 55 1 28 52
M  V30 56 1 29 53
M  V30 57 1 29 54
M  V30 58 1 30 55
M  V30 59 1 30 56
M  V30 END BOND
M  V30 END CTAB
M  END
>  <Dataset>  (106) 
ChEMBL_Kinases

>  <Ligand_Instance>  (106) 
nan

>  <PDB_ID>  (106) 
nan

>  <Standardized_SMILES>  (106) 
CN1CCC(c2ccc(OCc3ccccc3)c(C(=O)Nc3ccnnc3)c2)CC1

>  <Name>  (106) 
nan

>  <Pocket>  (106) 
nan

>  <ATP_Site>  (106) 
nan

>  <Peripheral>  (106) 
nan

>  <Num_H_Atoms_ProtBoundConf>  (106) 
nan

>  <Num_Resolved_Atoms>  (106) 
nan

>  <Num_Not_Resolved_Atoms>  (106) 
nan

$$$$
CHEMBL4649394
     RDKit          3D

  0  0  0  0  0  0  0  0  0  0999 V3000
M  V30 BEGIN CTAB
M  V30 COUNTS 48 51 0 0 0
M  V30 BEGIN ATOM
M  V30 1 C 6.362674 -5.083751 0.347457 0
M  V30 2 C 4.992403 -4.465810 0.143065 0
M  V30 3 C 4.033929 -5.593800 -0.166960 0
M  V30 4 C 5.097513 -3.507724 -1.017869 0
M  V30 5 N 3.854322 -2.848939 -1.318164 0
M  V30 6 C 3.183588 -2.027848 -0.359866 0
M  V30 7 N 3.680437 -1.826192 0.878817 0
M  V30 8 C 3.049403 -1.051173 1.786522 0
M  V30 9 N 1.884231 -0.443827 1.480759 0
M  V30 10 N 1.372499 -0.622941 0.273742 0
M  V30 11 C 0.239054 -0.133794 -0.268293 0
M  V30 12 C -0.749706 0.748900 0.356025 0
M  V30 13 C -0.452850 1.873554 1.102511 0
M  V30 14 C -1.506016 2.627021 1.642003 0
M  V30 15 C -2.826174 2.272800 1.445470 0
M  V30 16 C -3.859573 3.114186 2.043397 0
M  V30 17 O -3.465171 4.106664 2.697984 0
M  V30 18 N -5.245794 2.832799 1.897864 0
M  V30 19 C -6.267156 3.660404 2.486136 0
M  V30 20 C -7.319228 2.827443 3.276522 0
M  V30 21 C -7.658970 3.630211 2.034401 0
M  V30 22 C -3.077137 1.141961 0.693385 0
M  V30 23 C -2.065675 0.375369 0.146385 0
M  V30 24 C 0.166838 -0.629265 -1.569930 0
M  V30 25 N 1.259516 -1.399124 -1.765116 0
M  V30 26 C 1.979340 -1.390451 -0.652591 0
M  V30 27 H 6.706037 -5.625828 -0.554079 0
M  V30 28 H 7.083468 -4.247931 0.576910 0
M  V30 29 H 6.369862 -5.795595 1.208593 0
M  V30 30 H 4.702568 -3.968861 1.088226 0
M  V30 31 H 3.292515 -5.281770 -0.918627 0
M  V30 32 H 4.593316 -6.445731 -0.608380 0
M  V30 33 H 3.546038 -5.993131 0.746119 0
M  V30 34 H 5.443588 -4.060412 -1.890833 0
M  V30 35 H 5.842776 -2.721162 -0.705667 0
M  V30 36 H 3.405283 -2.952576 -2.248457 0
M  V30 37 H 3.428790 -0.880647 2.772185 0
M  V30 38 H 0.592989 2.117265 1.233404 0
M  V30 39 H -1.177211 3.489117 2.211029 0
M  V30 40 H -5.570403 2.004879 1.351684 0
M  V30 41 H -5.895304 4.520689 3.052435 0
M  V30 42 H -7.321716 1.739910 3.138569 0
M  V30 43 H -7.619189 3.201496 4.268232 0
M  V30 44 H -7.987577 3.112900 1.120033 0
M  V30 45 H -8.285645 4.526067 2.259938 0
M  V30 46 H -4.102787 0.853050 0.531484 0
M  V30 47 H -2.353731 -0.494378 -0.429065 0
M  V30 48 H -0.611939 -0.451237 -2.322662 0
M  V30 END ATOM
M  V30 BEGIN BOND
M  V30 1 1 1 2
M  V30 2 1 2 3
M  V30 3 1 2 4
M  V30 4 1 4 5
M  V30 5 1 5 6
M  V30 6 2 6 7
M  V30 7 1 7 8
M  V30 8 2 8 9
M  V30 9 1 9 10
M  V30 10 1 10 11
M  V30 11 1 11 12
M  V30 12 2 12 13
M  V30 13 1 13 14
M  V30 14 2 14 15
M  V30 15 1 15 16
M  V30 16 2 16 17
M  V30 17 1 16 18
M  V30 18 1 18 19
M  V30 19 1 19 20
M  V30 20 1 20 21
M  V30 21 1 15 22
M  V30 22 2 22 23
M  V30 23 2 11 24
M  V30 24 1 24 25
M  V30 25 2 25 26
M  V30 26 1 26 6
M  V30 27 1 26 10
M  V30 28 1 23 12
M  V30 29 1 21 19
M  V30 30 1 1 27
M  V30 31 1 1 28
M  V30 32 1 1 29
M  V30 33 1 2 30
M  V30 34 1 3 31
M  V30 35 1 3 32
M  V30 36 1 3 33
M  V30 37 1 4 34
M  V30 38 1 4 35
M  V30 39 1 5 36
M  V30 40 1 8 37
M  V30 41 1 13 38
M  V30 42 1 14 39
M  V30 43 1 18 40
M  V30 44 1 19 41
M  V30 45 1 20 42
M  V30 46 1 20 43
M  V30 47 1 21 44
M  V30 48 1 21 45
M  V30 49 1 22 46
M  V30 50 1 23 47
M  V30 51 1 24 48
M  V30 END BOND
M  V30 END CTAB
M  END
>  <Dataset>  (107) 
ChEMBL_Kinases

>  <Ligand_Instance>  (107) 
nan

>  <PDB_ID>  (107) 
nan

>  <Standardized_SMILES>  (107) 
CC(C)CNc1ncnn2c(-c3ccc(C(=O)NC4CC4)cc3)cnc12

>  <Name>  (107) 
nan

>  <Pocket>  (107) 
nan

>  <ATP_Site>  (107) 
nan

>  <Peripheral>  (107) 
nan

>  <Num_H_Atoms_ProtBoundConf>  (107) 
nan

>  <Num_Resolved_Atoms>  (107) 
nan

>  <Num_Not_Resolved_Atoms>  (107) 
nan

$$$$
CHEMBL4483514
     RDKit          3D

  0  0  0  0  0  0  0  0  0  0999 V3000
M  V30 BEGIN CTAB
M  V30 COUNTS 36 38 0 0 0
M  V30 BEGIN ATOM
M  V30 1 O -1.551941 -2.973200 2.104081 0
M  V30 2 C -0.509828 -2.390785 1.644608 0
M  V30 3 N 0.721689 -3.026654 1.452819 0
M  V30 4 C 1.749031 -2.222599 0.938885 0
M  V30 5 N 2.904187 -2.568808 0.477098 0
M  V30 6 C 3.311640 -3.950340 0.431145 0
M  V30 7 C 4.329316 -4.477720 1.167345 0
M  V30 8 C 4.678443 -5.811128 1.084466 0
M  V30 9 C 3.944734 -6.596886 0.214320 0
M  V30 10 C 2.898614 -6.086060 -0.551566 0
M  V30 11 C 2.579916 -4.747317 -0.440532 0
M  V30 12 Cl 1.254742 -4.115676 -1.415218 0
M  V30 13 S 1.146975 -0.513120 1.037606 0
M  V30 14 C -0.577126 -0.997684 1.294823 0
M  V30 15 C -1.599813 -0.210733 1.173573 0
M  V30 16 C -1.377357 1.183514 0.801035 0
M  V30 17 C -2.404943 2.004610 0.671443 0
M  V30 18 C -2.336542 3.414145 0.306951 0
M  V30 19 C -3.466161 4.199739 0.194249 0
M  V30 20 C -3.385686 5.531263 -0.151282 0
M  V30 21 C -2.178622 6.148482 -0.402044 0
M  V30 22 C -1.030483 5.392701 -0.298374 0
M  V30 23 C -1.150668 4.068353 0.048404 0
M  V30 24 H 0.913787 -4.032121 1.663273 0
M  V30 25 H 4.835471 -3.787076 1.810860 0
M  V30 26 H 5.491872 -6.206136 1.680632 0
M  V30 27 H 4.213481 -7.646334 0.143815 0
M  V30 28 H 2.366249 -6.758650 -1.212760 0
M  V30 29 H -2.605463 -0.570209 1.343135 0
M  V30 30 H -0.408550 1.579678 0.624986 0
M  V30 31 H -3.385340 1.586090 0.854086 0
M  V30 32 H -4.458749 3.763859 0.382184 0
M  V30 33 H -4.321054 6.100821 -0.223979 0
M  V30 34 H -2.096430 7.191520 -0.674196 0
M  V30 35 H -0.070536 5.859688 -0.491712 0
M  V30 36 H -0.211189 3.537901 0.110824 0
M  V30 END ATOM
M  V30 BEGIN BOND
M  V30 1 2 1 2
M  V30 2 1 2 3
M  V30 3 1 3 4
M  V30 4 2 4 5
M  V30 5 1 5 6
M  V30 6 2 6 7
M  V30 7 1 7 8
M  V30 8 2 8 9
M  V30 9 1 9 10
M  V30 10 2 10 11
M  V30 11 1 11 12
M  V30 12 1 4 13
M  V30 13 1 13 14
M  V30 14 2 14 15
M  V30 15 1 15 16
M  V30 16 2 16 17
M  V30 17 1 17 18
M  V30 18 2 18 19
M  V30 19 1 19 20
M  V30 20 2 20 21
M  V30 21 1 21 22
M  V30 22 2 22 23
M  V30 23 1 14 2
M  V30 24 1 23 18
M  V30 25 1 11 6
M  V30 26 1 3 24
M  V30 27 1 7 25
M  V30 28 1 8 26
M  V30 29 1 9 27
M  V30 30 1 10 28
M  V30 31 1 15 29
M  V30 32 1 16 30
M  V30 33 1 17 31
M  V30 34 1 19 32
M  V30 35 1 20 33
M  V30 36 1 21 34
M  V30 37 1 22 35
M  V30 38 1 23 36
M  V30 END BOND
M  V30 END CTAB
M  END
>  <Dataset>  (108) 
ChEMBL_Kinases

>  <Ligand_Instance>  (108) 
nan

>  <PDB_ID>  (108) 
nan

>  <Standardized_SMILES>  (108) 
O=C1N/C(=N\c2ccccc2Cl)S/C1=C\C=C\c1ccccc1

>  <Name>  (108) 
nan

>  <Pocket>  (108) 
nan

>  <ATP_Site>  (108) 
nan

>  <Peripheral>  (108) 
nan

>  <Num_H_Atoms_ProtBoundConf>  (108) 
nan

>  <Num_Resolved_Atoms>  (108) 
nan

>  <Num_Not_Resolved_Atoms>  (108) 
nan

$$$$
CHEMBL4483506
     RDKit          3D

  0  0  0  0  0  0  0  0  0  0999 V3000
M  V30 BEGIN CTAB
M  V30 COUNTS 60 65 0 0 0
M  V30 BEGIN ATOM
M  V30 1 F 2.586565 -7.706880 4.880192 0
M  V30 2 C 2.471071 -6.572712 4.120842 0
M  V30 3 C 1.904351 -5.423914 4.626271 0
M  V30 4 C 1.813003 -4.299282 3.809059 0
M  V30 5 C 2.286739 -4.321380 2.489609 0
M  V30 6 C 2.076527 -3.026248 1.853412 0
M  V30 7 N 2.707631 -1.912004 2.330853 0
M  V30 8 C 2.346791 -0.834813 1.570005 0
M  V30 9 C 2.767980 0.486216 1.727066 0
M  V30 10 C 2.198840 1.336609 0.770992 0
M  V30 11 C 1.329395 0.883488 -0.194849 0
M  V30 12 N 0.750910 1.750186 -1.160596 0
M  V30 13 C 0.872065 3.189387 -1.249993 0
M  V30 14 C -0.452354 3.763043 -0.795365 0
M  V30 15 C -1.619305 2.973403 -1.365774 0
M  V30 16 N -2.154613 2.153744 -0.361952 0
M  V30 17 C -2.675059 2.819487 0.783696 0
M  V30 18 C -3.826461 2.005583 1.307783 0
M  V30 19 C -4.185174 1.077988 0.186305 0
M  V30 20 C -2.910981 1.020251 -0.668058 0
M  V30 21 C -1.108423 2.278850 -2.590906 0
M  V30 22 C -0.081576 1.206771 -2.233635 0
M  V30 23 N 0.999303 -0.419791 -0.242320 0
M  V30 24 N 1.497421 -1.285041 0.628811 0
M  V30 25 C 1.318167 -2.609398 0.780076 0
M  V30 26 C 0.498185 -3.486976 0.000718 0
M  V30 27 C 0.823122 -4.544163 -0.836324 0
M  V30 28 C -0.178634 -5.231607 -1.468680 0
M  V30 29 N -1.471987 -4.950630 -1.333959 0
M  V30 30 C -1.832216 -3.926185 -0.526383 0
M  V30 31 C -0.844696 -3.198159 0.138045 0
M  V30 32 C 2.846918 -5.482043 2.013422 0
M  V30 33 C 2.940716 -6.598614 2.816024 0
M  V30 34 H 1.550189 -5.440717 5.644476 0
M  V30 35 H 1.347263 -3.452350 4.316731 0
M  V30 36 H 3.447871 0.785810 2.497421 0
M  V30 37 H 2.482921 2.383305 0.833459 0
M  V30 38 H 1.181872 3.551238 -2.248871 0
M  V30 39 H 1.629531 3.598762 -0.551953 0
M  V30 40 H -0.456085 3.688293 0.323977 0
M  V30 41 H -0.523340 4.850843 -0.996141 0
M  V30 42 H -2.372414 3.718600 -1.695355 0
M  V30 43 H -1.849746 2.847722 1.548895 0
M  V30 44 H -2.924468 3.888382 0.603263 0
M  V30 45 H -4.689029 2.643264 1.648627 0
M  V30 46 H -3.490354 1.455152 2.213952 0
M  V30 47 H -4.469010 0.097280 0.571324 0
M  V30 48 H -5.017028 1.563845 -0.391174 0
M  V30 49 H -2.382896 0.100099 -0.293001 0
M  V30 50 H -3.221409 0.821024 -1.682828 0
M  V30 51 H -1.881304 1.881940 -3.266086 0
M  V30 52 H -0.553012 3.037627 -3.184354 0
M  V30 53 H -0.545284 0.246589 -1.967398 0
M  V30 54 H 0.577369 1.077925 -3.113848 0
M  V30 55 H 1.891970 -4.707331 -0.893756 0
M  V30 56 H 0.148943 -6.057636 -2.117735 0
M  V30 57 H -2.890421 -3.751897 -0.461623 0
M  V30 58 H -1.295763 -2.419882 0.738942 0
M  V30 59 H 3.173987 -5.388758 1.002260 0
M  V30 60 H 3.392100 -7.479260 2.381283 0
M  V30 END ATOM
M  V30 BEGIN BOND
M  V30 1 1 1 2
M  V30 2 2 2 3
M  V30 3 1 3 4
M  V30 4 2 4 5
M  V30 5 1 5 6
M  V30 6 1 6 7
M  V30 7 2 7 8
M  V30 8 1 8 9
M  V30 9 2 9 10
M  V30 10 1 10 11
M  V30 11 1 11 12
M  V30 12 1 12 13
M  V30 13 1 13 14
M  V30 14 1 14 15
M  V30 15 1 15 16
M  V30 16 1 16 17
M  V30 17 1 17 18
M  V30 18 1 18 19
M  V30 19 1 19 20
M  V30 20 1 15 21
M  V30 21 1 21 22
M  V30 22 2 11 23
M  V30 23 1 23 24
M  V30 24 1 24 25
M  V30 25 1 25 26
M  V30 26 2 26 27
M  V30 27 1 27 28
M  V30 28 2 28 29
M  V30 29 1 29 30
M  V30 30 2 30 31
M  V30 31 1 5 32
M  V30 32 2 32 33
M  V30 33 1 33 2
M  V30 34 2 25 6
M  V30 35 1 31 26
M  V30 36 1 24 8
M  V30 37 1 22 12
M  V30 38 1 20 16
M  V30 39 1 3 34
M  V30 40 1 4 35
M  V30 41 1 9 36
M  V30 42 1 10 37
M  V30 43 1 13 38
M  V30 44 1 13 39
M  V30 45 1 14 40
M  V30 46 1 14 41
M  V30 47 1 15 42
M  V30 48 1 17 43
M  V30 49 1 17 44
M  V30 50 1 18 45
M  V30 51 1 18 46
M  V30 52 1 19 47
M  V30 53 1 19 48
M  V30 54 1 20 49
M  V30 55 1 20 50
M  V30 56 1 21 51
M  V30 57 1 21 52
M  V30 58 1 22 53
M  V30 59 1 22 54
M  V30 60 1 27 55
M  V30 61 1 28 56
M  V30 62 1 30 57
M  V30 63 1 31 58
M  V30 64 1 32 59
M  V30 65 1 33 60
M  V30 END BOND
M  V30 END CTAB
M  END
>  <Dataset>  (109) 
ChEMBL_Kinases

>  <Ligand_Instance>  (109) 
nan

>  <PDB_ID>  (109) 
nan

>  <Standardized_SMILES>  (109) 
Fc1ccc(-c2nc3ccc(N4CCC(N5CCCC5)CC4)nn3c2-c2ccncc2)cc1

>  <Name>  (109) 
nan

>  <Pocket>  (109) 
nan

>  <ATP_Site>  (109) 
nan

>  <Peripheral>  (109) 
nan

>  <Num_H_Atoms_ProtBoundConf>  (109) 
nan

>  <Num_Resolved_Atoms>  (109) 
nan

>  <Num_Not_Resolved_Atoms>  (109) 
nan

$$$$
CHEMBL4483492
     RDKit          3D

  0  0  0  0  0  0  0  0  0  0999 V3000
M  V30 BEGIN CTAB
M  V30 COUNTS 47 51 0 0 0
M  V30 BEGIN ATOM
M  V30 1 O 1.647512 -1.400114 1.630987 0
M  V30 2 C 2.321793 -0.341992 1.687196 0
M  V30 3 N 3.470922 -0.540852 0.877360 0
M  V30 4 C 3.807025 -1.715559 0.135912 0
M  V30 5 C 4.252293 -1.453737 -1.295821 0
M  V30 6 C 5.200034 -2.017383 -0.268651 0
M  V30 7 C 2.059857 0.892421 2.409377 0
M  V30 8 C 3.014853 1.878665 2.390750 0
M  V30 9 N 2.851373 3.020882 3.071613 0
M  V30 10 C 1.764770 3.290349 3.812221 0
M  V30 11 C 0.830800 2.275110 3.803236 0
M  V30 12 C 0.898184 1.045854 3.129453 0
M  V30 13 N -0.133132 0.114941 3.223994 0
M  V30 14 C -1.071041 -0.486397 2.378581 0
M  V30 15 C -1.216637 -0.210709 1.036065 0
M  V30 16 C -2.115708 -0.775806 0.186670 0
M  V30 17 C -2.282718 -0.499033 -1.223632 0
M  V30 18 C -3.280580 -1.208927 -1.895885 0
M  V30 19 C -3.537847 -1.035508 -3.238427 0
M  V30 20 Cl -4.800330 -1.951821 -4.029422 0
M  V30 21 C -2.811401 -0.140926 -3.988227 0
M  V30 22 C -1.824847 0.568363 -3.348001 0
M  V30 23 C -1.599643 0.368970 -2.016684 0
M  V30 24 F -0.624093 1.097473 -1.472532 0
M  V30 25 N -2.907939 -1.677372 0.762654 0
M  V30 26 C -2.838649 -2.010194 2.063177 0
M  V30 27 N -3.577668 -2.897263 2.751548 0
M  V30 28 C -3.165477 -2.906663 4.021931 0
M  V30 29 C -2.131265 -2.001320 4.161306 0
M  V30 30 C -1.923513 -1.430725 2.913754 0
M  V30 31 H 4.203907 0.224453 0.764160 0
M  V30 32 H 3.067930 -2.547848 0.218584 0
M  V30 33 H 3.869243 -2.102923 -2.093136 0
M  V30 34 H 4.483965 -0.411104 -1.589518 0
M  V30 35 H 6.020664 -1.389929 0.112109 0
M  V30 36 H 5.438339 -3.087945 -0.433396 0
M  V30 37 H 3.956075 1.869736 1.866058 0
M  V30 38 H 1.554164 4.177956 4.388287 0
M  V30 39 H -0.088095 2.429989 4.391798 0
M  V30 40 H -0.109345 -0.135644 4.235727 0
M  V30 41 H -0.532637 0.530367 0.661199 0
M  V30 42 H -3.911945 -1.942613 -1.387923 0
M  V30 43 H -3.039573 -0.030206 -5.037622 0
M  V30 44 H -1.261903 1.262526 -3.932076 0
M  V30 45 H -4.355463 -3.503491 2.401791 0
M  V30 46 H -3.473300 -3.454214 4.892935 0
M  V30 47 H -1.508868 -1.684108 4.992117 0
M  V30 END ATOM
M  V30 BEGIN BOND
M  V30 1 2 1 2
M  V30 2 1 2 3
M  V30 3 1 3 4
M  V30 4 1 4 5
M  V30 5 1 5 6
M  V30 6 1 2 7
M  V30 7 2 7 8
M  V30 8 1 8 9
M  V30 9 2 9 10
M  V30 10 1 10 11
M  V30 11 2 11 12
M  V30 12 1 12 13
M  V30 13 1 13 14
M  V30 14 2 14 15
M  V30 15 1 15 16
M  V30 16 1 16 17
M  V30 17 2 17 18
M  V30 18 1 18 19
M  V30 19 1 19 20
M  V30 20 2 19 21
M  V30 21 1 21 22
M  V30 22 2 22 23
M  V30 23 1 23 24
M  V30 24 2 16 25
M  V30 25 1 25 26
M  V30 26 1 26 27
M  V30 27 1 27 28
M  V30 28 2 28 29
M  V30 29 1 29 30
M  V30 30 1 6 4
M  V30 31 1 12 7
M  V30 32 1 30 14
M  V30 33 1 23 17
M  V30 34 2 30 26
M  V30 35 1 3 31
M  V30 36 1 4 32
M  V30 37 1 5 33
M  V30 38 1 5 34
M  V30 39 1 6 35
M  V30 40 1 6 36
M  V30 41 1 8 37
M  V30 42 1 10 38
M  V30 43 1 11 39
M  V30 44 1 13 40
M  V30 45 1 15 41
M  V30 46 1 18 42
M  V30 47 1 21 43
M  V30 48 1 22 44
M  V30 49 1 27 45
M  V30 50 1 28 46
M  V30 51 1 29 47
M  V30 END BOND
M  V30 END CTAB
M  END
>  <Dataset>  (110) 
ChEMBL_Kinases

>  <Ligand_Instance>  (110) 
nan

>  <PDB_ID>  (110) 
nan

>  <Standardized_SMILES>  (110) 
O=C(NC1CC1)c1cnccc1Nc1cc(-c2cc(Cl)ccc2F)nc2[nH]ccc12

>  <Name>  (110) 
nan

>  <Pocket>  (110) 
nan

>  <ATP_Site>  (110) 
nan

>  <Peripheral>  (110) 
nan

>  <Num_H_Atoms_ProtBoundConf>  (110) 
nan

>  <Num_Resolved_Atoms>  (110) 
nan

>  <Num_Not_Resolved_Atoms>  (110) 
nan

$$$$
CHEMBL4483382
     RDKit          3D

  0  0  0  0  0  0  0  0  0  0999 V3000
M  V30 BEGIN CTAB
M  V30 COUNTS 32 34 0 0 0
M  V30 BEGIN ATOM
M  V30 1 O 2.781999 2.277553 0.986504 0
M  V30 2 C 2.447389 1.105717 1.331053 0
M  V30 3 N 3.302037 0.375242 2.217700 0
M  V30 4 C 2.869847 -0.927129 2.562520 0
M  V30 5 C 3.687612 -1.636197 3.415699 0
M  V30 6 C 3.320617 -2.912321 3.789260 0
M  V30 7 C 2.131374 -3.447102 3.291496 0
M  V30 8 C 1.356811 -2.702486 2.448750 0
M  V30 9 C 1.699000 -1.430938 2.061685 0
M  V30 10 N 0.906309 -0.647788 1.189196 0
M  V30 11 C 1.189448 0.669556 0.743084 0
M  V30 12 C 0.444622 1.395383 -0.071930 0
M  V30 13 C -0.756279 0.820196 -0.557902 0
M  V30 14 O -0.746314 1.981981 -1.102731 0
M  V30 15 C -1.979856 0.371377 -1.118147 0
M  V30 16 C -2.298068 -0.917593 -0.707978 0
M  V30 17 C -3.439654 -1.566284 -1.121614 0
M  V30 18 C -4.235084 -0.831568 -1.972545 0
M  V30 19 C -4.027398 0.430070 -2.439583 0
M  V30 20 C -2.870096 0.986786 -1.972405 0
M  V30 21 H 4.182120 0.863494 2.542181 0
M  V30 22 H 4.606277 -1.238256 3.807409 0
M  V30 23 H 3.915599 -3.523691 4.455310 0
M  V30 24 H 1.835570 -4.445314 3.578186 0
M  V30 25 H 0.443916 -3.155075 2.086615 0
M  V30 26 H 0.054470 -1.122947 0.876375 0
M  V30 27 H 0.985107 2.354453 -0.185413 0
M  V30 28 H -1.832726 -1.676576 -0.054086 0
M  V30 29 H -3.847049 -2.546727 -0.914093 0
M  V30 30 H -5.172553 -1.229736 -2.376019 0
M  V30 31 H -4.646741 0.990840 -3.096784 0
M  V30 32 H -2.610422 1.990784 -2.284419 0
M  V30 END ATOM
M  V30 BEGIN BOND
M  V30 1 2 1 2
M  V30 2 1 2 3
M  V30 3 1 3 4
M  V30 4 2 4 5
M  V30 5 1 5 6
M  V30 6 2 6 7
M  V30 7 1 7 8
M  V30 8 2 8 9
M  V30 9 1 9 10
M  V30 10 1 10 11
M  V30 11 2 11 12
M  V30 12 1 12 13
M  V30 13 2 13 14
M  V30 14 1 13 15
M  V30 15 2 15 16
M  V30 16 1 16 17
M  V30 17 2 17 18
M  V30 18 1 18 19
M  V30 19 2 19 20
M  V30 20 1 11 2
M  V30 21 1 20 15
M  V30 22 1 9 4
M  V30 23 1 3 21
M  V30 24 1 5 22
M  V30 25 1 6 23
M  V30 26 1 7 24
M  V30 27 1 8 25
M  V30 28 1 10 26
M  V30 29 1 12 27
M  V30 30 1 16 28
M  V30 31 1 17 29
M  V30 32 1 18 30
M  V30 33 1 19 31
M  V30 34 1 20 32
M  V30 END BOND
M  V30 END CTAB
M  END
>  <Dataset>  (111) 
ChEMBL_Kinases

>  <Ligand_Instance>  (111) 
nan

>  <PDB_ID>  (111) 
nan

>  <Standardized_SMILES>  (111) 
O=C1Nc2ccccc2N/C1=C\C(=O)c1ccccc1

>  <Name>  (111) 
nan

>  <Pocket>  (111) 
nan

>  <ATP_Site>  (111) 
nan

>  <Peripheral>  (111) 
nan

>  <Num_H_Atoms_ProtBoundConf>  (111) 
nan

>  <Num_Resolved_Atoms>  (111) 
nan

>  <Num_Not_Resolved_Atoms>  (111) 
nan

$$$$
CHEMBL4483329
     RDKit          3D

  0  0  0  0  0  0  0  0  0  0999 V3000
M  V30 BEGIN CTAB
M  V30 COUNTS 43 46 0 0 0
M  V30 BEGIN ATOM
M  V30 1 C -0.588527 -4.816199 -2.418083 0
M  V30 2 C 0.626498 -4.564108 -1.600492 0
M  V30 3 N 1.715815 -5.381231 -1.511934 0
M  V30 4 N 2.607184 -4.837926 -0.690458 0
M  V30 5 C 2.153947 -3.665111 -0.212597 0
M  V30 6 C 0.909768 -3.488650 -0.781488 0
M  V30 7 C 0.022357 -2.348437 -0.560206 0
M  V30 8 N 0.411178 -1.359786 0.264247 0
M  V30 9 C -0.318383 -0.265763 0.542676 0
M  V30 10 N 0.169746 0.738528 1.423780 0
M  V30 11 C 1.466360 0.570109 2.033639 0 CFG=2
M  V30 12 C 1.518594 -0.635882 2.928461 0
M  V30 13 C 1.846044 1.769542 2.815815 0
M  V30 14 C 2.389687 1.675867 4.079385 0
M  V30 15 C 2.745773 2.808714 4.811380 0
M  V30 16 C 2.537733 4.054058 4.230962 0
M  V30 17 C 1.991247 4.125211 2.962659 0
M  V30 18 C 1.634797 3.000540 2.229181 0
M  V30 19 C -1.535001 -0.233048 -0.101960 0
M  V30 20 C -2.364259 0.840783 0.109649 0
M  V30 21 C -3.592489 0.925638 -0.508926 0
M  V30 22 N -4.005094 -0.041353 -1.332915 0
M  V30 23 C -3.228155 -1.116135 -1.573696 0
M  V30 24 C -1.998820 -1.202864 -0.955694 0
M  V30 25 N -1.160506 -2.257037 -1.150033 0
M  V30 26 H -1.522430 -4.487667 -1.899232 0
M  V30 27 H -0.540077 -4.240789 -3.365191 0
M  V30 28 H -0.629601 -5.899162 -2.655201 0
M  V30 29 H 1.845102 -6.307940 -2.014127 0
M  V30 30 H 2.669714 -3.007419 0.474935 0
M  V30 31 H -0.337459 1.591732 1.666086 0
M  V30 32 H 2.202307 0.382349 1.206033 0
M  V30 33 H 2.611616 -0.807720 3.146446 0
M  V30 34 H 0.963061 -0.410786 3.868641 0
M  V30 35 H 1.164019 -1.565098 2.483750 0
M  V30 36 H 2.552790 0.698955 4.534472 0
M  V30 37 H 3.176290 2.755095 5.810377 0
M  V30 38 H 2.796262 4.986745 4.753568 0
M  V30 39 H 1.829029 5.093294 2.510406 0
M  V30 40 H 1.211869 3.095822 1.244461 0
M  V30 41 H -2.102929 1.644803 0.750145 0
M  V30 42 H -4.313597 1.718972 -0.411790 0
M  V30 43 H -3.556495 -1.916027 -2.248339 0
M  V30 END ATOM
M  V30 BEGIN BOND
M  V30 1 1 1 2
M  V30 2 1 2 3
M  V30 3 1 3 4
M  V30 4 2 4 5
M  V30 5 1 5 6
M  V30 6 1 6 7
M  V30 7 2 7 8
M  V30 8 1 8 9
M  V30 9 1 9 10
M  V30 10 1 10 11
M  V30 11 1 11 12
M  V30 12 1 11 13
M  V30 13 2 13 14
M  V30 14 1 14 15
M  V30 15 2 15 16
M  V30 16 1 16 17
M  V30 17 2 17 18
M  V30 18 2 9 19
M  V30 19 1 19 20
M  V30 20 2 20 21
M  V30 21 1 21 22
M  V30 22 2 22 23
M  V30 23 1 23 24
M  V30 24 2 24 25
M  V30 25 2 6 2
M  V30 26 1 25 7
M  V30 27 1 18 13
M  V30 28 1 24 19
M  V30 29 1 1 26
M  V30 30 1 1 27
M  V30 31 1 1 28
M  V30 32 1 3 29
M  V30 33 1 5 30
M  V30 34 1 10 31
M  V30 35 1 11 32 CFG=3
M  V30 36 1 12 33
M  V30 37 1 12 34
M  V30 38 1 12 35
M  V30 39 1 14 36
M  V30 40 1 15 37
M  V30 41 1 16 38
M  V30 42 1 17 39
M  V30 43 1 18 40
M  V30 44 1 20 41
M  V30 45 1 21 42
M  V30 46 1 23 43
M  V30 END BOND
M  V30 END CTAB
M  END
>  <Dataset>  (112) 
ChEMBL_Kinases

>  <Ligand_Instance>  (112) 
nan

>  <PDB_ID>  (112) 
nan

>  <Standardized_SMILES>  (112) 
Cc1[nH]ncc1-c1nc(N[C@H](C)c2ccccc2)c2ccncc2n1

>  <Name>  (112) 
nan

>  <Pocket>  (112) 
nan

>  <ATP_Site>  (112) 
nan

>  <Peripheral>  (112) 
nan

>  <Num_H_Atoms_ProtBoundConf>  (112) 
nan

>  <Num_Resolved_Atoms>  (112) 
nan

>  <Num_Not_Resolved_Atoms>  (112) 
nan

$$$$
CHEMBL4649409
     RDKit          3D

  0  0  0  0  0  0  0  0  0  0999 V3000
M  V30 BEGIN CTAB
M  V30 COUNTS 50 53 0 0 0
M  V30 BEGIN ATOM
M  V30 1 C -3.669230 -3.305645 2.467714 0
M  V30 2 C -2.487795 -2.800238 1.736415 0
M  V30 3 C -1.523764 -2.058720 2.376719 0
M  V30 4 C -0.411797 -1.574426 1.719028 0
M  V30 5 C 0.689268 -0.789420 2.276715 0
M  V30 6 C 1.441980 -1.018128 3.409569 0
M  V30 7 N 2.322680 -0.012049 3.498397 0
M  V30 8 C 2.151156 0.831668 2.472238 0
M  V30 9 C 2.795119 2.006592 2.121283 0
M  V30 10 N 3.822241 2.508159 2.973138 0
M  V30 11 C 4.705103 3.609713 2.959736 0
M  V30 12 C 5.977984 3.460614 2.209366 0
M  V30 13 C 5.830263 3.135153 0.766880 0
M  V30 14 F 5.190754 1.938077 0.572670 0
M  V30 15 F 7.079811 3.105900 0.120321 0
M  V30 16 F 5.120142 4.112623 0.087626 0
M  V30 17 N 2.359270 2.623002 1.006038 0
M  V30 18 C 1.364946 2.191844 0.224418 0
M  V30 19 C 0.935616 2.894427 -0.963199 0
M  V30 20 N 0.579816 3.466987 -1.901936 0
M  V30 21 C 0.747426 1.011594 0.613271 0
M  V30 22 N 1.147475 0.358019 1.719402 0
M  V30 23 C -0.247948 -1.839502 0.355913 0
M  V30 24 C -1.262435 -2.597130 -0.234089 0
M  V30 25 C -2.397415 -3.102247 0.395547 0
M  V30 26 C -3.346326 -3.875075 -0.410516 0
M  V30 27 O -3.848998 -4.936327 0.020154 0
M  V30 28 N -3.598215 -3.280977 -1.678495 0
M  V30 29 C -4.522520 -3.968249 -2.556880 0
M  V30 30 C -3.997212 -4.533866 -3.856662 0
M  V30 31 C -5.007200 -3.416640 -3.830457 0
M  V30 32 H -4.483559 -3.592512 1.801728 0
M  V30 33 H -3.348608 -4.078319 3.199550 0
M  V30 34 H -4.029787 -2.437389 3.098360 0
M  V30 35 H -1.585801 -1.816544 3.425731 0
M  V30 36 H 1.226119 -1.914058 4.017273 0
M  V30 37 H 4.019141 1.950901 3.855039 0
M  V30 38 H 4.153933 4.470941 2.433597 0
M  V30 39 H 4.875463 4.064439 3.969339 0
M  V30 40 H 6.672272 2.720191 2.722893 0
M  V30 41 H 6.479943 4.483181 2.254400 0
M  V30 42 H -0.063236 0.702778 -0.049184 0
M  V30 43 H 0.573093 -1.537074 -0.296598 0
M  V30 44 H -1.156357 -2.818399 -1.309318 0
M  V30 45 H -3.162929 -2.393229 -2.009755 0
M  V30 46 H -5.182331 -4.688431 -2.020958 0
M  V30 47 H -4.372552 -5.537843 -4.177539 0
M  V30 48 H -2.919410 -4.300702 -4.034279 0
M  V30 49 H -4.689134 -2.408923 -4.189482 0
M  V30 50 H -6.044937 -3.656179 -4.191858 0
M  V30 END ATOM
M  V30 BEGIN BOND
M  V30 1 1 1 2
M  V30 2 2 2 3
M  V30 3 1 3 4
M  V30 4 1 4 5
M  V30 5 2 5 6
M  V30 6 1 6 7
M  V30 7 2 7 8
M  V30 8 1 8 9
M  V30 9 1 9 10
M  V30 10 1 10 11
M  V30 11 1 11 12
M  V30 12 1 12 13
M  V30 13 1 13 14
M  V30 14 1 13 15
M  V30 15 1 13 16
M  V30 16 2 9 17
M  V30 17 1 17 18
M  V30 18 1 18 19
M  V30 19 3 19 20
M  V30 20 2 18 21
M  V30 21 1 21 22
M  V30 22 2 4 23
M  V30 23 1 23 24
M  V30 24 2 24 25
M  V30 25 1 25 26
M  V30 26 2 26 27
M  V30 27 1 26 28
M  V30 28 1 28 29
M  V30 29 1 29 30
M  V30 30 1 30 31
M  V30 31 1 25 2
M  V30 32 1 31 29
M  V30 33 1 22 5
M  V30 34 1 22 8
M  V30 35 1 1 32
M  V30 36 1 1 33
M  V30 37 1 1 34
M  V30 38 1 3 35
M  V30 39 1 6 36
M  V30 40 1 10 37
M  V30 41 1 11 38
M  V30 42 1 11 39
M  V30 43 1 12 40
M  V30 44 1 12 41
M  V30 45 1 21 42
M  V30 46 1 23 43
M  V30 47 1 24 44
M  V30 48 1 28 45
M  V30 49 1 29 46
M  V30 50 1 30 47
M  V30 51 1 30 48
M  V30 52 1 31 49
M  V30 53 1 31 50
M  V30 END BOND
M  V30 END CTAB
M  END
>  <Dataset>  (113) 
ChEMBL_Kinases

>  <Ligand_Instance>  (113) 
nan

>  <PDB_ID>  (113) 
nan

>  <Standardized_SMILES>  (113) 
Cc1cc(-c2cnc3c(NCCC(F)(F)F)nc(C#N)cn23)ccc1C(=O)NC1CC1

>  <Name>  (113) 
nan

>  <Pocket>  (113) 
nan

>  <ATP_Site>  (113) 
nan

>  <Peripheral>  (113) 
nan

>  <Num_H_Atoms_ProtBoundConf>  (113) 
nan

>  <Num_Resolved_Atoms>  (113) 
nan

>  <Num_Not_Resolved_Atoms>  (113) 
nan

$$$$
CHEMBL4483032
     RDKit          3D

  0  0  0  0  0  0  0  0  0  0999 V3000
M  V30 BEGIN CTAB
M  V30 COUNTS 40 43 0 0 0
M  V30 BEGIN ATOM
M  V30 1 N 3.381292 -5.016948 -0.921274 0
M  V30 2 C 3.145064 -3.887567 -0.091499 0
M  V30 3 O 3.699349 -3.755431 1.032063 0
M  V30 4 C 2.217659 -2.867831 -0.601929 0
M  V30 5 N 1.541732 -2.837345 -1.760601 0
M  V30 6 C 0.781902 -1.703791 -1.848265 0
M  V30 7 C -0.016604 -1.644528 -3.054199 0
M  V30 8 C -1.065646 -2.807696 -3.116088 0
M  V30 9 C -1.455192 -1.350376 -3.162329 0
M  V30 10 C 1.021855 -1.039891 -0.696940 0
M  V30 11 C 0.411659 0.219344 -0.350133 0
M  V30 12 C -0.299561 1.116381 -1.081954 0
M  V30 13 C -0.900853 2.282087 -0.671059 0
M  V30 14 N -0.770685 2.592042 0.654290 0
M  V30 15 C -0.067997 1.739806 1.456429 0
M  V30 16 N 0.066645 2.062189 2.836578 0
M  V30 17 C -0.999940 1.505012 3.578256 0
M  V30 18 O -2.004184 0.808819 3.273309 0
M  V30 19 C -1.201571 1.626217 5.043069 0
M  V30 20 C 0.029840 1.357124 5.938148 0
M  V30 21 C -0.616047 2.710316 5.840810 0
M  V30 22 C 0.510869 0.584050 0.978886 0
M  V30 23 N 1.886653 -1.747947 0.049933 0
M  V30 24 H 3.409901 -6.035809 -0.660250 0
M  V30 25 H 3.385329 -5.991945 -0.543754 0
M  V30 26 H 0.567520 -1.560956 -3.997723 0
M  V30 27 H -1.112004 -3.379634 -4.062614 0
M  V30 28 H -1.254348 -3.375110 -2.206764 0
M  V30 29 H -1.816896 -0.898263 -4.107846 0
M  V30 30 H -2.055477 -1.023028 -2.290647 0
M  V30 31 H -0.384300 0.905768 -2.128939 0
M  V30 32 H -1.439812 2.901836 -1.371529 0
M  V30 33 H 0.774258 2.608668 3.378426 0
M  V30 34 H -2.116409 1.097166 5.380116 0
M  V30 35 H -0.126355 0.721190 6.828405 0
M  V30 36 H 0.992728 1.253625 5.400969 0
M  V30 37 H -1.178606 3.012921 6.766701 0
M  V30 38 H -0.068232 3.504126 5.276213 0
M  V30 39 H 1.055254 -0.032440 1.710892 0
M  V30 40 H 2.274690 -1.500599 1.008671 0
M  V30 END ATOM
M  V30 BEGIN BOND
M  V30 1 1 1 2
M  V30 2 2 2 3
M  V30 3 1 2 4
M  V30 4 2 4 5
M  V30 5 1 5 6
M  V30 6 1 6 7
M  V30 7 1 7 8
M  V30 8 1 8 9
M  V30 9 2 6 10
M  V30 10 1 10 11
M  V30 11 2 11 12
M  V30 12 1 12 13
M  V30 13 2 13 14
M  V30 14 1 14 15
M  V30 15 1 15 16
M  V30 16 1 16 17
M  V30 17 2 17 18
M  V30 18 1 17 19
M  V30 19 1 19 20
M  V30 20 1 20 21
M  V30 21 2 15 22
M  V30 22 1 10 23
M  V30 23 1 23 4
M  V30 24 1 9 7
M  V30 25 1 22 11
M  V30 26 1 21 19
M  V30 27 1 1 24
M  V30 28 1 1 25
M  V30 29 1 7 26
M  V30 30 1 8 27
M  V30 31 1 8 28
M  V30 32 1 9 29
M  V30 33 1 9 30
M  V30 34 1 12 31
M  V30 35 1 13 32
M  V30 36 1 16 33
M  V30 37 1 19 34
M  V30 38 1 20 35
M  V30 39 1 20 36
M  V30 40 1 21 37
M  V30 41 1 21 38
M  V30 42 1 22 39
M  V30 43 1 23 40
M  V30 END BOND
M  V30 END CTAB
M  END
>  <Dataset>  (114) 
ChEMBL_Kinases

>  <Ligand_Instance>  (114) 
nan

>  <PDB_ID>  (114) 
nan

>  <Standardized_SMILES>  (114) 
NC(=O)c1nc(C2CC2)c(-c2ccnc(NC(=O)C3CC3)c2)[nH]1

>  <Name>  (114) 
nan

>  <Pocket>  (114) 
nan

>  <ATP_Site>  (114) 
nan

>  <Peripheral>  (114) 
nan

>  <Num_H_Atoms_ProtBoundConf>  (114) 
nan

>  <Num_Resolved_Atoms>  (114) 
nan

>  <Num_Not_Resolved_Atoms>  (114) 
nan

$$$$
CHEMBL4483014
     RDKit          3D

  0  0  0  0  0  0  0  0  0  0999 V3000
M  V30 BEGIN CTAB
M  V30 COUNTS 49 52 0 0 0
M  V30 BEGIN ATOM
M  V30 1 C 2.041260 -6.041860 2.374666 0
M  V30 2 O 1.108780 -6.250734 1.330249 0
M  V30 3 C 0.452408 -5.169712 0.766115 0
M  V30 4 C 0.666241 -3.876825 1.178960 0
M  V30 5 C -0.039277 -2.876037 0.550148 0
M  V30 6 C -0.950197 -3.037055 -0.464072 0
M  V30 7 N -1.664115 -1.988680 -1.095848 0
M  V30 8 C -1.614059 -0.594260 -0.846198 0
M  V30 9 N -2.391246 0.219660 -1.580406 0
M  V30 10 C -2.428258 1.546553 -1.435086 0
M  V30 11 C -1.633792 2.130606 -0.486364 0
M  V30 12 C -0.821462 1.333986 0.288617 0
M  V30 13 N -0.848713 0.011695 0.073813 0
M  V30 14 N -0.179014 2.165876 1.106153 0
M  V30 15 C 0.773999 1.846032 2.101316 0
M  V30 16 C 2.028564 2.720198 2.020882 0
M  V30 17 C 2.848411 2.084979 3.129574 0
M  V30 18 C 2.590570 0.612831 2.981237 0
M  V30 19 C 1.348930 0.477232 2.088205 0
M  V30 20 C -0.547566 3.443446 0.882771 0
M  V30 21 O -0.226568 4.554281 1.388558 0
M  V30 22 N -1.461706 3.413170 -0.119064 0
M  V30 23 C -2.172704 4.541964 -0.736998 0
M  V30 24 C -1.128192 -4.362412 -0.842394 0
M  V30 25 C -2.091517 -4.672891 -1.934436 0
M  V30 26 C -0.443824 -5.391920 -0.240629 0
M  V30 27 H 2.984837 -5.625240 1.923016 0
M  V30 28 H 2.222945 -7.038989 2.835292 0
M  V30 29 H 1.598634 -5.359038 3.128828 0
M  V30 30 H 1.373093 -3.692651 1.974186 0
M  V30 31 H 0.180746 -1.894526 0.926386 0
M  V30 32 H -2.319272 -2.308973 -1.855216 0
M  V30 33 H -3.087743 2.123058 -2.074101 0
M  V30 34 H 0.387513 2.022068 3.141281 0
M  V30 35 H 1.823437 3.777042 2.199327 0
M  V30 36 H 2.580038 2.530243 1.065867 0
M  V30 37 H 3.922116 2.345573 3.052038 0
M  V30 38 H 2.384779 2.421784 4.073120 0
M  V30 39 H 2.437942 0.087937 3.947438 0
M  V30 40 H 3.477388 0.154300 2.521560 0
M  V30 41 H 0.619528 -0.224772 2.586502 0
M  V30 42 H 1.704047 0.122316 1.121361 0
M  V30 43 H -3.124947 4.630865 -0.162039 0
M  V30 44 H -2.461670 4.250377 -1.768618 0
M  V30 45 H -1.571518 5.467812 -0.714204 0
M  V30 46 H -2.306916 -5.760675 -1.927163 0
M  V30 47 H -3.087610 -4.191917 -1.711526 0
M  V30 48 H -1.720246 -4.378290 -2.920815 0
M  V30 49 H -0.641173 -6.405876 -0.596693 0
M  V30 END ATOM
M  V30 BEGIN BOND
M  V30 1 1 1 2
M  V30 2 1 2 3
M  V30 3 2 3 4
M  V30 4 1 4 5
M  V30 5 2 5 6
M  V30 6 1 6 7
M  V30 7 1 7 8
M  V30 8 2 8 9
M  V30 9 1 9 10
M  V30 10 2 10 11
M  V30 11 1 11 12
M  V30 12 2 12 13
M  V30 13 1 12 14
M  V30 14 1 14 15
M  V30 15 1 15 16
M  V30 16 1 16 17
M  V30 17 1 17 18
M  V30 18 1 18 19
M  V30 19 1 14 20
M  V30 20 2 20 21
M  V30 21 1 20 22
M  V30 22 1 22 23
M  V30 23 1 6 24
M  V30 24 1 24 25
M  V30 25 2 24 26
M  V30 26 1 26 3
M  V30 27 1 13 8
M  V30 28 1 19 15
M  V30 29 1 22 11
M  V30 30 1 1 27
M  V30 31 1 1 28
M  V30 32 1 1 29
M  V30 33 1 4 30
M  V30 34 1 5 31
M  V30 35 1 7 32
M  V30 36 1 10 33
M  V30 37 1 15 34
M  V30 38 1 16 35
M  V30 39 1 16 36
M  V30 40 1 17 37
M  V30 41 1 17 38
M  V30 42 1 18 39
M  V30 43 1 18 40
M  V30 44 1 19 41
M  V30 45 1 19 42
M  V30 46 1 23 43
M  V30 47 1 23 44
M  V30 48 1 23 45
M  V30 49 1 25 46
M  V30 50 1 25 47
M  V30 51 1 25 48
M  V30 52 1 26 49
M  V30 END BOND
M  V30 END CTAB
M  END
>  <Dataset>  (115) 
ChEMBL_Kinases

>  <Ligand_Instance>  (115) 
nan

>  <PDB_ID>  (115) 
nan

>  <Standardized_SMILES>  (115) 
COc1ccc(Nc2ncc3c(n2)n(C2CCCC2)c(=O)n3C)c(C)c1

>  <Name>  (115) 
nan

>  <Pocket>  (115) 
nan

>  <ATP_Site>  (115) 
nan

>  <Peripheral>  (115) 
nan

>  <Num_H_Atoms_ProtBoundConf>  (115) 
nan

>  <Num_Resolved_Atoms>  (115) 
nan

>  <Num_Not_Resolved_Atoms>  (115) 
nan

$$$$
CHEMBL4513266
     RDKit          3D

  0  0  0  0  0  0  0  0  0  0999 V3000
M  V30 BEGIN CTAB
M  V30 COUNTS 47 51 0 0 0
M  V30 BEGIN ATOM
M  V30 1 Br 2.958567 -3.758082 4.946518 0
M  V30 2 C 2.940399 -2.158565 3.907178 0
M  V30 3 C 2.794981 -2.287480 2.543817 0
M  V30 4 C 2.780153 -1.139154 1.767679 0
M  V30 5 C 2.900988 0.137617 2.259236 0
M  V30 6 N 2.884067 1.302088 1.445089 0
M  V30 7 C 2.717081 1.005230 0.075305 0
M  V30 8 N 3.860797 0.720315 -0.542937 0
M  V30 9 C 3.940017 0.409481 -1.840240 0
M  V30 10 N 2.794860 0.389432 -2.537062 0
M  V30 11 C 1.604422 0.671431 -1.956676 0
M  V30 12 S -0.175104 0.768580 -2.505252 0
M  V30 13 C -0.813142 1.198195 -1.003915 0
M  V30 14 C 0.292745 1.276078 -0.066380 0
M  V30 15 C 1.516438 1.001512 -0.581738 0
M  V30 16 C -0.219146 1.652646 1.269899 0
M  V30 17 C -1.333721 0.647217 1.562924 0
M  V30 18 N -2.442181 0.901903 0.719749 0
M  V30 19 C -3.509112 -0.020935 0.779088 0
M  V30 20 C -3.068531 -1.377793 0.395035 0
M  V30 21 C -2.583223 -2.209825 1.404715 0
M  V30 22 C -2.147451 -3.505926 1.171401 0
M  V30 23 C -2.195117 -3.998958 -0.121669 0
M  V30 24 C -2.671915 -3.198909 -1.150838 0
M  V30 25 C -3.097835 -1.910733 -0.878084 0
M  V30 26 C -2.205017 1.487861 -0.545963 0
M  V30 27 C 3.045044 0.192916 3.648640 0
M  V30 28 C 3.065410 -0.909164 4.453800 0
M  V30 29 H 2.692640 -3.269535 2.073654 0
M  V30 30 H 2.662402 -1.286105 0.695131 0
M  V30 31 H 2.994013 2.217785 1.941771 0
M  V30 32 H 4.765279 0.157109 -2.488636 0
M  V30 33 H -0.722173 2.648708 1.208034 0
M  V30 34 H 0.516828 1.729200 2.057035 0
M  V30 35 H -0.897291 -0.359498 1.308868 0
M  V30 36 H -1.574166 0.627164 2.640866 0
M  V30 37 H -3.881736 -0.054836 1.826736 0
M  V30 38 H -4.294197 0.303842 0.068630 0
M  V30 39 H -2.541534 -1.828258 2.430461 0
M  V30 40 H -1.785210 -4.085356 2.009533 0
M  V30 41 H -1.843802 -5.025244 -0.265366 0
M  V30 42 H -2.703517 -3.599324 -2.158159 0
M  V30 43 H -3.471305 -1.278878 -1.670813 0
M  V30 44 H -2.876735 1.006228 -1.287512 0
M  V30 45 H -2.408448 2.583511 -0.552948 0
M  V30 46 H 3.148611 1.161022 4.136526 0
M  V30 47 H 3.175950 -0.878782 5.528468 0
M  V30 END ATOM
M  V30 BEGIN BOND
M  V30 1 1 1 2
M  V30 2 2 2 3
M  V30 3 1 3 4
M  V30 4 2 4 5
M  V30 5 1 5 6
M  V30 6 1 6 7
M  V30 7 2 7 8
M  V30 8 1 8 9
M  V30 9 2 9 10
M  V30 10 1 10 11
M  V30 11 1 11 12
M  V30 12 1 12 13
M  V30 13 2 13 14
M  V30 14 1 14 15
M  V30 15 1 14 16
M  V30 16 1 16 17
M  V30 17 1 17 18
M  V30 18 1 18 19
M  V30 19 1 19 20
M  V30 20 2 20 21
M  V30 21 1 21 22
M  V30 22 2 22 23
M  V30 23 1 23 24
M  V30 24 2 24 25
M  V30 25 1 18 26
M  V30 26 1 5 27
M  V30 27 2 27 28
M  V30 28 1 28 2
M  V30 29 1 15 7
M  V30 30 1 25 20
M  V30 31 2 15 11
M  V30 32 1 26 13
M  V30 33 1 3 29
M  V30 34 1 4 30
M  V30 35 1 6 31
M  V30 36 1 9 32
M  V30 37 1 16 33
M  V30 38 1 16 34
M  V30 39 1 17 35
M  V30 40 1 17 36
M  V30 41 1 19 37
M  V30 42 1 19 38
M  V30 43 1 21 39
M  V30 44 1 22 40
M  V30 45 1 23 41
M  V30 46 1 24 42
M  V30 47 1 25 43
M  V30 48 1 26 44
M  V30 49 1 26 45
M  V30 50 1 27 46
M  V30 51 1 28 47
M  V30 END BOND
M  V30 END CTAB
M  END
>  <Dataset>  (116) 
ChEMBL_Kinases

>  <Ligand_Instance>  (116) 
nan

>  <PDB_ID>  (116) 
nan

>  <Standardized_SMILES>  (116) 
Brc1ccc(Nc2ncnc3sc4c(c23)CCN(Cc2ccccc2)C4)cc1

>  <Name>  (116) 
nan

>  <Pocket>  (116) 
nan

>  <ATP_Site>  (116) 
nan

>  <Peripheral>  (116) 
nan

>  <Num_H_Atoms_ProtBoundConf>  (116) 
nan

>  <Num_Resolved_Atoms>  (116) 
nan

>  <Num_Not_Resolved_Atoms>  (116) 
nan

$$$$
CHEMBL4482947
     RDKit          3D

  0  0  0  0  0  0  0  0  0  0999 V3000
M  V30 BEGIN CTAB
M  V30 COUNTS 52 55 0 0 0
M  V30 BEGIN ATOM
M  V30 1 C -1.680232 -1.759085 -0.238608 0
M  V30 2 N -0.779270 -2.843935 -0.539962 0
M  V30 3 C 0.627032 -2.818796 -0.551298 0
M  V30 4 N 1.277205 -1.690196 -0.234125 0
M  V30 5 C 2.603822 -1.560098 -0.196151 0
M  V30 6 N 3.313992 -0.380222 0.133218 0
M  V30 7 C 2.790706 0.870248 0.540215 0
M  V30 8 C 3.661461 1.948776 0.610701 0
M  V30 9 N 3.267983 3.173995 0.992177 0
M  V30 10 C 1.981307 3.411068 1.330418 0
M  V30 11 C 1.573963 4.716266 1.743086 0
M  V30 12 N 1.263853 5.776698 2.074144 0
M  V30 13 C 1.024274 2.426706 1.302454 0
M  V30 14 O -0.262737 2.448226 1.590433 0
M  V30 15 C -1.275892 3.245177 1.975674 0
M  V30 16 C -1.716968 3.049770 3.428207 0
M  V30 17 C -2.227022 1.656961 3.659364 0
M  V30 18 C -3.031919 1.093676 2.552388 0
M  V30 19 N -3.261670 1.876857 1.417887 0
M  V30 20 C -2.569122 3.084195 1.205999 0
M  V30 21 C 1.488341 1.166861 0.896734 0
M  V30 22 N 3.254298 -2.682425 -0.509839 0
M  V30 23 C 2.699647 -3.844183 -0.836351 0
M  V30 24 C 1.326794 -3.951113 -0.868336 0
M  V30 25 C 0.756938 -5.229218 -1.253443 0
M  V30 26 C -0.209436 -5.315514 -2.234857 0
M  V30 27 C -0.700321 -6.568169 -2.534848 0
M  V30 28 N -0.303422 -7.720732 -1.936945 0
M  V30 29 C 0.652798 -7.647616 -0.964256 0
M  V30 30 C 1.168784 -6.399717 -0.637816 0
M  V30 31 H -2.270417 -1.477490 -1.148874 0
M  V30 32 H -1.154527 -0.822465 0.056923 0
M  V30 33 H -2.359395 -1.984512 0.603981 0
M  V30 34 H -1.407176 -3.628606 -0.736728 0
M  V30 35 H 4.368281 -0.455679 0.065110 0
M  V30 36 H 4.723759 1.927330 0.374685 0
M  V30 37 H -1.004397 4.316592 1.925733 0
M  V30 38 H -0.888684 3.326178 4.097599 0
M  V30 39 H -2.537518 3.774490 3.598514 0
M  V30 40 H -2.786514 1.674650 4.629788 0
M  V30 41 H -1.335711 1.019746 3.862228 0
M  V30 42 H -4.032819 0.787614 2.979510 0
M  V30 43 H -2.608267 0.110655 2.219805 0
M  V30 44 H -3.457352 1.314033 0.561554 0
M  V30 45 H -2.418279 3.232247 0.104212 0
M  V30 46 H -3.214072 3.941898 1.525795 0
M  V30 47 H 0.814988 0.310848 0.841873 0
M  V30 48 H 3.393873 -4.646878 -1.058914 0
M  V30 49 H -0.589248 -4.482341 -2.770628 0
M  V30 50 H -1.464637 -6.717170 -3.297553 0
M  V30 51 H 0.967394 -8.573796 -0.490158 0
M  V30 52 H 1.909870 -6.378345 0.122970 0
M  V30 END ATOM
M  V30 BEGIN BOND
M  V30 1 1 1 2
M  V30 2 1 2 3
M  V30 3 2 3 4
M  V30 4 1 4 5
M  V30 5 1 5 6
M  V30 6 1 6 7
M  V30 7 2 7 8
M  V30 8 1 8 9
M  V30 9 2 9 10
M  V30 10 1 10 11
M  V30 11 3 11 12
M  V30 12 1 10 13
M  V30 13 1 13 14
M  V30 14 1 14 15
M  V30 15 1 15 16
M  V30 16 1 16 17
M  V30 17 1 17 18
M  V30 18 1 18 19
M  V30 19 1 19 20
M  V30 20 2 13 21
M  V30 21 2 5 22
M  V30 22 1 22 23
M  V30 23 2 23 24
M  V30 24 1 24 25
M  V30 25 2 25 26
M  V30 26 1 26 27
M  V30 27 2 27 28
M  V30 28 1 28 29
M  V30 29 2 29 30
M  V30 30 1 24 3
M  V30 31 1 30 25
M  V30 32 1 21 7
M  V30 33 1 20 15
M  V30 34 1 1 31
M  V30 35 1 1 32
M  V30 36 1 1 33
M  V30 37 1 2 34
M  V30 38 1 6 35
M  V30 39 1 8 36
M  V30 40 1 15 37
M  V30 41 1 16 38
M  V30 42 1 16 39
M  V30 43 1 17 40
M  V30 44 1 17 41
M  V30 45 1 18 42
M  V30 46 1 18 43
M  V30 47 1 19 44
M  V30 48 1 20 45
M  V30 49 1 20 46
M  V30 50 1 21 47
M  V30 51 1 23 48
M  V30 52 1 26 49
M  V30 53 1 27 50
M  V30 54 1 29 51
M  V30 55 1 30 52
M  V30 END BOND
M  V30 END CTAB
M  END
>  <Dataset>  (117) 
ChEMBL_Kinases

>  <Ligand_Instance>  (117) 
nan

>  <PDB_ID>  (117) 
nan

>  <Standardized_SMILES>  (117) 
CNc1nc(Nc2cnc(C#N)c(OC3CCCNC3)c2)ncc1-c1ccncc1

>  <Name>  (117) 
nan

>  <Pocket>  (117) 
nan

>  <ATP_Site>  (117) 
nan

>  <Peripheral>  (117) 
nan

>  <Num_H_Atoms_ProtBoundConf>  (117) 
nan

>  <Num_Resolved_Atoms>  (117) 
nan

>  <Num_Not_Resolved_Atoms>  (117) 
nan

$$$$
CHEMBL4482943
     RDKit          3D

  0  0  0  0  0  0  0  0  0  0999 V3000
M  V30 BEGIN CTAB
M  V30 COUNTS 96 98 0 0 0
M  V30 BEGIN ATOM
M  V30 1 C 5.029771 -4.969463 0.916944 0
M  V30 2 C 4.460764 -3.566544 0.689222 0
M  V30 3 C 5.087427 -2.969370 -0.540185 0
M  V30 4 C 4.467726 -1.557501 -0.723276 0
M  V30 5 C 5.104100 -1.001778 -1.941847 0
M  V30 6 C 4.735535 0.387144 -2.321267 0
M  V30 7 C 3.288529 0.653519 -2.560400 0
M  V30 8 C 2.390761 0.565984 -1.410679 0
M  V30 9 O 2.251592 0.445114 -0.170444 0
M  V30 10 O 1.088595 0.648835 -1.826733 0
M  V30 11 C -0.084788 0.616072 -1.112006 0 CFG=1
M  V30 12 C -0.605849 2.065107 -1.138528 0
M  V30 13 C 0.249352 3.045825 -1.168786 0
M  V30 14 C -0.092017 4.460338 -1.196098 0
M  V30 15 O -1.202193 5.009615 -1.198162 0
M  V30 16 O 0.865785 5.461392 -1.225158 0
M  V30 17 C 0.509976 6.819938 -1.249188 0
M  V30 18 C -2.055907 2.484841 -1.128420 0
M  V30 19 C -2.734399 1.111020 -0.855223 0 CFG=1
M  V30 20 C -4.187942 1.258025 -0.659546 0
M  V30 21 C -4.574928 0.803472 0.729257 0 CFG=2
M  V30 22 C -6.022923 1.014672 0.982665 0
M  V30 23 O -6.766623 0.493835 -0.093489 0
M  V30 24 C -6.778359 -0.818051 -0.496728 0
M  V30 25 C -7.644579 -1.134563 -1.663091 0
M  V30 26 O -6.109606 -1.721317 0.062974 0
M  V30 27 O -3.701684 1.283606 1.729910 0
M  V30 28 C -2.927896 0.343240 2.435969 0
M  V30 29 O -2.570827 -0.831320 2.669221 0
M  V30 30 C -1.962062 0.699779 3.503688 0
M  V30 31 C -1.224354 -0.527122 3.988097 0
M  V30 32 O -0.484856 -1.158508 2.976123 0
M  V30 33 C 0.287633 -2.292870 3.092162 0
M  V30 34 C 1.037383 -2.365529 4.247150 0
M  V30 35 C 1.897642 -3.418840 4.591713 0
M  V30 36 C 1.979813 -4.450420 3.681816 0
M  V30 37 C 1.234573 -4.386378 2.524736 0
M  V30 38 C 0.390585 -3.352193 2.188778 0
M  V30 39 C -0.327875 -3.448489 0.938907 0
M  V30 40 O -1.023012 -4.492436 0.912861 0
M  V30 41 O -0.329589 -2.581341 -0.135694 0
M  V30 42 C -1.081865 -2.752332 -1.308541 0
M  V30 43 C -0.846048 -1.549306 -2.261258 0
M  V30 44 C 0.538889 -1.641014 -2.836438 0
M  V30 45 C -1.839721 -1.695059 -3.389303 0
M  V30 46 C -1.151177 -0.333651 -1.470727 0 CFG=1
M  V30 47 O -1.706165 -0.872004 -0.253079 0
M  V30 48 O -2.318341 0.345713 -1.943537 0
M  V30 49 H 4.342962 -5.504641 1.595885 0
M  V30 50 H 5.006619 -5.443979 -0.107349 0
M  V30 51 H 6.055082 -4.856330 1.279640 0
M  V30 52 H 4.741489 -2.938992 1.565239 0
M  V30 53 H 3.366625 -3.653697 0.591303 0
M  V30 54 H 4.884841 -3.576416 -1.438083 0
M  V30 55 H 6.157355 -2.764212 -0.380848 0
M  V30 56 H 4.649547 -1.002715 0.201198 0
M  V30 57 H 3.371577 -1.742277 -0.862926 0
M  V30 58 H 4.758257 -1.671439 -2.805052 0
M  V30 59 H 6.224989 -1.091662 -1.919704 0
M  V30 60 H 5.129480 1.086895 -1.507356 0
M  V30 61 H 5.264070 0.705361 -3.272131 0
M  V30 62 H 3.117344 1.668188 -3.016716 0
M  V30 63 H 2.979260 -0.052180 -3.375119 0
M  V30 64 H 0.183263 0.456591 -0.012465 0
M  V30 65 H 1.287112 2.805431 -1.175770 0
M  V30 66 H 1.417506 7.460059 -1.139786 0
M  V30 67 H -0.003473 6.997606 -2.237136 0
M  V30 68 H -0.224991 6.999513 -0.452987 0
M  V30 69 H -2.230435 3.140727 -0.258770 0
M  V30 70 H -2.363565 2.894926 -2.085618 0
M  V30 71 H -2.268932 0.829423 0.111766 0
M  V30 72 H -4.788533 0.630654 -1.365798 0
M  V30 73 H -4.455272 2.336943 -0.701152 0
M  V30 74 H -4.414032 -0.316253 0.734235 0
M  V30 75 H -6.235002 2.090976 1.045004 0
M  V30 76 H -6.348576 0.447423 1.878047 0
M  V30 77 H -7.411375 -2.149875 -2.035871 0
M  V30 78 H -7.557940 -0.404653 -2.478141 0
M  V30 79 H -8.688501 -1.195900 -1.268040 0
M  V30 80 H -1.155631 1.385943 3.116150 0
M  V30 81 H -2.484349 1.145017 4.373150 0
M  V30 82 H -0.542300 -0.236939 4.815551 0
M  V30 83 H -1.959354 -1.221281 4.426655 0
M  V30 84 H 1.014391 -1.571360 5.010053 0
M  V30 85 H 2.457525 -3.412389 5.515622 0
M  V30 86 H 2.628137 -5.265730 3.921254 0
M  V30 87 H 1.307833 -5.222385 1.807909 0
M  V30 88 H -2.126565 -2.989211 -1.163433 0
M  V30 89 H -0.604966 -3.627709 -1.836531 0
M  V30 90 H 0.548557 -2.519630 -3.579754 0
M  V30 91 H 1.333151 -1.886033 -2.144204 0
M  V30 92 H 0.714288 -0.766452 -3.478459 0
M  V30 93 H -2.317819 -2.720083 -3.394883 0
M  V30 94 H -2.623984 -0.909646 -3.366996 0
M  V30 95 H -1.365823 -1.631574 -4.404917 0
M  V30 96 H -2.601612 -1.204867 -0.453342 0
M  V30 END ATOM
M  V30 BEGIN BOND
M  V30 1 1 1 2
M  V30 2 1 2 3
M  V30 3 1 3 4
M  V30 4 1 4 5
M  V30 5 1 5 6
M  V30 6 1 6 7
M  V30 7 1 7 8
M  V30 8 2 8 9
M  V30 9 1 8 10
M  V30 10 1 10 11
M  V30 11 1 11 12
M  V30 12 2 12 13
M  V30 13 1 13 14
M  V30 14 2 14 15
M  V30 15 1 14 16
M  V30 16 1 16 17
M  V30 17 1 12 18
M  V30 18 1 18 19
M  V30 19 1 19 20
M  V30 20 1 20 21
M  V30 21 1 21 22
M  V30 22 1 22 23
M  V30 23 1 23 24
M  V30 24 1 24 25
M  V30 25 2 24 26
M  V30 26 1 21 27
M  V30 27 1 27 28
M  V30 28 2 28 29
M  V30 29 1 28 30
M  V30 30 1 30 31
M  V30 31 1 31 32
M  V30 32 1 32 33
M  V30 33 2 33 34
M  V30 34 1 34 35
M  V30 35 2 35 36
M  V30 36 1 36 37
M  V30 37 2 37 38
M  V30 38 1 38 39
M  V30 39 2 39 40
M  V30 40 1 39 41
M  V30 41 1 41 42
M  V30 42 1 42 43
M  V30 43 1 43 44
M  V30 44 1 43 45
M  V30 45 1 43 46
M  V30 46 1 46 47 CFG=1
M  V30 47 1 46 48
M  V30 48 1 46 11
M  V30 49 1 48 19
M  V30 50 1 38 33
M  V30 51 1 1 49
M  V30 52 1 1 50
M  V30 53 1 1 51
M  V30 54 1 2 52
M  V30 55 1 2 53
M  V30 56 1 3 54
M  V30 57 1 3 55
M  V30 58 1 4 56
M  V30 59 1 4 57
M  V30 60 1 5 58
M  V30 61 1 5 59
M  V30 62 1 6 60
M  V30 63 1 6 61
M  V30 64 1 7 62
M  V30 65 1 7 63
M  V30 66 1 11 64 CFG=1
M  V30 67 1 13 65
M  V30 68 1 17 66
M  V30 69 1 17 67
M  V30 70 1 17 68
M  V30 71 1 18 69
M  V30 72 1 18 70
M  V30 73 1 19 71 CFG=1
M  V30 74 1 20 72
M  V30 75 1 20 73
M  V30 76 1 21 74 CFG=3
M  V30 77 1 22 75
M  V30 78 1 22 76
M  V30 79 1 25 77
M  V30 80 1 25 78
M  V30 81 1 25 79
M  V30 82 1 30 80
M  V30 83 1 30 81
M  V30 84 1 31 82
M  V30 85 1 31 83
M  V30 86 1 34 84
M  V30 87 1 35 85
M  V30 88 1 36 86
M  V30 89 1 37 87
M  V30 90 1 42 88
M  V30 91 1 42 89
M  V30 92 1 44 90
M  V30 93 1 44 91
M  V30 94 1 44 92
M  V30 95 1 45 93
M  V30 96 1 45 94
M  V30 97 1 45 95
M  V30 98 1 47 96
M  V30 END BOND
M  V30 END CTAB
M  END
>  <Dataset>  (118) 
ChEMBL_Kinases

>  <Ligand_Instance>  (118) 
nan

>  <PDB_ID>  (118) 
nan

>  <Standardized_SMILES>  (118) 
CCCCCCCC(=O)O[C@H]1/C(=C/C(=O)OC)C[C@H]2C[C@H](COC(C)=O)OC(=O)CCOc3ccccc3C(=O)OCC(C)(C)[C@]1(O)O2

>  <Name>  (118) 
nan

>  <Pocket>  (118) 
nan

>  <ATP_Site>  (118) 
nan

>  <Peripheral>  (118) 
nan

>  <Num_H_Atoms_ProtBoundConf>  (118) 
nan

>  <Num_Resolved_Atoms>  (118) 
nan

>  <Num_Not_Resolved_Atoms>  (118) 
nan

$$$$
CHEMBL4649445
     RDKit          3D

  0  0  0  0  0  0  0  0  0  0999 V3000
M  V30 BEGIN CTAB
M  V30 COUNTS 43 46 0 0 0
M  V30 BEGIN ATOM
M  V30 1 C 1.050970 -5.542574 -2.947659 0
M  V30 2 C 1.038345 -4.409497 -1.976090 0
M  V30 3 C -0.234906 -4.453781 -1.187540 0
M  V30 4 C 2.279714 -4.534645 -1.027384 0
M  V30 5 N 2.340229 -3.542387 -0.128396 0
M  V30 6 C 2.453660 -2.479128 0.882464 0
M  V30 7 N 3.308078 -2.302594 1.899066 0
M  V30 8 C 3.220625 -1.247565 2.723620 0
M  V30 9 C 2.193734 -0.388720 2.428794 0
M  V30 10 N 1.310193 -0.505987 1.433847 0
M  V30 11 C 0.301650 0.323899 1.123594 0
M  V30 12 C -0.207852 1.566369 1.679189 0
M  V30 13 C 0.664192 2.573360 2.036628 0
M  V30 14 C 0.157798 3.748387 2.558356 0
M  V30 15 C -1.205653 3.959643 2.740482 0
M  V30 16 C -2.017590 4.967195 3.213326 0
M  V30 17 N -1.442363 6.181428 3.676731 0
M  V30 18 N -3.308559 4.533036 3.122853 0
M  V30 19 N -3.289915 3.292649 2.608244 0
M  V30 20 C -2.019806 2.904795 2.359462 0
M  V30 21 C -1.586558 1.720452 1.838253 0
M  V30 22 C -0.260771 -0.283953 0.024110 0
M  V30 23 N 0.411736 -1.402767 -0.258602 0
M  V30 24 C 1.407112 -1.565472 0.615209 0
M  V30 25 H 2.071103 -6.013997 -3.036762 0
M  V30 26 H 0.675065 -5.260690 -3.962885 0
M  V30 27 H 0.390623 -6.374156 -2.584718 0
M  V30 28 H 1.155173 -3.439328 -2.475699 0
M  V30 29 H -0.071574 -4.147940 -0.130990 0
M  V30 30 H -0.682333 -5.470884 -1.154534 0
M  V30 31 H -1.025356 -3.784756 -1.631748 0
M  V30 32 H 3.159632 -4.715564 -1.709551 0
M  V30 33 H 2.070729 -5.561604 -0.577195 0
M  V30 34 H 3.209357 -4.036041 0.282542 0
M  V30 35 H 3.966700 -1.225224 3.497039 0
M  V30 36 H 2.148658 0.448964 3.109626 0
M  V30 37 H 1.742461 2.495294 1.931007 0
M  V30 38 H 0.790958 4.578995 2.858710 0
M  V30 39 H -1.685903 6.934484 3.003960 0
M  V30 40 H -0.873631 6.267302 4.553357 0
M  V30 41 H -4.229573 2.855310 2.492253 0
M  V30 42 H -2.284663 0.924041 1.557477 0
M  V30 43 H -1.116520 0.034268 -0.571655 0
M  V30 END ATOM
M  V30 BEGIN BOND
M  V30 1 1 1 2
M  V30 2 1 2 3
M  V30 3 1 2 4
M  V30 4 1 4 5
M  V30 5 1 5 6
M  V30 6 2 6 7
M  V30 7 1 7 8
M  V30 8 2 8 9
M  V30 9 1 9 10
M  V30 10 1 10 11
M  V30 11 1 11 12
M  V30 12 2 12 13
M  V30 13 1 13 14
M  V30 14 2 14 15
M  V30 15 1 15 16
M  V30 16 1 16 17
M  V30 17 2 16 18
M  V30 18 1 18 19
M  V30 19 1 19 20
M  V30 20 2 20 21
M  V30 21 2 11 22
M  V30 22 1 22 23
M  V30 23 2 23 24
M  V30 24 1 24 6
M  V30 25 1 24 10
M  V30 26 1 21 12
M  V30 27 1 20 15
M  V30 28 1 1 25
M  V30 29 1 1 26
M  V30 30 1 1 27
M  V30 31 1 2 28
M  V30 32 1 3 29
M  V30 33 1 3 30
M  V30 34 1 3 31
M  V30 35 1 4 32
M  V30 36 1 4 33
M  V30 37 1 5 34
M  V30 38 1 8 35
M  V30 39 1 9 36
M  V30 40 1 13 37
M  V30 41 1 14 38
M  V30 42 1 17 39
M  V30 43 1 17 40
M  V30 44 1 19 41
M  V30 45 1 21 42
M  V30 46 1 22 43
M  V30 END BOND
M  V30 END CTAB
M  END
>  <Dataset>  (119) 
ChEMBL_Kinases

>  <Ligand_Instance>  (119) 
nan

>  <PDB_ID>  (119) 
nan

>  <Standardized_SMILES>  (119) 
CC(C)CNc1nccn2c(-c3ccc4c(N)n[nH]c4c3)cnc12

>  <Name>  (119) 
nan

>  <Pocket>  (119) 
nan

>  <ATP_Site>  (119) 
nan

>  <Peripheral>  (119) 
nan

>  <Num_H_Atoms_ProtBoundConf>  (119) 
nan

>  <Num_Resolved_Atoms>  (119) 
nan

>  <Num_Not_Resolved_Atoms>  (119) 
nan

$$$$
CHEMBL447741
     RDKit          3D

  0  0  0  0  0  0  0  0  0  0999 V3000
M  V30 BEGIN CTAB
M  V30 COUNTS 35 36 0 0 0
M  V30 BEGIN ATOM
M  V30 1 C -0.952952 -3.834439 3.336155 0
M  V30 2 O -0.831700 -2.516574 3.700185 0
M  V30 3 C 0.373000 -1.988510 3.385890 0
M  V30 4 C 0.638930 -1.988321 1.898585 0
M  V30 5 O -0.311688 -1.246021 1.186652 0
M  V30 6 C -0.259754 -1.055019 -0.145194 0
M  V30 7 C 0.484293 0.103072 -0.410011 0
M  V30 8 C 1.148056 1.031454 0.539113 0
M  V30 9 C 1.077304 2.343565 0.374818 0
M  V30 10 S 0.256798 3.350034 -0.892732 0
M  V30 11 C 0.188480 4.841144 0.137736 0
M  V30 12 O -0.695658 5.655794 -0.220163 0
M  V30 13 N 1.209956 4.643062 1.101618 0
M  V30 14 C 1.679123 3.339654 1.230414 0
M  V30 15 O 2.603461 3.100407 2.087329 0
M  V30 16 C 0.694193 0.537354 -1.727795 0
M  V30 17 C 0.163490 -0.178531 -2.791959 0
M  V30 18 C -0.570665 -1.319157 -2.544498 0
M  V30 19 C -0.741820 -1.694509 -1.232851 0
M  V30 20 C -1.527714 -2.926183 -0.968223 0
M  V30 21 F -2.561826 -2.556216 -0.124457 0
M  V30 22 F -0.809039 -3.922363 -0.374463 0
M  V30 23 F -2.128583 -3.378147 -2.147556 0
M  V30 24 H -0.154503 -4.421279 3.868919 0
M  V30 25 H -1.942997 -4.205744 3.713162 0
M  V30 26 H -0.958746 -4.011128 2.252603 0
M  V30 27 H 1.166222 -2.657756 3.829551 0
M  V30 28 H 0.569605 -0.995479 3.852298 0
M  V30 29 H 0.696212 -3.056590 1.591396 0
M  V30 30 H 1.689400 -1.624413 1.781324 0
M  V30 31 H 1.714255 0.697229 1.397602 0
M  V30 32 H 1.486162 5.516091 1.603980 0
M  V30 33 H 1.240622 1.387052 -2.091070 0
M  V30 34 H 0.271579 0.078148 -3.842001 0
M  V30 35 H -1.009334 -1.919138 -3.327065 0
M  V30 END ATOM
M  V30 BEGIN BOND
M  V30 1 1 1 2
M  V30 2 1 2 3
M  V30 3 1 3 4
M  V30 4 1 4 5
M  V30 5 1 5 6
M  V30 6 2 6 7
M  V30 7 1 7 8
M  V30 8 2 8 9
M  V30 9 1 9 10
M  V30 10 1 10 11
M  V30 11 2 11 12
M  V30 12 1 11 13
M  V30 13 1 13 14
M  V30 14 2 14 15
M  V30 15 1 7 16
M  V30 16 2 16 17
M  V30 17 1 17 18
M  V30 18 2 18 19
M  V30 19 1 19 20
M  V30 20 1 20 21
M  V30 21 1 20 22
M  V30 22 1 20 23
M  V30 23 1 19 6
M  V30 24 1 14 9
M  V30 25 1 1 24
M  V30 26 1 1 25
M  V30 27 1 1 26
M  V30 28 1 3 27
M  V30 29 1 3 28
M  V30 30 1 4 29
M  V30 31 1 4 30
M  V30 32 1 8 31
M  V30 33 1 13 32
M  V30 34 1 16 33
M  V30 35 1 17 34
M  V30 36 1 18 35
M  V30 END BOND
M  V30 END CTAB
M  END
>  <Dataset>  (120) 
ChEMBL_Kinases

>  <Ligand_Instance>  (120) 
nan

>  <PDB_ID>  (120) 
nan

>  <Standardized_SMILES>  (120) 
COCCOc1c(/C=C2\SC(=O)NC2=O)cccc1C(F)(F)F

>  <Name>  (120) 
nan

>  <Pocket>  (120) 
nan

>  <ATP_Site>  (120) 
nan

>  <Peripheral>  (120) 
nan

>  <Num_H_Atoms_ProtBoundConf>  (120) 
nan

>  <Num_Resolved_Atoms>  (120) 
nan

>  <Num_Not_Resolved_Atoms>  (120) 
nan

$$$$
CHEMBL4649466
     RDKit          3D

  0  0  0  0  0  0  0  0  0  0999 V3000
M  V30 BEGIN CTAB
M  V30 COUNTS 42 46 0 0 0
M  V30 BEGIN ATOM
M  V30 1 C 4.478997 -5.509540 1.184090 0
M  V30 2 C 3.168069 -5.533224 1.668761 0
M  V30 3 C 2.293884 -4.482184 1.586386 0
M  V30 4 C 2.761528 -3.335062 0.980605 0
M  V30 5 O 2.171393 -2.195994 0.761699 0
M  V30 6 C 2.934840 -1.335308 0.157479 0
M  V30 7 C 2.876907 0.029892 -0.340504 0
M  V30 8 C 3.913096 0.676825 -0.962331 0
M  V30 9 N 3.907275 1.927158 -1.435526 0
M  V30 10 C 2.799772 2.675097 -1.318080 0
M  V30 11 C 1.713483 2.092460 -0.702519 0
M  V30 12 C 0.594612 2.890710 -0.600072 0
M  V30 13 C -0.516074 2.356277 0.006021 0
M  V30 14 C -0.592074 1.080014 0.518757 0
M  V30 15 O -1.630325 0.435594 1.140387 0
M  V30 16 C -2.860743 1.058427 1.350087 0 CFG=1
M  V30 17 C -3.997670 0.331867 0.644279 0
M  V30 18 C -4.491716 -0.690722 1.635714 0
M  V30 19 N -3.940773 -0.320153 2.917103 0
M  V30 20 C -3.320577 0.967848 2.792579 0
M  V30 21 C 0.596292 0.353797 0.363713 0
M  V30 22 C 1.739640 0.799779 -0.220601 0
M  V30 23 N 4.086898 -2.007044 -0.005172 0
M  V30 24 C 4.040292 -3.249306 0.484005 0
M  V30 25 C 4.889983 -4.327394 0.585548 0
M  V30 26 H 5.115621 -6.384040 1.285548 0
M  V30 27 H 2.845426 -6.472854 2.143048 0
M  V30 28 H 1.286621 -4.535777 1.972247 0
M  V30 29 H 4.858737 0.140775 -1.101602 0
M  V30 30 H 2.823891 3.675307 -1.707055 0
M  V30 31 H 0.563161 3.896888 -0.971149 0
M  V30 32 H -1.388211 2.978976 0.085691 0
M  V30 33 H -2.891346 2.087604 0.969881 0
M  V30 34 H -3.590859 -0.076422 -0.281347 0
M  V30 35 H -4.820706 1.041838 0.378439 0
M  V30 36 H -5.607279 -0.688795 1.677455 0
M  V30 37 H -4.169074 -1.729680 1.350233 0
M  V30 38 H -4.713775 -0.277074 3.614764 0
M  V30 39 H -4.066626 1.770117 2.969120 0
M  V30 40 H -2.469162 0.986298 3.511799 0
M  V30 41 H 0.584976 -0.647777 0.748553 0
M  V30 42 H 5.886489 -4.247741 0.193677 0
M  V30 END ATOM
M  V30 BEGIN BOND
M  V30 1 2 1 2
M  V30 2 1 2 3
M  V30 3 2 3 4
M  V30 4 1 4 5
M  V30 5 1 5 6
M  V30 6 1 6 7
M  V30 7 2 7 8
M  V30 8 1 8 9
M  V30 9 2 9 10
M  V30 10 1 10 11
M  V30 11 2 11 12
M  V30 12 1 12 13
M  V30 13 2 13 14
M  V30 14 1 14 15
M  V30 15 1 15 16
M  V30 16 1 16 17
M  V30 17 1 17 18
M  V30 18 1 18 19
M  V30 19 1 19 20
M  V30 20 1 14 21
M  V30 21 2 21 22
M  V30 22 2 6 23
M  V30 23 1 23 24
M  V30 24 2 24 25
M  V30 25 1 25 1
M  V30 26 1 24 4
M  V30 27 1 22 7
M  V30 28 1 22 11
M  V30 29 1 20 16
M  V30 30 1 1 26
M  V30 31 1 2 27
M  V30 32 1 3 28
M  V30 33 1 8 29
M  V30 34 1 10 30
M  V30 35 1 12 31
M  V30 36 1 13 32
M  V30 37 1 16 33 CFG=3
M  V30 38 1 17 34
M  V30 39 1 17 35
M  V30 40 1 18 36
M  V30 41 1 18 37
M  V30 42 1 19 38
M  V30 43 1 20 39
M  V30 44 1 20 40
M  V30 45 1 21 41
M  V30 46 1 25 42
M  V30 END BOND
M  V30 END CTAB
M  END
>  <Dataset>  (121) 
ChEMBL_Kinases

>  <Ligand_Instance>  (121) 
nan

>  <PDB_ID>  (121) 
nan

>  <Standardized_SMILES>  (121) 
c1ccc2oc(-c3cncc4ccc(O[C@H]5CCNC5)cc34)nc2c1

>  <Name>  (121) 
nan

>  <Pocket>  (121) 
nan

>  <ATP_Site>  (121) 
nan

>  <Peripheral>  (121) 
nan

>  <Num_H_Atoms_ProtBoundConf>  (121) 
nan

>  <Num_Resolved_Atoms>  (121) 
nan

>  <Num_Not_Resolved_Atoms>  (121) 
nan

$$$$
CHEMBL4649467
     RDKit          3D

  0  0  0  0  0  0  0  0  0  0999 V3000
M  V30 BEGIN CTAB
M  V30 COUNTS 47 51 0 0 0
M  V30 BEGIN ATOM
M  V30 1 C -0.038132 -6.572814 1.944902 0
M  V30 2 C -0.048949 -5.193826 2.155568 0
M  V30 3 C 0.127216 -4.347010 1.082445 0
M  V30 4 C 0.108277 -2.920136 1.351710 0
M  V30 5 C 0.261080 -1.887508 0.450722 0
M  V30 6 C 0.230141 -0.528589 0.790911 0
M  V30 7 N 0.380186 0.225762 -0.404916 0
M  V30 8 C -0.364008 1.092257 -1.334271 0
M  V30 9 C -0.470082 0.458024 -2.698586 0
M  V30 10 N 0.789771 -0.210867 -3.058054 0
M  V30 11 C 1.860054 0.507340 -2.354439 0
M  V30 12 C 1.762533 0.111739 -0.897607 0
M  V30 13 C 0.035986 -0.181357 2.111782 0
M  V30 14 C -0.002422 1.099477 2.530869 0
M  V30 15 C -0.205797 1.237631 3.900660 0
M  V30 16 S -0.327047 -0.423238 4.505360 0
M  V30 17 C -0.111080 -1.202494 2.973078 0
M  V30 18 N -0.078100 -2.509731 2.619646 0
M  V30 19 C -0.283288 2.620327 4.561459 0
M  V30 20 C -1.287525 3.492557 3.796304 0
M  V30 21 C -1.184291 3.223334 2.307337 0
M  V30 22 C 0.120753 2.476560 1.996416 0
M  V30 23 C 0.306728 -4.919948 -0.156350 0
M  V30 24 C 0.312929 -6.278489 -0.334586 0
M  V30 25 N 0.141939 -7.112800 0.705763 0
M  V30 26 H -0.170309 -7.290876 2.741713 0
M  V30 27 H -0.200332 -4.876322 3.183384 0
M  V30 28 H 0.408647 -2.304257 -0.560273 0
M  V30 29 H -1.345526 1.291240 -0.909954 0
M  V30 30 H 0.189050 2.046207 -1.445278 0
M  V30 31 H -1.341992 -0.216289 -2.810036 0
M  V30 32 H -0.587078 1.253747 -3.463190 0
M  V30 33 H 0.923016 -0.187855 -4.092839 0
M  V30 34 H 1.848057 1.586732 -2.535848 0
M  V30 35 H 2.806497 0.037399 -2.748294 0
M  V30 36 H 2.449861 0.711038 -0.262008 0
M  V30 37 H 2.138169 -0.937829 -0.830096 0
M  V30 38 H 0.691967 3.096762 4.607294 0
M  V30 39 H -0.742095 2.489428 5.565505 0
M  V30 40 H -1.086688 4.520618 4.088595 0
M  V30 41 H -2.312114 3.180135 4.101072 0
M  V30 42 H -2.003972 2.580311 1.933471 0
M  V30 43 H -1.182684 4.209697 1.807507 0
M  V30 44 H 0.277279 2.565218 0.932314 0
M  V30 45 H 0.893936 3.059955 2.585793 0
M  V30 46 H 0.445785 -4.280189 -1.006275 0
M  V30 47 H 0.453739 -6.735341 -1.307083 0
M  V30 END ATOM
M  V30 BEGIN BOND
M  V30 1 2 1 2
M  V30 2 1 2 3
M  V30 3 1 3 4
M  V30 4 2 4 5
M  V30 5 1 5 6
M  V30 6 1 6 7
M  V30 7 1 7 8
M  V30 8 1 8 9
M  V30 9 1 9 10
M  V30 10 1 10 11
M  V30 11 1 11 12
M  V30 12 2 6 13
M  V30 13 1 13 14
M  V30 14 2 14 15
M  V30 15 1 15 16
M  V30 16 1 16 17
M  V30 17 2 17 18
M  V30 18 1 15 19
M  V30 19 1 19 20
M  V30 20 1 20 21
M  V30 21 1 21 22
M  V30 22 2 3 23
M  V30 23 1 23 24
M  V30 24 2 24 25
M  V30 25 1 25 1
M  V30 26 1 18 4
M  V30 27 1 12 7
M  V30 28 1 17 13
M  V30 29 1 22 14
M  V30 30 1 1 26
M  V30 31 1 2 27
M  V30 32 1 5 28
M  V30 33 1 8 29
M  V30 34 1 8 30
M  V30 35 1 9 31
M  V30 36 1 9 32
M  V30 37 1 10 33
M  V30 38 1 11 34
M  V30 39 1 11 35
M  V30 40 1 12 36
M  V30 41 1 12 37
M  V30 42 1 19 38
M  V30 43 1 19 39
M  V30 44 1 20 40
M  V30 45 1 20 41
M  V30 46 1 21 42
M  V30 47 1 21 43
M  V30 48 1 22 44
M  V30 49 1 22 45
M  V30 50 1 23 46
M  V30 51 1 24 47
M  V30 END BOND
M  V30 END CTAB
M  END
>  <Dataset>  (122) 
ChEMBL_Kinases

>  <Ligand_Instance>  (122) 
nan

>  <PDB_ID>  (122) 
nan

>  <Standardized_SMILES>  (122) 
c1cc(-c2cc(N3CCNCC3)c3c4c(sc3n2)CCCC4)ccn1

>  <Name>  (122) 
nan

>  <Pocket>  (122) 
nan

>  <ATP_Site>  (122) 
nan

>  <Peripheral>  (122) 
nan

>  <Num_H_Atoms_ProtBoundConf>  (122) 
nan

>  <Num_Resolved_Atoms>  (122) 
nan

>  <Num_Not_Resolved_Atoms>  (122) 
nan

$$$$
CHEMBL4476807
     RDKit          3D

  0  0  0  0  0  0  0  0  0  0999 V3000
M  V30 BEGIN CTAB
M  V30 COUNTS 48 51 0 0 0
M  V30 BEGIN ATOM
M  V30 1 C -4.619745 -6.379520 1.701864 0
M  V30 2 O -4.456476 -5.178703 0.988389 0
M  V30 3 C -3.227793 -4.573352 0.796033 0
M  V30 4 C -2.027584 -5.087520 1.286314 0
M  V30 5 C -0.826029 -4.410950 1.046470 0
M  V30 6 C -0.784118 -3.216932 0.320275 0
M  V30 7 C 0.475940 -2.533462 0.084952 0
M  V30 8 C 1.703469 -3.148844 -0.062702 0
M  V30 9 N 2.794100 -2.401802 -0.274613 0
M  V30 10 C 2.750858 -1.054698 -0.352016 0
M  V30 11 N 3.740260 -0.180898 -0.556039 0
M  V30 12 C 3.149680 1.021566 -0.541262 0
M  V30 13 C 1.790095 0.966156 -0.331828 0
M  V30 14 N 0.840003 2.007090 -0.257704 0
M  V30 15 S 1.164312 3.697688 -0.159236 0
M  V30 16 O -0.083413 4.501429 -0.174828 0
M  V30 17 O 2.024798 4.088038 -1.330658 0
M  V30 18 C 2.060419 3.996304 1.318649 0
M  V30 19 C 1.265622 4.188697 2.421066 0
M  V30 20 C 1.751471 4.446383 3.705160 0
M  V30 21 C 3.124756 4.505332 3.842527 0
M  V30 22 C 3.952681 4.311974 2.730903 0
M  V30 23 C 3.426804 4.062378 1.493361 0
M  V30 24 C 1.550467 -0.397448 -0.211058 0
M  V30 25 C 0.408344 -1.139054 0.008237 0
M  V30 26 C -1.971075 -2.710837 -0.163252 0
M  V30 27 C -3.142157 -3.396110 0.086378 0
M  V30 28 O -4.284652 -2.803113 -0.443919 0
M  V30 29 C -4.297515 -1.621845 -1.170774 0
M  V30 30 H -4.019959 -6.405713 2.633172 0
M  V30 31 H -5.674318 -6.526524 1.980806 0
M  V30 32 H -4.319067 -7.285816 1.113733 0
M  V30 33 H -2.059491 -6.008931 1.846827 0
M  V30 34 H 0.053169 -4.858613 1.449168 0
M  V30 35 H 1.726920 -4.225153 0.000708 0
M  V30 36 H 4.737499 -0.413203 -0.692479 0
M  V30 37 H 3.737522 1.916164 -0.688413 0
M  V30 38 H -0.178534 1.728732 -0.262733 0
M  V30 39 H 0.167203 4.159871 2.405775 0
M  V30 40 H 1.116785 4.596556 4.565862 0
M  V30 41 H 3.552844 4.703322 4.823270 0
M  V30 42 H 5.027939 4.357618 2.835290 0
M  V30 43 H 3.990343 3.905575 0.585678 0
M  V30 44 H -0.515129 -0.586663 0.113604 0
M  V30 45 H -1.932245 -1.793051 -0.720661 0
M  V30 46 H -3.821097 -0.749200 -0.690352 0
M  V30 47 H -5.356180 -1.435475 -1.479046 0
M  V30 48 H -3.743703 -1.804655 -2.126173 0
M  V30 END ATOM
M  V30 BEGIN BOND
M  V30 1 1 1 2
M  V30 2 1 2 3
M  V30 3 2 3 4
M  V30 4 1 4 5
M  V30 5 2 5 6
M  V30 6 1 6 7
M  V30 7 2 7 8
M  V30 8 1 8 9
M  V30 9 2 9 10
M  V30 10 1 10 11
M  V30 11 1 11 12
M  V30 12 2 12 13
M  V30 13 1 13 14
M  V30 14 1 14 15
M  V30 15 2 15 16
M  V30 16 2 15 17
M  V30 17 1 15 18
M  V30 18 2 18 19
M  V30 19 1 19 20
M  V30 20 2 20 21
M  V30 21 1 21 22
M  V30 22 2 22 23
M  V30 23 1 13 24
M  V30 24 2 24 25
M  V30 25 1 6 26
M  V30 26 2 26 27
M  V30 27 1 27 28
M  V30 28 1 28 29
M  V30 29 1 27 3
M  V30 30 1 25 7
M  V30 31 1 24 10
M  V30 32 1 23 18
M  V30 33 1 1 30
M  V30 34 1 1 31
M  V30 35 1 1 32
M  V30 36 1 4 33
M  V30 37 1 5 34
M  V30 38 1 8 35
M  V30 39 1 11 36
M  V30 40 1 12 37
M  V30 41 1 14 38
M  V30 42 1 19 39
M  V30 43 1 20 40
M  V30 44 1 21 41
M  V30 45 1 22 42
M  V30 46 1 23 43
M  V30 47 1 25 44
M  V30 48 1 26 45
M  V30 49 1 29 46
M  V30 50 1 29 47
M  V30 51 1 29 48
M  V30 END BOND
M  V30 END CTAB
M  END
>  <Dataset>  (123) 
ChEMBL_Kinases

>  <Ligand_Instance>  (123) 
nan

>  <PDB_ID>  (123) 
nan

>  <Standardized_SMILES>  (123) 
COc1ccc(-c2cnc3[nH]cc(NS(=O)(=O)c4ccccc4)c3c2)cc1OC

>  <Name>  (123) 
nan

>  <Pocket>  (123) 
nan

>  <ATP_Site>  (123) 
nan

>  <Peripheral>  (123) 
nan

>  <Num_H_Atoms_ProtBoundConf>  (123) 
nan

>  <Num_Resolved_Atoms>  (123) 
nan

>  <Num_Not_Resolved_Atoms>  (123) 
nan

$$$$
CHEMBL4649473
     RDKit          3D

  0  0  0  0  0  0  0  0  0  0999 V3000
M  V30 BEGIN CTAB
M  V30 COUNTS 57 61 0 0 0
M  V30 BEGIN ATOM
M  V30 1 C 3.495396 -7.082061 3.030791 0
M  V30 2 C 3.047618 -5.928871 2.208372 0
M  V30 3 C 1.577821 -5.586772 2.224172 0
M  V30 4 C 3.933751 -4.676738 2.266407 0
M  V30 5 N 3.434883 -4.437033 0.901258 0
M  V30 6 C 3.000197 -3.448074 -0.026196 0
M  V30 7 O 2.590817 -3.504277 -1.231233 0
M  V30 8 N 3.049904 -2.168112 0.547561 0
M  V30 9 C 2.734207 -0.863112 0.071014 0
M  V30 10 C 1.448128 -0.390288 0.243582 0
M  V30 11 C 0.989212 0.847376 -0.161397 0
M  V30 12 C -0.371934 1.297367 0.043286 0
M  V30 13 C -1.184161 1.930312 -0.872544 0
M  V30 14 N -2.388334 2.202272 -0.332283 0
M  V30 15 C -3.566256 2.850978 -0.893823 0
M  V30 16 C -4.671928 1.840677 -0.927035 0
M  V30 17 C -5.270609 1.607118 -2.290656 0
M  V30 18 O -4.196909 1.523044 -3.184592 0
M  V30 19 C -3.842824 2.862385 -3.400657 0
M  V30 20 C -3.320404 3.548300 -2.181487 0
M  V30 21 C -2.403117 1.757041 0.951934 0
M  V30 22 C -3.331436 1.753942 1.974421 0
M  V30 23 N -3.052299 1.219143 3.192829 0
M  V30 24 C -1.838934 0.659117 3.462967 0
M  V30 25 C -0.928223 0.674951 2.423434 0
M  V30 26 C -1.156488 1.204135 1.165475 0
M  V30 27 C 1.939789 1.647460 -0.790694 0
M  V30 28 C 3.246706 1.188831 -0.975597 0
M  V30 29 N 3.606718 -0.035035 -0.547496 0
M  V30 30 C 3.555382 -5.897340 0.759829 0
M  V30 31 H 4.292575 -7.691260 2.606967 0
M  V30 32 H 2.594634 -7.683129 3.328494 0
M  V30 33 H 3.872812 -6.654870 4.004217 0
M  V30 34 H 1.492169 -4.680990 2.885711 0
M  V30 35 H 1.191418 -5.249929 1.232479 0
M  V30 36 H 0.955969 -6.396271 2.653989 0
M  V30 37 H 3.590199 -3.908370 2.997737 0
M  V30 38 H 4.975350 -4.995839 2.323665 0
M  V30 39 H 3.343782 -1.838249 1.509724 0
M  V30 40 H 0.733239 -1.030684 0.733729 0
M  V30 41 H -0.950390 2.200694 -1.897923 0
M  V30 42 H -3.870256 3.622244 -0.137829 0
M  V30 43 H -4.335594 0.839410 -0.582409 0
M  V30 44 H -5.537043 2.107855 -0.261663 0
M  V30 45 H -5.909483 2.466512 -2.616457 0
M  V30 46 H -5.854203 0.670327 -2.240358 0
M  V30 47 H -3.166034 2.974597 -4.286401 0
M  V30 48 H -4.812004 3.341133 -3.728974 0
M  V30 49 H -3.760610 4.589337 -2.172991 0
M  V30 50 H -2.221332 3.728419 -2.361738 0
M  V30 51 H -4.314175 2.189371 1.807307 0
M  V30 52 H -1.591890 0.227208 4.423348 0
M  V30 53 H 0.029389 0.227388 2.652510 0
M  V30 54 H 1.689231 2.632071 -1.146620 0
M  V30 55 H 4.001539 1.818085 -1.472657 0
M  V30 56 H 2.887370 -6.359631 0.027407 0
M  V30 57 H 4.608683 -6.255919 0.758187 0
M  V30 END ATOM
M  V30 BEGIN BOND
M  V30 1 1 1 2
M  V30 2 1 2 3
M  V30 3 1 2 4
M  V30 4 1 4 5
M  V30 5 1 5 6
M  V30 6 2 6 7
M  V30 7 1 6 8
M  V30 8 1 8 9
M  V30 9 2 9 10
M  V30 10 1 10 11
M  V30 11 1 11 12
M  V30 12 2 12 13
M  V30 13 1 13 14
M  V30 14 1 14 15
M  V30 15 1 15 16
M  V30 16 1 16 17
M  V30 17 1 17 18
M  V30 18 1 18 19
M  V30 19 1 19 20
M  V30 20 1 14 21
M  V30 21 2 21 22
M  V30 22 1 22 23
M  V30 23 2 23 24
M  V30 24 1 24 25
M  V30 25 2 25 26
M  V30 26 2 11 27
M  V30 27 1 27 28
M  V30 28 2 28 29
M  V30 29 1 5 30
M  V30 30 1 30 2
M  V30 31 1 29 9
M  V30 32 1 26 12
M  V30 33 1 20 15
M  V30 34 1 26 21
M  V30 35 1 1 31
M  V30 36 1 1 32
M  V30 37 1 1 33
M  V30 38 1 3 34
M  V30 39 1 3 35
M  V30 40 1 3 36
M  V30 41 1 4 37
M  V30 42 1 4 38
M  V30 43 1 8 39
M  V30 44 1 10 40
M  V30 45 1 13 41
M  V30 46 1 15 42
M  V30 47 1 16 43
M  V30 48 1 16 44
M  V30 49 1 17 45
M  V30 50 1 17 46
M  V30 51 1 19 47
M  V30 52 1 19 48
M  V30 53 1 20 49
M  V30 54 1 20 50
M  V30 55 1 22 51
M  V30 56 1 24 52
M  V30 57 1 25 53
M  V30 58 1 27 54
M  V30 59 1 28 55
M  V30 60 1 30 56
M  V30 61 1 30 57
M  V30 END BOND
M  V30 END CTAB
M  END
>  <Dataset>  (124) 
ChEMBL_Kinases

>  <Ligand_Instance>  (124) 
nan

>  <PDB_ID>  (124) 
nan

>  <Standardized_SMILES>  (124) 
CC1(C)CN(C(=O)Nc2cc(-c3cn(C4CCOCC4)c4cnccc34)ccn2)C1

>  <Name>  (124) 
nan

>  <Pocket>  (124) 
nan

>  <ATP_Site>  (124) 
nan

>  <Peripheral>  (124) 
nan

>  <Num_H_Atoms_ProtBoundConf>  (124) 
nan

>  <Num_Resolved_Atoms>  (124) 
nan

>  <Num_Not_Resolved_Atoms>  (124) 
nan

$$$$
CHEMBL4476804
     RDKit          3D

  0  0  0  0  0  0  0  0  0  0999 V3000
M  V30 BEGIN CTAB
M  V30 COUNTS 30 31 0 0 0
M  V30 BEGIN ATOM
M  V30 1 N -3.327950 -2.921203 -0.356242 0
M  V30 2 C -2.431764 -2.276933 0.055215 0
M  V30 3 C -1.352969 -1.474875 0.570197 0
M  V30 4 C -0.207153 -2.144923 1.030692 0
M  V30 5 N 0.177862 -3.521372 1.106978 0
M  V30 6 C 0.948933 -4.226965 0.127130 0
M  V30 7 C 0.373941 -4.316937 -1.209237 0
M  V30 8 N -0.684040 -4.018076 -2.100200 0
M  V30 9 O 1.205669 -4.972389 -1.927018 0
M  V30 10 S 0.869193 -0.792743 1.583337 0
M  V30 11 C -0.264592 0.499390 1.165379 0
M  V30 12 C 0.031520 1.908680 1.378106 0
M  V30 13 O -0.814529 2.771993 1.046661 0
M  V30 14 C 1.325245 2.297224 1.982371 0
M  V30 15 C 1.747972 3.522335 2.243166 0
M  V30 16 C 2.965983 3.702094 2.805055 0
M  V30 17 C 3.722878 2.454818 3.077488 0
M  V30 18 Br 5.576613 2.524346 3.923568 0
M  V30 19 S 2.524531 1.126151 2.459573 0
M  V30 20 C -1.332654 -0.113248 0.660935 0
M  V30 21 N -2.429697 0.688063 0.231047 0
M  V30 22 H -0.209610 -3.915465 2.011598 0
M  V30 23 H 1.931894 -3.672199 0.055214 0
M  V30 24 H 1.241007 -5.216115 0.545283 0
M  V30 25 H -1.668476 -4.332130 -2.148301 0
M  V30 26 H -0.512820 -3.344774 -2.908506 0
M  V30 27 H 1.152968 4.397337 2.022149 0
M  V30 28 H 3.456546 4.623394 3.079441 0
M  V30 29 H -3.396270 0.302652 0.049619 0
M  V30 30 H -3.417355 0.424733 0.022205 0
M  V30 END ATOM
M  V30 BEGIN BOND
M  V30 1 3 1 2
M  V30 2 1 2 3
M  V30 3 2 3 4
M  V30 4 1 4 5
M  V30 5 1 5 6
M  V30 6 1 6 7
M  V30 7 1 7 8
M  V30 8 2 7 9
M  V30 9 1 4 10
M  V30 10 1 10 11
M  V30 11 1 11 12
M  V30 12 2 12 13
M  V30 13 1 12 14
M  V30 14 2 14 15
M  V30 15 1 15 16
M  V30 16 2 16 17
M  V30 17 1 17 18
M  V30 18 1 17 19
M  V30 19 2 11 20
M  V30 20 1 20 21
M  V30 21 1 20 3
M  V30 22 1 19 14
M  V30 23 1 5 22
M  V30 24 1 6 23
M  V30 25 1 6 24
M  V30 26 1 8 25
M  V30 27 1 8 26
M  V30 28 1 15 27
M  V30 29 1 16 28
M  V30 30 1 21 29
M  V30 31 1 21 30
M  V30 END BOND
M  V30 END CTAB
M  END
>  <Dataset>  (125) 
ChEMBL_Kinases

>  <Ligand_Instance>  (125) 
nan

>  <PDB_ID>  (125) 
nan

>  <Standardized_SMILES>  (125) 
N#Cc1c(NCC(N)=O)sc(C(=O)c2ccc(Br)s2)c1N

>  <Name>  (125) 
nan

>  <Pocket>  (125) 
nan

>  <ATP_Site>  (125) 
nan

>  <Peripheral>  (125) 
nan

>  <Num_H_Atoms_ProtBoundConf>  (125) 
nan

>  <Num_Resolved_Atoms>  (125) 
nan

>  <Num_Not_Resolved_Atoms>  (125) 
nan

$$$$
CHEMBL4476631
     RDKit          3D

  0  0  0  0  0  0  0  0  0  0999 V3000
M  V30 BEGIN CTAB
M  V30 COUNTS 30 32 0 0 0
M  V30 BEGIN ATOM
M  V30 1 O -2.039348 -5.102685 3.419231 0
M  V30 2 C -1.109154 -4.290761 3.530163 0
M  V30 3 O -0.794400 -4.047745 4.846684 0
M  V30 4 C -0.424039 -3.663922 2.414032 0
M  V30 5 C 0.610672 -2.750190 2.548773 0
M  V30 6 C 1.239909 -2.153640 1.483882 0
M  V30 7 C 0.794848 -2.504616 0.235040 0
M  V30 8 N 1.253365 -1.981202 -1.021598 0
M  V30 9 C 1.844155 -0.599881 -0.876731 0
M  V30 10 N 1.136495 0.276150 -0.693084 0
M  V30 11 C 1.361841 1.571927 -0.546755 0
M  V30 12 C 0.384637 2.627134 -0.294377 0
M  V30 13 C -0.937291 2.395635 -0.156436 0
M  V30 14 C -1.894716 3.287911 0.079531 0
M  V30 15 S -1.025625 4.837158 0.166035 0
M  V30 16 C 0.648212 4.027386 -0.148746 0
M  V30 17 C 2.710750 1.888720 -0.638353 0
M  V30 18 S 3.522436 0.230092 -0.933019 0
M  V30 19 C -0.236825 -3.416113 0.067811 0
M  V30 20 C -0.845235 -3.993316 1.137040 0
M  V30 21 H -1.542971 -3.919236 5.536374 0
M  V30 22 H 0.925812 -2.503121 3.536917 0
M  V30 23 H 2.043761 -1.447607 1.531696 0
M  V30 24 H 1.187307 -2.500176 -1.919910 0
M  V30 25 H -1.399501 1.396314 -0.224772 0
M  V30 26 H -2.964764 3.348541 0.223269 0
M  V30 27 H 1.770369 4.498649 -0.231827 0
M  V30 28 H 3.207653 2.858562 -0.563211 0
M  V30 29 H -0.572353 -3.681397 -0.922506 0
M  V30 30 H -1.653127 -4.705709 0.997752 0
M  V30 END ATOM
M  V30 BEGIN BOND
M  V30 1 2 1 2
M  V30 2 1 2 3
M  V30 3 1 2 4
M  V30 4 2 4 5
M  V30 5 1 5 6
M  V30 6 2 6 7
M  V30 7 1 7 8
M  V30 8 1 8 9
M  V30 9 2 9 10
M  V30 10 1 10 11
M  V30 11 1 11 12
M  V30 12 1 12 13
M  V30 13 2 13 14
M  V30 14 1 14 15
M  V30 15 1 15 16
M  V30 16 2 11 17
M  V30 17 1 17 18
M  V30 18 1 7 19
M  V30 19 2 19 20
M  V30 20 1 20 4
M  V30 21 1 18 9
M  V30 22 2 16 12
M  V30 23 1 3 21
M  V30 24 1 5 22
M  V30 25 1 6 23
M  V30 26 1 8 24
M  V30 27 1 13 25
M  V30 28 1 14 26
M  V30 29 1 16 27
M  V30 30 1 17 28
M  V30 31 1 19 29
M  V30 32 1 20 30
M  V30 END BOND
M  V30 END CTAB
M  END
>  <Dataset>  (126) 
ChEMBL_Kinases

>  <Ligand_Instance>  (126) 
nan

>  <PDB_ID>  (126) 
nan

>  <Standardized_SMILES>  (126) 
O=C(O)c1ccc(Nc2nc(-c3ccsc3)cs2)cc1

>  <Name>  (126) 
nan

>  <Pocket>  (126) 
nan

>  <ATP_Site>  (126) 
nan

>  <Peripheral>  (126) 
nan

>  <Num_H_Atoms_ProtBoundConf>  (126) 
nan

>  <Num_Resolved_Atoms>  (126) 
nan

>  <Num_Not_Resolved_Atoms>  (126) 
nan

$$$$
CHEMBL4476521
     RDKit          3D

  0  0  0  0  0  0  0  0  0  0999 V3000
M  V30 BEGIN CTAB
M  V30 COUNTS 41 44 0 0 0
M  V30 BEGIN ATOM
M  V30 1 F 3.336737 -3.820154 2.561905 0
M  V30 2 C 2.194521 -4.583889 2.574463 0
M  V30 3 F 2.137897 -5.396201 3.676467 0
M  V30 4 F 2.170475 -5.301355 1.391564 0
M  V30 5 C 1.008068 -3.640577 2.550666 0 CFG=2
M  V30 6 C 1.090086 -2.825479 1.308865 0
M  V30 7 N 0.745254 -1.439585 1.556113 0
M  V30 8 C -0.074534 -0.612000 0.724114 0
M  V30 9 N 0.557897 0.483116 0.208903 0
M  V30 10 C -0.071200 1.362601 -0.598886 0
M  V30 11 C 0.623130 2.527046 -1.139178 0
M  V30 12 C 1.949506 2.750709 -0.829665 0
M  V30 13 C 2.583608 3.873864 -1.363150 0
M  V30 14 N 1.923724 4.731540 -2.166885 0
M  V30 15 C 0.623512 4.547445 -2.493866 0
M  V30 16 C 0.001110 3.439668 -1.966644 0
M  V30 17 N -1.381986 1.200450 -0.944348 0
M  V30 18 C -2.015046 0.138769 -0.451634 0
M  V30 19 C -3.354507 -0.172948 -0.705371 0
M  V30 20 N -3.959383 -1.248965 -0.192033 0
M  V30 21 C -3.324256 -2.123667 0.614817 0
M  V30 22 C -1.998341 -1.883931 0.912158 0
M  V30 23 C -1.397081 -0.774331 0.374878 0
M  V30 24 C 1.192038 -0.689949 2.693600 0
M  V30 25 C 1.707202 -1.668724 3.730329 0
M  V30 26 N 0.862498 -2.843934 3.720319 0
M  V30 27 H 0.067630 -4.262439 2.477801 0
M  V30 28 H 2.163614 -2.782287 0.953717 0
M  V30 29 H 0.533465 -3.246268 0.458461 0
M  V30 30 H 2.500888 2.089790 -0.195453 0
M  V30 31 H 3.609650 4.123130 -1.174848 0
M  V30 32 H 0.128647 5.258444 -3.142083 0
M  V30 33 H -1.046053 3.252149 -2.203672 0
M  V30 34 H -3.918077 0.495672 -1.349088 0
M  V30 35 H -3.893412 -2.964222 0.982469 0
M  V30 36 H -1.485316 -2.579963 1.558551 0
M  V30 37 H 2.109055 -0.124873 2.358188 0
M  V30 38 H 0.490707 0.035194 3.102415 0
M  V30 39 H 2.779653 -1.879700 3.652238 0
M  V30 40 H 1.540435 -1.181073 4.728403 0
M  V30 41 H 0.841021 -3.359123 4.600482 0
M  V30 END ATOM
M  V30 BEGIN BOND
M  V30 1 1 1 2
M  V30 2 1 2 3
M  V30 3 1 2 4
M  V30 4 1 2 5
M  V30 5 1 5 6
M  V30 6 1 6 7
M  V30 7 1 7 8
M  V30 8 2 8 9
M  V30 9 1 9 10
M  V30 10 1 10 11
M  V30 11 2 11 12
M  V30 12 1 12 13
M  V30 13 2 13 14
M  V30 14 1 14 15
M  V30 15 2 15 16
M  V30 16 2 10 17
M  V30 17 1 17 18
M  V30 18 2 18 19
M  V30 19 1 19 20
M  V30 20 2 20 21
M  V30 21 1 21 22
M  V30 22 2 22 23
M  V30 23 1 7 24
M  V30 24 1 24 25
M  V30 25 1 25 26
M  V30 26 1 26 5
M  V30 27 1 23 8
M  V30 28 1 16 11
M  V30 29 1 23 18
M  V30 30 1 5 27 CFG=3
M  V30 31 1 6 28
M  V30 32 1 6 29
M  V30 33 1 12 30
M  V30 34 1 13 31
M  V30 35 1 15 32
M  V30 36 1 16 33
M  V30 37 1 19 34
M  V30 38 1 21 35
M  V30 39 1 22 36
M  V30 40 1 24 37
M  V30 41 1 24 38
M  V30 42 1 25 39
M  V30 43 1 25 40
M  V30 44 1 26 41
M  V30 END BOND
M  V30 END CTAB
M  END
>  <Dataset>  (127) 
ChEMBL_Kinases

>  <Ligand_Instance>  (127) 
nan

>  <PDB_ID>  (127) 
nan

>  <Standardized_SMILES>  (127) 
FC(F)(F)[C@@H]1CN(c2nc(-c3ccncc3)nc3cnccc23)CCN1

>  <Name>  (127) 
nan

>  <Pocket>  (127) 
nan

>  <ATP_Site>  (127) 
nan

>  <Peripheral>  (127) 
nan

>  <Num_H_Atoms_ProtBoundConf>  (127) 
nan

>  <Num_Resolved_Atoms>  (127) 
nan

>  <Num_Not_Resolved_Atoms>  (127) 
nan

$$$$
CHEMBL4649721
     RDKit          3D

  0  0  0  0  0  0  0  0  0  0999 V3000
M  V30 BEGIN CTAB
M  V30 COUNTS 73 76 0 0 0
M  V30 BEGIN ATOM
M  V30 1 C 2.375951 -1.149331 4.845753 0
M  V30 2 C 2.383743 -1.679962 3.432208 0
M  V30 3 C 1.530456 -2.901037 3.279002 0
M  V30 4 C 2.092789 -0.613716 2.438849 0
M  V30 5 C 3.021931 0.194632 1.815651 0
M  V30 6 N 2.290193 1.007025 1.001064 0
M  V30 7 N 1.010197 0.710411 1.123584 0
M  V30 8 C -0.025492 1.284079 0.489737 0
M  V30 9 N 0.066531 2.346420 -0.456884 0
M  V30 10 C -0.996204 2.994481 -1.160673 0
M  V30 11 C -0.490309 4.071191 -2.073234 0
M  V30 12 C -0.308980 5.415611 -1.731548 0
M  V30 13 C 0.170368 6.274242 -2.708911 0
M  V30 14 C 0.470757 5.868439 -3.979933 0
M  V30 15 C 0.298726 4.556449 -4.329574 0
M  V30 16 C -0.177176 3.693140 -3.366812 0
M  V30 17 C -1.323733 0.883680 0.703745 0
M  V30 18 C -1.518193 -0.142681 1.606407 0
M  V30 19 N -2.687853 -0.822972 2.104300 0
M  V30 20 C -2.957914 -1.892921 2.981284 0 CFG=2
M  V30 21 C -2.146878 -1.894975 4.257929 0
M  V30 22 O -2.531350 -3.014042 5.014928 0
M  V30 23 C -3.218788 -3.194227 2.391500 0
M  V30 24 C -2.289940 -3.946470 1.555800 0
M  V30 25 C -1.818088 -3.428702 0.262328 0
M  V30 26 C -0.888202 -4.517900 -0.335283 0
M  V30 27 C -0.358037 -4.074140 -1.661781 0
M  V30 28 C 0.447860 -2.798082 -1.609290 0
M  V30 29 C 0.902080 -2.494506 -3.012742 0
M  V30 30 C 0.060564 -1.704692 -3.799372 0
M  V30 31 N 0.404821 -1.393200 -5.066883 0
M  V30 32 C 1.562986 -1.836491 -5.596400 0
M  V30 33 N 2.369453 -2.589620 -4.852030 0
M  V30 34 C 2.074727 -2.926386 -3.591350 0
M  V30 35 N -0.412445 -0.675159 2.211052 0
M  V30 36 C 0.829446 -0.281107 1.996398 0
M  V30 37 H 1.516088 -0.496528 5.059470 0
M  V30 38 H 2.301481 -2.044438 5.526058 0
M  V30 39 H 3.348020 -0.673265 5.117495 0
M  V30 40 H 3.439512 -2.017911 3.247453 0
M  V30 41 H 2.103414 -3.820110 3.006091 0
M  V30 42 H 1.038059 -3.156938 4.252812 0
M  V30 43 H 0.725374 -2.803833 2.517726 0
M  V30 44 H 4.102072 0.209783 1.924094 0
M  V30 45 H 1.049970 2.673969 -0.640960 0
M  V30 46 H -1.635055 3.516341 -0.407025 0
M  V30 47 H -1.601733 2.304991 -1.770435 0
M  V30 48 H -0.563611 5.669557 -0.717061 0
M  V30 49 H 0.298310 7.305158 -2.410286 0
M  V30 50 H 0.842218 6.596157 -4.693856 0
M  V30 51 H 0.532779 4.217241 -5.335916 0
M  V30 52 H -0.295082 2.660960 -3.699312 0
M  V30 53 H -2.271704 1.206698 0.305555 0
M  V30 54 H -3.476778 -0.295634 1.612102 0
M  V30 55 H -4.010768 -1.588382 3.422279 0
M  V30 56 H -2.390056 -1.014904 4.889982 0
M  V30 57 H -1.071831 -1.939266 4.134087 0
M  V30 58 H -1.902428 -3.775392 4.866023 0
M  V30 59 H -4.219423 -3.097306 1.821745 0
M  V30 60 H -3.468733 -3.898981 3.272840 0
M  V30 61 H -1.382437 -4.330853 2.137900 0
M  V30 62 H -2.809369 -4.937324 1.316402 0
M  V30 63 H -2.628826 -3.351829 -0.481476 0
M  V30 64 H -1.178356 -2.563957 0.347303 0
M  V30 65 H -0.054677 -4.744628 0.340765 0
M  V30 66 H -1.454224 -5.452359 -0.514866 0
M  V30 67 H -1.172610 -4.039857 -2.384399 0
M  V30 68 H 0.343620 -4.864241 -2.001436 0
M  V30 69 H -0.086704 -1.921925 -1.250754 0
M  V30 70 H 1.370559 -2.914433 -1.006302 0
M  V30 71 H -0.882821 -1.313672 -3.443063 0
M  V30 72 H 1.868688 -1.604253 -6.610789 0
M  V30 73 H 2.703797 -3.531747 -2.965939 0
M  V30 END ATOM
M  V30 BEGIN BOND
M  V30 1 1 1 2
M  V30 2 1 2 3
M  V30 3 1 2 4
M  V30 4 1 4 5
M  V30 5 2 5 6
M  V30 6 1 6 7
M  V30 7 1 7 8
M  V30 8 1 8 9
M  V30 9 1 9 10
M  V30 10 1 10 11
M  V30 11 2 11 12
M  V30 12 1 12 13
M  V30 13 2 13 14
M  V30 14 1 14 15
M  V30 15 2 15 16
M  V30 16 2 8 17
M  V30 17 1 17 18
M  V30 18 1 18 19
M  V30 19 1 19 20
M  V30 20 1 20 21
M  V30 21 1 21 22
M  V30 22 1 20 23
M  V30 23 1 23 24
M  V30 24 1 24 25
M  V30 25 1 25 26
M  V30 26 1 26 27
M  V30 27 1 27 28
M  V30 28 1 28 29
M  V30 29 2 29 30
M  V30 30 1 30 31
M  V30 31 2 31 32
M  V30 32 1 32 33
M  V30 33 2 33 34
M  V30 34 2 18 35
M  V30 35 1 35 36
M  V30 36 2 36 4
M  V30 37 1 36 7
M  V30 38 1 16 11
M  V30 39 1 34 29
M  V30 40 1 1 37
M  V30 41 1 1 38
M  V30 42 1 1 39
M  V30 43 1 2 40
M  V30 44 1 3 41
M  V30 45 1 3 42
M  V30 46 1 3 43
M  V30 47 1 5 44
M  V30 48 1 9 45
M  V30 49 1 10 46
M  V30 50 1 10 47
M  V30 51 1 12 48
M  V30 52 1 13 49
M  V30 53 1 14 50
M  V30 54 1 15 51
M  V30 55 1 16 52
M  V30 56 1 17 53
M  V30 57 1 19 54
M  V30 58 1 20 55 CFG=1
M  V30 59 1 21 56
M  V30 60 1 21 57
M  V30 61 1 22 58
M  V30 62 1 23 59
M  V30 63 1 23 60
M  V30 64 1 24 61
M  V30 65 1 24 62
M  V30 66 1 25 63
M  V30 67 1 25 64
M  V30 68 1 26 65
M  V30 69 1 26 66
M  V30 70 1 27 67
M  V30 71 1 27 68
M  V30 72 1 28 69
M  V30 73 1 28 70
M  V30 74 1 30 71
M  V30 75 1 32 72
M  V30 76 1 34 73
M  V30 END BOND
M  V30 END CTAB
M  END
>  <Dataset>  (128) 
ChEMBL_Kinases

>  <Ligand_Instance>  (128) 
nan

>  <PDB_ID>  (128) 
nan

>  <Standardized_SMILES>  (128) 
CC(C)c1cnn2c(NCc3ccccc3)cc(N[C@H](CO)CCCCCCc3cncnc3)nc12

>  <Name>  (128) 
nan

>  <Pocket>  (128) 
nan

>  <ATP_Site>  (128) 
nan

>  <Peripheral>  (128) 
nan

>  <Num_H_Atoms_ProtBoundConf>  (128) 
nan

>  <Num_Resolved_Atoms>  (128) 
nan

>  <Num_Not_Resolved_Atoms>  (128) 
nan

$$$$
CHEMBL4482949
     RDKit          3D

  0  0  0  0  0  0  0  0  0  0999 V3000
M  V30 BEGIN CTAB
M  V30 COUNTS 47 51 0 0 0
M  V30 BEGIN ATOM
M  V30 1 O 1.880216 -1.032234 4.538564 0
M  V30 2 S 1.581938 -0.351338 3.214214 0
M  V30 3 O 0.767662 -1.365824 2.438719 0
M  V30 4 C 3.087274 -0.024195 2.467817 0
M  V30 5 C 3.793093 1.091861 2.085926 0
M  V30 6 C 5.028544 1.068374 1.491621 0
M  V30 7 C 5.638796 -0.159413 1.244948 0
M  V30 8 F 6.858829 -0.140089 0.652911 0
M  V30 9 C 4.967569 -1.327999 1.613237 0
M  V30 10 C 3.726321 -1.256526 2.208039 0
M  V30 11 F 3.284475 -2.535080 2.469749 0
M  V30 12 N 0.582879 1.002472 3.535894 0
M  V30 13 C 0.172903 1.739756 2.366251 0
M  V30 14 C -0.456105 0.860468 1.293370 0
M  V30 15 C -1.622247 0.187597 1.920809 0
M  V30 16 C -1.567157 0.111081 3.310892 0
M  V30 17 S -3.059288 -0.708804 3.766994 0
M  V30 18 C -3.717576 -0.932199 2.124729 0
M  V30 19 N -4.855378 -1.494529 1.720967 0
M  V30 20 C -5.130479 -1.531279 0.396105 0
M  V30 21 N -4.211662 -0.989569 -0.378953 0
M  V30 22 C -3.058044 -0.418688 0.000000 0
M  V30 23 N -2.267606 0.086514 -1.069225 0
M  V30 24 C -1.569049 -0.905139 -1.844080 0
M  V30 25 C -1.798888 -2.257529 -1.714620 0
M  V30 26 C -1.162939 -3.255368 -2.432005 0
M  V30 27 C -0.221607 -2.848143 -3.349603 0
M  V30 28 C 0.051736 -1.509768 -3.521356 0
M  V30 29 Cl 1.273213 -1.107403 -4.712862 0
M  V30 30 C -0.601133 -0.566922 -2.792036 0
M  V30 31 C -2.747659 -0.365046 1.353965 0
M  V30 32 C -0.586952 0.558422 4.289540 0
M  V30 33 H 3.213217 1.968640 2.342298 0
M  V30 34 H 5.447050 2.037380 1.250055 0
M  V30 35 H 5.543314 -2.220252 1.371616 0
M  V30 36 H -0.686159 2.385575 2.714978 0
M  V30 37 H 0.937955 2.408418 2.027326 0
M  V30 38 H 0.268313 0.206329 0.821944 0
M  V30 39 H -0.782878 1.605203 0.506692 0
M  V30 40 H -6.018086 -1.962011 0.016691 0
M  V30 41 H -2.117401 1.072011 -1.389810 0
M  V30 42 H -2.541712 -2.609049 -0.992767 0
M  V30 43 H -1.416395 -4.315099 -2.260381 0
M  V30 44 H 0.272142 -3.657210 -3.907577 0
M  V30 45 H -0.367518 0.456107 -2.945004 0
M  V30 46 H -0.263755 -0.296172 4.911404 0
M  V30 47 H -0.959677 1.352399 4.963611 0
M  V30 END ATOM
M  V30 BEGIN BOND
M  V30 1 2 1 2
M  V30 2 2 2 3
M  V30 3 1 2 4
M  V30 4 2 4 5
M  V30 5 1 5 6
M  V30 6 2 6 7
M  V30 7 1 7 8
M  V30 8 1 7 9
M  V30 9 2 9 10
M  V30 10 1 10 11
M  V30 11 1 2 12
M  V30 12 1 12 13
M  V30 13 1 13 14
M  V30 14 1 14 15
M  V30 15 2 15 16
M  V30 16 1 16 17
M  V30 17 1 17 18
M  V30 18 2 18 19
M  V30 19 1 19 20
M  V30 20 2 20 21
M  V30 21 1 21 22
M  V30 22 1 22 23
M  V30 23 1 23 24
M  V30 24 2 24 25
M  V30 25 1 25 26
M  V30 26 2 26 27
M  V30 27 1 27 28
M  V30 28 1 28 29
M  V30 29 2 28 30
M  V30 30 2 22 31
M  V30 31 1 16 32
M  V30 32 1 10 4
M  V30 33 1 32 12
M  V30 34 1 31 15
M  V30 35 1 31 18
M  V30 36 1 30 24
M  V30 37 1 5 33
M  V30 38 1 6 34
M  V30 39 1 9 35
M  V30 40 1 13 36
M  V30 41 1 13 37
M  V30 42 1 14 38
M  V30 43 1 14 39
M  V30 44 1 20 40
M  V30 45 1 23 41
M  V30 46 1 25 42
M  V30 47 1 26 43
M  V30 48 1 27 44
M  V30 49 1 30 45
M  V30 50 1 32 46
M  V30 51 1 32 47
M  V30 END BOND
M  V30 END CTAB
M  END
>  <Dataset>  (129) 
ChEMBL_Kinases

>  <Ligand_Instance>  (129) 
nan

>  <PDB_ID>  (129) 
nan

>  <Standardized_SMILES>  (129) 
O=S(=O)(c1ccc(F)cc1F)N1CCc2c(sc3ncnc(Nc4cccc(Cl)c4)c23)C1

>  <Name>  (129) 
nan

>  <Pocket>  (129) 
nan

>  <ATP_Site>  (129) 
nan

>  <Peripheral>  (129) 
nan

>  <Num_H_Atoms_ProtBoundConf>  (129) 
nan

>  <Num_Resolved_Atoms>  (129) 
nan

>  <Num_Not_Resolved_Atoms>  (129) 
nan

$$$$
CHEMBL4648901
     RDKit          3D

  0  0  0  0  0  0  0  0  0  0999 V3000
M  V30 BEGIN CTAB
M  V30 COUNTS 43 45 0 0 0
M  V30 BEGIN ATOM
M  V30 1 C -1.648174 -1.639099 4.854689 0
M  V30 2 C -0.257539 -2.186365 4.599725 0
M  V30 3 O 0.311945 -1.394084 3.589231 0
M  V30 4 C 1.580321 -1.579486 3.076951 0
M  V30 5 O 1.998037 -2.559711 3.727625 0
M  V30 6 C 2.212749 -0.789959 2.035296 0
M  V30 7 C 3.499335 -1.241720 1.750633 0
M  V30 8 N 4.236777 -0.609211 0.792806 0
M  V30 9 C 3.729180 0.441282 0.127556 0
M  V30 10 C 4.405152 1.134152 -0.851226 0
M  V30 11 C 3.879698 2.212872 -1.532085 0
M  V30 12 C 2.591648 2.641775 -1.226261 0
M  V30 13 Br 1.865561 4.129322 -2.164355 0
M  V30 14 C 1.903661 1.961205 -0.252026 0
M  V30 15 C 2.448428 0.888344 0.413291 0
M  V30 16 C 1.674173 0.285959 1.363932 0
M  V30 17 N 0.355018 0.656022 1.738850 0
M  V30 18 C -0.748495 0.057148 1.048096 0
M  V30 19 C -2.052062 0.363404 1.352657 0
M  V30 20 C -3.117324 -0.224720 0.674826 0
M  V30 21 C -2.871214 -1.150849 -0.342453 0
M  V30 22 C -1.567829 -1.459498 -0.649665 0
M  V30 23 S -1.316904 -2.624853 -1.931243 0
M  V30 24 N -1.211742 -1.746882 -3.436101 0
M  V30 25 O -0.011900 -3.316787 -1.672944 0
M  V30 26 O -2.456404 -3.584327 -2.033236 0
M  V30 27 C -0.549011 -0.854788 0.045289 0
M  V30 28 H -1.511663 -0.734165 5.497386 0
M  V30 29 H -2.304344 -2.389494 5.337147 0
M  V30 30 H -2.045360 -1.293147 3.878335 0
M  V30 31 H 0.359143 -2.199012 5.540091 0
M  V30 32 H -0.320421 -3.243283 4.209717 0
M  V30 33 H 3.998690 -2.076375 2.227878 0
M  V30 34 H 5.415522 0.815173 -1.106690 0
M  V30 35 H 4.445537 2.727902 -2.293492 0
M  V30 36 H 0.891355 2.306605 -0.019090 0
M  V30 37 H 0.145607 1.334242 2.483266 0
M  V30 38 H -2.278924 1.083839 2.143069 0
M  V30 39 H -4.150698 0.021405 0.919958 0
M  V30 40 H -3.737935 -1.586589 -0.846689 0
M  V30 41 H -1.991563 -1.975125 -4.071191 0
M  V30 42 H -0.267999 -1.839996 -3.866120 0
M  V30 43 H 0.444931 -1.140507 -0.244643 0
M  V30 END ATOM
M  V30 BEGIN BOND
M  V30 1 1 1 2
M  V30 2 1 2 3
M  V30 3 1 3 4
M  V30 4 2 4 5
M  V30 5 1 4 6
M  V30 6 2 6 7
M  V30 7 1 7 8
M  V30 8 2 8 9
M  V30 9 1 9 10
M  V30 10 2 10 11
M  V30 11 1 11 12
M  V30 12 1 12 13
M  V30 13 2 12 14
M  V30 14 1 14 15
M  V30 15 2 15 16
M  V30 16 1 16 17
M  V30 17 1 17 18
M  V30 18 2 18 19
M  V30 19 1 19 20
M  V30 20 2 20 21
M  V30 21 1 21 22
M  V30 22 1 22 23
M  V30 23 1 23 24
M  V30 24 2 23 25
M  V30 25 2 23 26
M  V30 26 2 22 27
M  V30 27 1 16 6
M  V30 28 1 27 18
M  V30 29 1 15 9
M  V30 30 1 1 28
M  V30 31 1 1 29
M  V30 32 1 1 30
M  V30 33 1 2 31
M  V30 34 1 2 32
M  V30 35 1 7 33
M  V30 36 1 10 34
M  V30 37 1 11 35
M  V30 38 1 14 36
M  V30 39 1 17 37
M  V30 40 1 19 38
M  V30 41 1 20 39
M  V30 42 1 21 40
M  V30 43 1 24 41
M  V30 44 1 24 42
M  V30 45 1 27 43
M  V30 END BOND
M  V30 END CTAB
M  END
>  <Dataset>  (130) 
ChEMBL_Kinases

>  <Ligand_Instance>  (130) 
nan

>  <PDB_ID>  (130) 
nan

>  <Standardized_SMILES>  (130) 
CCOC(=O)c1cnc2ccc(Br)cc2c1Nc1cccc(S(N)(=O)=O)c1

>  <Name>  (130) 
nan

>  <Pocket>  (130) 
nan

>  <ATP_Site>  (130) 
nan

>  <Peripheral>  (130) 
nan

>  <Num_H_Atoms_ProtBoundConf>  (130) 
nan

>  <Num_Resolved_Atoms>  (130) 
nan

>  <Num_Not_Resolved_Atoms>  (130) 
nan

$$$$
CHEMBL4648928
     RDKit          3D

  0  0  0  0  0  0  0  0  0  0999 V3000
M  V30 BEGIN CTAB
M  V30 COUNTS 60 63 0 0 0
M  V30 BEGIN ATOM
M  V30 1 C 3.662797 -3.105069 2.397742 0
M  V30 2 N 3.847567 -3.929391 1.221480 0
M  V30 3 C 3.540982 -5.297111 1.663229 0
M  V30 4 C 2.880707 -3.632103 0.168997 0
M  V30 5 C 3.161043 -2.273158 -0.355751 0
M  V30 6 N 2.310025 -1.821658 -1.429747 0
M  V30 7 C 2.423921 -2.455541 -2.731259 0
M  V30 8 C 1.363001 -0.784160 -1.222500 0
M  V30 9 C 1.986159 0.460903 -1.358246 0
M  V30 10 C 1.223216 1.590464 -1.130434 0
M  V30 11 C -0.106820 1.572587 -0.779380 0
M  V30 12 C -0.896499 2.747283 -0.536856 0
M  V30 13 C -1.576358 3.722259 -0.326925 0
M  V30 14 C -2.411444 4.905537 -0.046604 0
M  V30 15 C -3.552517 4.867847 -1.004629 0
M  V30 16 O -1.697999 6.084435 -0.067896 0
M  V30 17 C -2.993423 4.796870 1.350412 0
M  V30 18 N -2.309817 4.810055 2.563942 0
M  V30 19 C -3.151168 4.689225 3.572906 0
M  V30 20 C -4.531439 4.560911 3.549263 0
M  V30 21 S -4.731647 4.618160 1.730033 0
M  V30 22 C -0.711519 0.342482 -0.649522 0
M  V30 23 C 0.035136 -0.791303 -0.873496 0
M  V30 24 N -0.548009 -2.045591 -0.786150 0
M  V30 25 C -0.785085 -3.350107 -0.344118 0
M  V30 26 N -0.189226 -4.406460 -0.955238 0
M  V30 27 C -0.452374 -5.637028 -0.485374 0
M  V30 28 N -1.273436 -5.807310 0.550320 0
M  V30 29 C -1.880116 -4.802370 1.181461 0
M  V30 30 N -2.727668 -4.721692 2.218291 0
M  V30 31 C -3.026482 -3.417175 2.432764 0
M  V30 32 C -2.361629 -2.597187 1.515216 0
M  V30 33 C -1.646711 -3.512628 0.740124 0
M  V30 34 H 2.592325 -2.900381 2.519510 0
M  V30 35 H 4.002758 -3.696854 3.273226 0
M  V30 36 H 4.310030 -2.202467 2.384224 0
M  V30 37 H 4.013533 -6.058330 1.023066 0
M  V30 38 H 2.440852 -5.423330 1.581555 0
M  V30 39 H 3.765795 -5.421389 2.749587 0
M  V30 40 H 1.894652 -3.611919 0.674844 0
M  V30 41 H 2.990553 -4.399757 -0.605712 0
M  V30 42 H 4.216022 -2.177930 -0.745383 0
M  V30 43 H 3.119307 -1.562307 0.518640 0
M  V30 44 H 1.449975 -2.456934 -3.285312 0
M  V30 45 H 3.215097 -2.030171 -3.358231 0
M  V30 46 H 2.682502 -3.536461 -2.519320 0
M  V30 47 H 3.034438 0.650320 -1.629011 0
M  V30 48 H 1.613361 2.590590 -1.212880 0
M  V30 49 H -4.246378 4.044460 -0.744301 0
M  V30 50 H -3.187040 4.770907 -2.046329 0
M  V30 51 H -4.123058 5.824449 -0.962177 0
M  V30 52 H -0.982018 6.047086 0.605201 0
M  V30 53 H -2.515137 4.708763 4.475326 0
M  V30 54 H -5.083378 4.471389 4.400348 0
M  V30 55 H -1.742388 0.206025 -0.379174 0
M  V30 56 H -1.316412 -2.045370 -1.529416 0
M  V30 57 H 0.076425 -6.413965 -1.047949 0
M  V30 58 H -3.064289 -5.551318 2.734857 0
M  V30 59 H -3.695136 -3.025555 3.209827 0
M  V30 60 H -2.378887 -1.526492 1.407802 0
M  V30 END ATOM
M  V30 BEGIN BOND
M  V30 1 1 1 2
M  V30 2 1 2 3
M  V30 3 1 2 4
M  V30 4 1 4 5
M  V30 5 1 5 6
M  V30 6 1 6 7
M  V30 7 1 6 8
M  V30 8 2 8 9
M  V30 9 1 9 10
M  V30 10 2 10 11
M  V30 11 1 11 12
M  V30 12 3 12 13
M  V30 13 1 13 14
M  V30 14 1 14 15
M  V30 15 1 14 16
M  V30 16 1 14 17
M  V30 17 2 17 18
M  V30 18 1 18 19
M  V30 19 2 19 20
M  V30 20 1 20 21
M  V30 21 1 11 22
M  V30 22 2 22 23
M  V30 23 1 23 24
M  V30 24 1 24 25
M  V30 25 2 25 26
M  V30 26 1 26 27
M  V30 27 2 27 28
M  V30 28 1 28 29
M  V30 29 1 29 30
M  V30 30 1 30 31
M  V30 31 2 31 32
M  V30 32 1 32 33
M  V30 33 1 23 8
M  V30 34 1 33 25
M  V30 35 1 21 17
M  V30 36 2 33 29
M  V30 37 1 1 34
M  V30 38 1 1 35
M  V30 39 1 1 36
M  V30 40 1 3 37
M  V30 41 1 3 38
M  V30 42 1 3 39
M  V30 43 1 4 40
M  V30 44 1 4 41
M  V30 45 1 5 42
M  V30 46 1 5 43
M  V30 47 1 7 44
M  V30 48 1 7 45
M  V30 49 1 7 46
M  V30 50 1 9 47
M  V30 51 1 10 48
M  V30 52 1 15 49
M  V30 53 1 15 50
M  V30 54 1 15 51
M  V30 55 1 16 52
M  V30 56 1 19 53
M  V30 57 1 20 54
M  V30 58 1 22 55
M  V30 59 1 24 56
M  V30 60 1 27 57
M  V30 61 1 30 58
M  V30 62 1 31 59
M  V30 63 1 32 60
M  V30 END BOND
M  V30 END CTAB
M  END
>  <Dataset>  (131) 
ChEMBL_Kinases

>  <Ligand_Instance>  (131) 
nan

>  <PDB_ID>  (131) 
nan

>  <Standardized_SMILES>  (131) 
CN(C)CCN(C)c1ccc(C#CC(C)(O)c2nccs2)cc1Nc1ncnc2[nH]ccc12

>  <Name>  (131) 
nan

>  <Pocket>  (131) 
nan

>  <ATP_Site>  (131) 
nan

>  <Peripheral>  (131) 
nan

>  <Num_H_Atoms_ProtBoundConf>  (131) 
nan

>  <Num_Resolved_Atoms>  (131) 
nan

>  <Num_Not_Resolved_Atoms>  (131) 
nan

$$$$
CHEMBL451213
     RDKit          3D

  0  0  0  0  0  0  0  0  0  0999 V3000
M  V30 BEGIN CTAB
M  V30 COUNTS 35 37 0 0 0
M  V30 BEGIN ATOM
M  V30 1 N -1.862503 -4.887238 3.831235 0
M  V30 2 C -0.726978 -4.342417 3.143679 0
M  V30 3 N 0.503299 -4.887459 3.250587 0
M  V30 4 C 1.550775 -4.332179 2.576780 0
M  V30 5 C 1.301030 -3.212039 1.797627 0
M  V30 6 C 0.043997 -2.651973 1.686014 0
M  V30 7 C -0.177125 -1.468360 0.852212 0
M  V30 8 C -1.395523 -0.849298 0.686853 0
M  V30 9 C -1.120490 0.198949 -0.167193 0
M  V30 10 C 0.202173 0.217734 -0.506020 0
M  V30 11 N 0.771853 -0.835236 0.144179 0
M  V30 12 C 0.876162 1.191428 -1.402079 0
M  V30 13 C 1.846383 2.034343 -0.613137 0
M  V30 14 C 1.205988 2.818795 0.479898 0
M  V30 15 O 0.594578 1.932052 1.364327 0
M  V30 16 C -0.082471 1.946559 -2.240817 0
M  V30 17 N -1.364019 2.219953 -1.623792 0
M  V30 18 C -1.940959 1.251081 -0.755189 0
M  V30 19 O -3.183903 1.264873 -0.460383 0
M  V30 20 N -0.936530 -3.258830 2.382086 0
M  V30 21 H -2.826171 -4.896967 3.381610 0
M  V30 22 H -1.803083 -5.294532 4.789944 0
M  V30 23 H 2.551214 -4.732657 2.631664 0
M  V30 24 H 2.149196 -2.785018 1.268999 0
M  V30 25 H -2.364135 -1.086074 1.102326 0
M  V30 26 H 1.771235 -1.137483 0.125592 0
M  V30 27 H 1.520504 0.581465 -2.099416 0
M  V30 28 H 2.412966 2.723182 -1.269203 0
M  V30 29 H 2.565327 1.320528 -0.138179 0
M  V30 30 H 2.026058 3.316265 1.045741 0
M  V30 31 H 0.526276 3.605680 0.133151 0
M  V30 32 H 1.080102 1.843746 2.214034 0
M  V30 33 H -0.327061 1.336428 -3.156856 0
M  V30 34 H 0.396604 2.866180 -2.632111 0
M  V30 35 H -1.890602 3.117064 -1.794872 0
M  V30 END ATOM
M  V30 BEGIN BOND
M  V30 1 1 1 2
M  V30 2 2 2 3
M  V30 3 1 3 4
M  V30 4 2 4 5
M  V30 5 1 5 6
M  V30 6 1 6 7
M  V30 7 2 7 8
M  V30 8 1 8 9
M  V30 9 2 9 10
M  V30 10 1 10 11
M  V30 11 1 10 12
M  V30 12 1 12 13
M  V30 13 1 13 14
M  V30 14 1 14 15
M  V30 15 1 12 16
M  V30 16 1 16 17
M  V30 17 1 17 18
M  V30 18 2 18 19
M  V30 19 2 6 20
M  V30 20 1 20 2
M  V30 21 1 11 7
M  V30 22 1 18 9
M  V30 23 1 1 21
M  V30 24 1 1 22
M  V30 25 1 4 23
M  V30 26 1 5 24
M  V30 27 1 8 25
M  V30 28 1 11 26
M  V30 29 1 12 27
M  V30 30 1 13 28
M  V30 31 1 13 29
M  V30 32 1 14 30
M  V30 33 1 14 31
M  V30 34 1 15 32
M  V30 35 1 16 33
M  V30 36 1 16 34
M  V30 37 1 17 35
M  V30 END BOND
M  V30 END CTAB
M  END
>  <Dataset>  (132) 
ChEMBL_Kinases

>  <Ligand_Instance>  (132) 
nan

>  <PDB_ID>  (132) 
nan

>  <Standardized_SMILES>  (132) 
Nc1nccc(-c2cc3c([nH]2)C(CCO)CNC3=O)n1

>  <Name>  (132) 
nan

>  <Pocket>  (132) 
nan

>  <ATP_Site>  (132) 
nan

>  <Peripheral>  (132) 
nan

>  <Num_H_Atoms_ProtBoundConf>  (132) 
nan

>  <Num_Resolved_Atoms>  (132) 
nan

>  <Num_Not_Resolved_Atoms>  (132) 
nan

$$$$
CHEMBL4648941
     RDKit          3D

  0  0  0  0  0  0  0  0  0  0999 V3000
M  V30 BEGIN CTAB
M  V30 COUNTS 45 49 0 0 0
M  V30 BEGIN ATOM
M  V30 1 F -0.175116 -0.978617 2.972207 0
M  V30 2 C 1.147487 -1.273031 3.070307 0
M  V30 3 F 1.584177 -0.830522 4.302848 0
M  V30 4 F 1.264639 -2.668443 3.124987 0
M  V30 5 C 1.989825 -0.810298 1.962862 0
M  V30 6 N 2.620184 -1.533925 1.026047 0
M  V30 7 C 3.307296 -0.760585 0.165627 0
M  V30 8 C 4.081226 -1.096182 -0.928095 0
M  V30 9 C 4.691594 -0.093703 -1.660431 0
M  V30 10 C 4.484094 1.206502 -1.242736 0
M  V30 11 C 3.713710 1.532034 -0.154822 0
M  V30 12 C 3.099254 0.540286 0.584139 0
M  V30 13 N 2.301106 0.483303 1.670059 0
M  V30 14 C 1.843537 1.649188 2.418085 0
M  V30 15 C 0.561742 2.192045 1.894685 0
M  V30 16 N 0.529433 3.157321 0.928043 0
M  V30 17 N -0.745136 3.446036 0.658912 0
M  V30 18 C -1.492903 2.658726 1.459622 0
M  V30 19 S -3.258850 2.757046 1.389402 0
M  V30 20 C -4.011587 1.653509 0.197289 0
M  V30 21 C -3.818627 0.236453 0.580567 0
M  V30 22 C -2.754257 -0.552371 0.202799 0
M  V30 23 N -2.914071 -1.777351 0.734306 0
M  V30 24 C -2.042027 -2.905023 0.594127 0
M  V30 25 C -0.711236 -2.647135 0.296915 0
M  V30 26 C 0.128694 -3.755489 0.163641 0
M  V30 27 C -0.370263 -5.035529 0.325522 0
M  V30 28 N -1.684135 -5.258438 0.617459 0
M  V30 29 C -2.500680 -4.195844 0.747788 0
M  V30 30 N -4.060249 -1.728653 1.424260 0
M  V30 31 N -4.611708 -0.535604 1.342889 0
M  V30 32 O -0.688882 1.919607 2.187426 0
M  V30 33 H 4.246073 -2.115664 -1.258684 0
M  V30 34 H 5.306391 -0.310587 -2.524471 0
M  V30 35 H 4.964407 1.999872 -1.819051 0
M  V30 36 H 3.566507 2.547755 0.151096 0
M  V30 37 H 1.668387 1.351002 3.472439 0
M  V30 38 H 2.620880 2.435352 2.373596 0
M  V30 39 H -5.107629 1.830468 0.231632 0
M  V30 40 H -3.666418 1.848158 -0.849778 0
M  V30 41 H -1.885742 -0.307465 -0.419139 0
M  V30 42 H -0.282420 -1.660313 0.162400 0
M  V30 43 H 1.174123 -3.686919 -0.064197 0
M  V30 44 H 0.262252 -5.902019 0.226076 0
M  V30 45 H -3.546248 -4.397955 0.981494 0
M  V30 END ATOM
M  V30 BEGIN BOND
M  V30 1 1 1 2
M  V30 2 1 2 3
M  V30 3 1 2 4
M  V30 4 1 2 5
M  V30 5 2 5 6
M  V30 6 1 6 7
M  V30 7 2 7 8
M  V30 8 1 8 9
M  V30 9 2 9 10
M  V30 10 1 10 11
M  V30 11 2 11 12
M  V30 12 1 12 13
M  V30 13 1 13 14
M  V30 14 1 14 15
M  V30 15 2 15 16
M  V30 16 1 16 17
M  V30 17 2 17 18
M  V30 18 1 18 19
M  V30 19 1 19 20
M  V30 20 1 20 21
M  V30 21 2 21 22
M  V30 22 1 22 23
M  V30 23 1 23 24
M  V30 24 2 24 25
M  V30 25 1 25 26
M  V30 26 2 26 27
M  V30 27 1 27 28
M  V30 28 2 28 29
M  V30 29 1 23 30
M  V30 30 2 30 31
M  V30 31 1 18 32
M  V30 32 1 13 5
M  V30 33 1 32 15
M  V30 34 1 12 7
M  V30 35 1 31 21
M  V30 36 1 29 24
M  V30 37 1 8 33
M  V30 38 1 9 34
M  V30 39 1 10 35
M  V30 40 1 11 36
M  V30 41 1 14 37
M  V30 42 1 14 38
M  V30 43 1 20 39
M  V30 44 1 20 40
M  V30 45 1 22 41
M  V30 46 1 25 42
M  V30 47 1 26 43
M  V30 48 1 27 44
M  V30 49 1 29 45
M  V30 END BOND
M  V30 END CTAB
M  END
>  <Dataset>  (133) 
ChEMBL_Kinases

>  <Ligand_Instance>  (133) 
nan

>  <PDB_ID>  (133) 
nan

>  <Standardized_SMILES>  (133) 
FC(F)(F)c1nc2ccccc2n1Cc1nnc(SCc2cn(-c3cccnc3)nn2)o1

>  <Name>  (133) 
nan

>  <Pocket>  (133) 
nan

>  <ATP_Site>  (133) 
nan

>  <Peripheral>  (133) 
nan

>  <Num_H_Atoms_ProtBoundConf>  (133) 
nan

>  <Num_Resolved_Atoms>  (133) 
nan

>  <Num_Not_Resolved_Atoms>  (133) 
nan

$$$$
CHEMBL4648945
     RDKit          3D

  0  0  0  0  0  0  0  0  0  0999 V3000
M  V30 BEGIN CTAB
M  V30 COUNTS 34 37 0 0 0
M  V30 BEGIN ATOM
M  V30 1 C -2.890208 -0.692228 4.257227 0
M  V30 2 C -1.699374 -0.704284 3.528995 0
M  V30 3 C -1.693492 -0.261958 2.206927 0
M  V30 4 C -0.474368 -0.253858 1.400521 0
M  V30 5 C 0.482677 -1.241990 1.279260 0
M  V30 6 N 1.475379 -0.853096 0.425681 0
M  V30 7 C 2.563971 -1.775374 0.173858 0
M  V30 8 C 2.302346 -2.724625 -0.956462 0
M  V30 9 C 2.041176 -2.249899 -2.352840 0
M  V30 10 C 0.944266 -2.913857 -1.513269 0
M  V30 11 C 1.135196 0.380355 0.014932 0
M  V30 12 C 1.843406 1.177009 -0.856910 0
M  V30 13 N 1.333474 2.387787 -1.140604 0
M  V30 14 C 0.168584 2.835150 -0.604401 0
M  V30 15 C -0.527860 2.030207 0.264143 0
M  V30 16 C -0.052619 0.781241 0.590318 0
M  V30 17 C -2.910746 0.165154 1.715087 0
M  V30 18 C -4.070998 0.166664 2.455122 0
M  V30 19 N -4.052975 -0.264000 3.727095 0
M  V30 20 H -2.920877 -1.030437 5.284913 0
M  V30 21 H -0.772858 -1.050406 3.966025 0
M  V30 22 H 0.361049 -2.167109 1.835539 0
M  V30 23 H 3.482198 -1.147482 -0.040067 0
M  V30 24 H 2.848628 -2.317618 1.111687 0
M  V30 25 H 2.942285 -3.633081 -0.921813 0
M  V30 26 H 2.025880 -1.171394 -2.489548 0
M  V30 27 H 2.323763 -2.896042 -3.214130 0
M  V30 28 H 0.612818 -3.927869 -1.736905 0
M  V30 29 H 0.114906 -2.223729 -1.296223 0
M  V30 30 H 2.790551 0.835883 -1.304436 0
M  V30 31 H -0.252949 3.808138 -0.824808 0
M  V30 32 H -1.453895 2.364564 0.701257 0
M  V30 33 H -2.994254 0.523904 0.699521 0
M  V30 34 H -5.026687 0.500793 2.072551 0
M  V30 END ATOM
M  V30 BEGIN BOND
M  V30 1 2 1 2
M  V30 2 1 2 3
M  V30 3 1 3 4
M  V30 4 2 4 5
M  V30 5 1 5 6
M  V30 6 1 6 7
M  V30 7 1 7 8
M  V30 8 1 8 9
M  V30 9 1 9 10
M  V30 10 1 6 11
M  V30 11 2 11 12
M  V30 12 1 12 13
M  V30 13 2 13 14
M  V30 14 1 14 15
M  V30 15 2 15 16
M  V30 16 2 3 17
M  V30 17 1 17 18
M  V30 18 2 18 19
M  V30 19 1 19 1
M  V30 20 1 16 4
M  V30 21 1 10 8
M  V30 22 1 16 11
M  V30 23 1 1 20
M  V30 24 1 2 21
M  V30 25 1 5 22
M  V30 26 1 7 23
M  V30 27 1 7 24
M  V30 28 1 8 25
M  V30 29 1 9 26
M  V30 30 1 9 27
M  V30 31 1 10 28
M  V30 32 1 10 29
M  V30 33 1 12 30
M  V30 34 1 14 31
M  V30 35 1 15 32
M  V30 36 1 17 33
M  V30 37 1 18 34
M  V30 END BOND
M  V30 END CTAB
M  END
>  <Dataset>  (134) 
ChEMBL_Kinases

>  <Ligand_Instance>  (134) 
nan

>  <PDB_ID>  (134) 
nan

>  <Standardized_SMILES>  (134) 
c1cc(-c2cn(CC3CC3)c3cnccc23)ccn1

>  <Name>  (134) 
nan

>  <Pocket>  (134) 
nan

>  <ATP_Site>  (134) 
nan

>  <Peripheral>  (134) 
nan

>  <Num_H_Atoms_ProtBoundConf>  (134) 
nan

>  <Num_Resolved_Atoms>  (134) 
nan

>  <Num_Not_Resolved_Atoms>  (134) 
nan

$$$$
CHEMBL4648955
     RDKit          3D

  0  0  0  0  0  0  0  0  0  0999 V3000
M  V30 BEGIN CTAB
M  V30 COUNTS 66 70 0 0 0
M  V30 BEGIN ATOM
M  V30 1 C 2.007694 -2.939277 4.787837 0
M  V30 2 N 0.855846 -2.086155 4.569084 0
M  V30 3 C -0.344139 -2.865154 4.615226 0
M  V30 4 C 1.000556 -1.280381 3.372586 0 CFG=2
M  V30 5 C -0.228380 -0.438570 3.230634 0
M  V30 6 C -0.225808 0.433350 2.012443 0
M  V30 7 C 0.380883 -0.263550 0.787917 0 CFG=1
M  V30 8 C 1.786141 0.219903 0.688690 0
M  V30 9 C 0.275561 -1.746632 1.092848 0 CFG=1
M  V30 10 C 0.302386 -2.613617 -0.119672 0
M  V30 11 C 0.740576 -1.961407 -1.370446 0
M  V30 12 C 0.229672 -0.580884 -1.614747 0 CFG=2
M  V30 13 C -0.476399 0.018256 -0.386415 0 CFG=2
M  V30 14 C -0.683866 1.460939 -0.682139 0
M  V30 15 C -1.496361 1.661363 -1.947514 0
M  V30 16 C -0.814279 1.044565 -3.101812 0 CFG=2
M  V30 17 C 0.580426 1.569404 -3.351638 0
M  V30 18 C -1.484886 0.977640 -4.379054 0
M  V30 19 C -2.282797 1.870401 -5.215142 0
M  V30 20 C -2.533681 3.186040 -4.888215 0
M  V30 21 N -3.251740 4.063577 -5.573467 0
M  V30 22 C -3.838562 3.701858 -6.739895 0
M  V30 23 C -3.648937 2.403653 -7.158413 0
M  V30 24 Cl -4.363315 1.835743 -8.650365 0
M  V30 25 C -2.892070 1.532751 -6.405347 0
M  V30 26 C -1.293296 -0.254047 -4.900894 0
M  V30 27 C -0.477420 -1.072092 -3.988613 0
M  V30 28 C -0.753746 -0.444173 -2.699665 0 CFG=1
M  V30 29 C 1.230557 -2.183917 2.183564 0
M  V30 30 H 2.057240 -3.793539 4.092501 0
M  V30 31 H 1.918461 -3.342217 5.817828 0
M  V30 32 H 2.932150 -2.327247 4.775451 0
M  V30 33 H -0.116221 -3.803932 5.197479 0
M  V30 34 H -0.722282 -3.183356 3.641322 0
M  V30 35 H -1.169053 -2.324324 5.141901 0
M  V30 36 H 1.859649 -0.599251 3.579464 0
M  V30 37 H -0.231190 0.245880 4.128984 0
M  V30 38 H -1.165689 -1.032270 3.354769 0
M  V30 39 H 0.318511 1.371805 2.246438 0
M  V30 40 H -1.302771 0.688763 1.821451 0
M  V30 41 H 1.951245 0.993712 -0.117500 0
M  V30 42 H 2.505334 -0.624147 0.560595 0
M  V30 43 H 2.143171 0.741881 1.609239 0
M  V30 44 H -0.741428 -1.884443 1.543563 0
M  V30 45 H -0.666783 -3.154315 -0.318914 0
M  V30 46 H 1.015195 -3.453333 0.101270 0
M  V30 47 H 1.858723 -2.046891 -1.447642 0
M  V30 48 H 0.377471 -2.585446 -2.237472 0
M  V30 49 H 1.123356 0.065113 -1.736119 0
M  V30 50 H -1.461521 -0.448262 -0.213269 0
M  V30 51 H -1.306395 1.956545 0.120858 0
M  V30 52 H 0.265177 2.003244 -0.664423 0
M  V30 53 H -1.762272 2.703712 -1.966583 0
M  V30 54 H -2.441099 1.090748 -1.779566 0
M  V30 55 H 1.311016 0.782366 -3.635164 0
M  V30 56 H 0.989565 2.193781 -2.557966 0
M  V30 57 H 0.575799 2.231617 -4.268412 0
M  V30 58 H -2.146944 3.644582 -4.017043 0
M  V30 59 H -4.442319 4.323412 -7.381399 0
M  V30 60 H -2.776069 0.521683 -6.782086 0
M  V30 61 H -1.589769 -0.783519 -5.821673 0
M  V30 62 H 0.588339 -1.122870 -4.286621 0
M  V30 63 H -0.798448 -2.149679 -3.932885 0
M  V30 64 H -1.778084 -0.713790 -2.371055 0
M  V30 65 H 2.284532 -2.153252 1.910527 0
M  V30 66 H 0.980043 -3.234602 2.412687 0
M  V30 END ATOM
M  V30 BEGIN BOND
M  V30 1 1 1 2
M  V30 2 1 2 3
M  V30 3 1 2 4
M  V30 4 1 4 5
M  V30 5 1 5 6
M  V30 6 1 6 7
M  V30 7 1 7 8 CFG=3
M  V30 8 1 7 9
M  V30 9 1 9 10
M  V30 10 1 10 11
M  V30 11 1 11 12
M  V30 12 1 12 13
M  V30 13 1 13 14
M  V30 14 1 14 15
M  V30 15 1 15 16
M  V30 16 1 16 17 CFG=3
M  V30 17 1 16 18
M  V30 18 1 18 19
M  V30 19 2 19 20
M  V30 20 1 20 21
M  V30 21 2 21 22
M  V30 22 1 22 23
M  V30 23 1 23 24
M  V30 24 2 23 25
M  V30 25 2 18 26
M  V30 26 1 26 27
M  V30 27 1 27 28
M  V30 28 1 9 29
M  V30 29 1 29 4
M  V30 30 1 13 7
M  V30 31 1 28 16
M  V30 32 1 28 12
M  V30 33 1 25 19
M  V30 34 1 1 30
M  V30 35 1 1 31
M  V30 36 1 1 32
M  V30 37 1 3 33
M  V30 38 1 3 34
M  V30 39 1 3 35
M  V30 40 1 4 36 CFG=1
M  V30 41 1 5 37
M  V30 42 1 5 38
M  V30 43 1 6 39
M  V30 44 1 6 40
M  V30 45 1 8 41
M  V30 46 1 8 42
M  V30 47 1 8 43
M  V30 48 1 9 44 CFG=1
M  V30 49 1 10 45
M  V30 50 1 10 46
M  V30 51 1 11 47
M  V30 52 1 11 48
M  V30 53 1 12 49 CFG=3
M  V30 54 1 13 50 CFG=1
M  V30 55 1 14 51
M  V30 56 1 14 52
M  V30 57 1 15 53
M  V30 58 1 15 54
M  V30 59 1 17 55
M  V30 60 1 17 56
M  V30 61 1 17 57
M  V30 62 1 20 58
M  V30 63 1 22 59
M  V30 64 1 25 60
M  V30 65 1 26 61
M  V30 66 1 27 62
M  V30 67 1 27 63
M  V30 68 1 28 64 CFG=1
M  V30 69 1 29 65
M  V30 70 1 29 66
M  V30 END BOND
M  V30 END CTAB
M  END
>  <Dataset>  (135) 
ChEMBL_Kinases

>  <Ligand_Instance>  (135) 
nan

>  <PDB_ID>  (135) 
nan

>  <Standardized_SMILES>  (135) 
CN(C)[C@@H]1CC[C@@]2(C)[C@@H](CC[C@@H]3[C@@H]2CC[C@]2(C)C(c4cncc(Cl)c4)=CC[C@@H]32)C1

>  <Name>  (135) 
nan

>  <Pocket>  (135) 
nan

>  <ATP_Site>  (135) 
nan

>  <Peripheral>  (135) 
nan

>  <Num_H_Atoms_ProtBoundConf>  (135) 
nan

>  <Num_Resolved_Atoms>  (135) 
nan

>  <Num_Not_Resolved_Atoms>  (135) 
nan

$$$$
CHEMBL451155
     RDKit          3D

  0  0  0  0  0  0  0  0  0  0999 V3000
M  V30 BEGIN CTAB
M  V30 COUNTS 21 22 0 0 0
M  V30 BEGIN ATOM
M  V30 1 O -0.653508 -0.219568 3.296744 0
M  V30 2 C -0.700247 -1.494292 2.822058 0
M  V30 3 C -0.609779 -1.684352 1.345101 0
M  V30 4 N 0.612060 -1.156395 0.777135 0
M  V30 5 N 1.779304 -1.817291 0.736838 0
M  V30 6 N 2.730703 -1.106077 0.204697 0
M  V30 7 C 2.242207 0.095800 -0.148749 0
M  V30 8 C 2.727415 1.249138 -0.742652 0
M  V30 9 Br 4.573715 1.276818 -1.231871 0
M  V30 10 C 1.918419 2.346674 -0.978840 0
M  V30 11 Br 2.649084 3.903470 -1.799507 0
M  V30 12 C 0.572500 2.275955 -0.602126 0
M  V30 13 Br -0.487353 3.817229 -0.954450 0
M  V30 14 C 0.118935 1.116397 -0.013647 0
M  V30 15 Br -1.736725 1.153909 0.415022 0
M  V30 16 C 0.917243 0.029948 0.222271 0
M  V30 17 H -0.980740 -0.241302 4.230419 0
M  V30 18 H -1.651619 -1.951848 3.218472 0
M  V30 19 H 0.098710 -2.078595 3.366292 0
M  V30 20 H -1.523153 -1.419795 0.799353 0
M  V30 21 H -0.549331 -2.810659 1.205997 0
M  V30 END ATOM
M  V30 BEGIN BOND
M  V30 1 1 1 2
M  V30 2 1 2 3
M  V30 3 1 3 4
M  V30 4 1 4 5
M  V30 5 2 5 6
M  V30 6 1 6 7
M  V30 7 2 7 8
M  V30 8 1 8 9
M  V30 9 1 8 10
M  V30 10 1 10 11
M  V30 11 2 10 12
M  V30 12 1 12 13
M  V30 13 1 12 14
M  V30 14 1 14 15
M  V30 15 2 14 16
M  V30 16 1 16 4
M  V30 17 1 16 7
M  V30 18 1 1 17
M  V30 19 1 2 18
M  V30 20 1 2 19
M  V30 21 1 3 20
M  V30 22 1 3 21
M  V30 END BOND
M  V30 END CTAB
M  END
>  <Dataset>  (136) 
ChEMBL_Kinases

>  <Ligand_Instance>  (136) 
nan

>  <PDB_ID>  (136) 
nan

>  <Standardized_SMILES>  (136) 
OCCn1nnc2c(Br)c(Br)c(Br)c(Br)c21

>  <Name>  (136) 
nan

>  <Pocket>  (136) 
nan

>  <ATP_Site>  (136) 
nan

>  <Peripheral>  (136) 
nan

>  <Num_H_Atoms_ProtBoundConf>  (136) 
nan

>  <Num_Resolved_Atoms>  (136) 
nan

>  <Num_Not_Resolved_Atoms>  (136) 
nan

$$$$
CHEMBL451135
     RDKit          3D

  0  0  0  0  0  0  0  0  0  0999 V3000
M  V30 BEGIN CTAB
M  V30 COUNTS 45 46 0 0 0
M  V30 BEGIN ATOM
M  V30 1 C 0.422753 -4.846678 1.506452 0
M  V30 2 C 0.264660 -3.367575 1.219492 0
M  V30 3 C -0.303003 -2.637059 2.411563 0
M  V30 4 C -0.639889 -3.205679 0.005506 0
M  V30 5 C 1.566321 -2.743654 0.878138 0
M  V30 6 O 2.583974 -3.517900 0.869460 0
M  V30 7 O 1.804869 -1.439556 0.571238 0
M  V30 8 C 3.062824 -0.895830 0.249784 0
M  V30 9 C 2.861557 0.592247 -0.003427 0
M  V30 10 C 4.164315 1.244685 -0.412065 0
M  V30 11 O 3.856169 2.600841 -0.615320 0
M  V30 12 C 2.208657 1.256937 1.188273 0
M  V30 13 C 0.765425 1.272737 0.822208 0
M  V30 14 C -0.304007 1.569923 1.539728 0
M  V30 15 C -1.705170 1.576975 1.142266 0
M  V30 16 C -2.498430 0.860567 2.052755 0
M  V30 17 C -3.875378 0.739302 1.910336 0
M  V30 18 C -4.429568 1.368989 0.812419 0
M  V30 19 F -5.769395 1.325531 0.563712 0
M  V30 20 C -3.681651 2.080488 -0.099941 0
M  V30 21 C -2.295530 2.181582 0.075227 0
M  V30 22 C 0.646267 0.824154 -0.555382 0
M  V30 23 O -0.361835 0.490680 -1.207195 0
M  V30 24 O 1.949345 0.818028 -1.093835 0
M  V30 25 H 0.362478 -5.010046 2.605932 0
M  V30 26 H -0.443973 -5.371856 1.057395 0
M  V30 27 H 1.336845 -5.280749 1.087414 0
M  V30 28 H -0.169691 -3.316830 3.294953 0
M  V30 29 H 0.317633 -1.755541 2.635295 0
M  V30 30 H -1.376097 -2.374753 2.283336 0
M  V30 31 H -1.246488 -2.301009 0.113821 0
M  V30 32 H -1.259965 -4.129393 -0.103925 0
M  V30 33 H -0.010255 -3.134593 -0.899353 0
M  V30 34 H 3.783722 -0.933849 1.117130 0
M  V30 35 H 3.544610 -1.399413 -0.584406 0
M  V30 36 H 4.916574 1.088209 0.387568 0
M  V30 37 H 4.447756 0.801456 -1.395655 0
M  V30 38 H 3.744699 2.791248 -1.588486 0
M  V30 39 H 2.415298 0.780257 2.147197 0
M  V30 40 H 2.546721 2.320497 1.191721 0
M  V30 41 H -0.061651 1.841486 2.560530 0
M  V30 42 H -2.120359 0.337963 2.945072 0
M  V30 43 H -4.490555 0.189252 2.602411 0
M  V30 44 H -4.035819 2.602315 -0.983017 0
M  V30 45 H -1.665930 2.732610 -0.586181 0
M  V30 END ATOM
M  V30 BEGIN BOND
M  V30 1 1 1 2
M  V30 2 1 2 3
M  V30 3 1 2 4
M  V30 4 1 2 5
M  V30 5 2 5 6
M  V30 6 1 5 7
M  V30 7 1 7 8
M  V30 8 1 8 9
M  V30 9 1 9 10
M  V30 10 1 10 11
M  V30 11 1 9 12
M  V30 12 1 12 13
M  V30 13 2 13 14
M  V30 14 1 14 15
M  V30 15 2 15 16
M  V30 16 1 16 17
M  V30 17 2 17 18
M  V30 18 1 18 19
M  V30 19 1 18 20
M  V30 20 2 20 21
M  V30 21 1 13 22
M  V30 22 2 22 23
M  V30 23 1 22 24
M  V30 24 1 24 9
M  V30 25 1 21 15
M  V30 26 1 1 25
M  V30 27 1 1 26
M  V30 28 1 1 27
M  V30 29 1 3 28
M  V30 30 1 3 29
M  V30 31 1 3 30
M  V30 32 1 4 31
M  V30 33 1 4 32
M  V30 34 1 4 33
M  V30 35 1 8 34
M  V30 36 1 8 35
M  V30 37 1 10 36
M  V30 38 1 10 37
M  V30 39 1 11 38
M  V30 40 1 12 39
M  V30 41 1 12 40
M  V30 42 1 14 41
M  V30 43 1 16 42
M  V30 44 1 17 43
M  V30 45 1 20 44
M  V30 46 1 21 45
M  V30 END BOND
M  V30 END CTAB
M  END
>  <Dataset>  (137) 
ChEMBL_Kinases

>  <Ligand_Instance>  (137) 
nan

>  <PDB_ID>  (137) 
nan

>  <Standardized_SMILES>  (137) 
CC(C)(C)C(=O)OCC1(CO)C/C(=C/c2ccc(F)cc2)C(=O)O1

>  <Name>  (137) 
nan

>  <Pocket>  (137) 
nan

>  <ATP_Site>  (137) 
nan

>  <Peripheral>  (137) 
nan

>  <Num_H_Atoms_ProtBoundConf>  (137) 
nan

>  <Num_Resolved_Atoms>  (137) 
nan

>  <Num_Not_Resolved_Atoms>  (137) 
nan

$$$$
CHEMBL450809
     RDKit          3D

  0  0  0  0  0  0  0  0  0  0999 V3000
M  V30 BEGIN CTAB
M  V30 COUNTS 78 82 0 0 0
M  V30 BEGIN ATOM
M  V30 1 C -0.839973 -5.810034 5.478953 0
M  V30 2 C 0.578722 -5.435187 5.201616 0
M  V30 3 C 1.542339 -5.844096 6.092185 0
M  V30 4 C 2.876406 -5.502444 5.849161 0
M  V30 5 C 3.133234 -4.768211 4.715527 0
M  V30 6 C 2.151834 -4.368822 3.836276 0
M  V30 7 N 2.644513 -3.617969 2.731862 0
M  V30 8 N 3.467183 -4.069992 1.785880 0
M  V30 9 C 3.732047 -3.098051 0.894345 0
M  V30 10 C 4.562676 -3.038290 -0.333480 0
M  V30 11 C 5.202633 -4.375123 -0.564947 0
M  V30 12 C 3.758794 -2.634766 -1.542401 0
M  V30 13 C 5.683552 -2.028216 -0.167038 0
M  V30 14 C 3.033687 -1.966987 1.304484 0
M  V30 15 C 2.355866 -2.330572 2.470309 0
M  V30 16 C 1.507412 -1.404999 3.201908 0
M  V30 17 N 1.697464 -1.529833 4.492805 0
M  V30 18 O 0.946635 -0.703496 5.270017 0
M  V30 19 C 0.619452 -0.522189 2.466491 0
M  V30 20 O 0.611779 -0.585975 1.188074 0
M  V30 21 N -0.308485 0.466617 2.876217 0
M  V30 22 C -0.889538 1.004512 1.668906 0
M  V30 23 C -2.030247 0.422201 1.145755 0
M  V30 24 C -2.549176 0.969120 -0.013204 0
M  V30 25 C -1.915275 2.053645 -0.585327 0
M  V30 26 O -2.441116 2.602835 -1.754744 0
M  V30 27 C -3.599759 2.113554 -2.402473 0
M  V30 28 C -3.794123 2.993901 -3.610777 0
M  V30 29 N -4.954001 2.618439 -4.387797 0
M  V30 30 C -4.807308 1.346750 -5.036114 0
M  V30 31 C -6.125210 0.988475 -5.690184 0
M  V30 32 O -6.719031 2.024326 -6.368976 0
M  V30 33 C -5.771555 2.998877 -6.651374 0
M  V30 34 C -5.281688 3.628928 -5.370473 0
M  V30 35 C -0.776757 2.637060 -0.065421 0
M  V30 36 C -0.147433 3.725850 -0.645789 0
M  V30 37 C 0.989857 4.265506 -0.076342 0
M  V30 38 C 1.505669 3.715441 1.082361 0
M  V30 39 C 0.893173 2.628920 1.677732 0
M  V30 40 C -0.254888 2.089777 1.096626 0
M  V30 41 C 0.832981 -4.700296 4.066395 0
M  V30 42 H -0.911556 -6.901686 5.309853 0
M  V30 43 H -1.043177 -5.573824 6.561871 0
M  V30 44 H -1.536900 -5.277130 4.818021 0
M  V30 45 H 1.299336 -6.420249 6.970301 0
M  V30 46 H 3.630962 -5.828052 6.555887 0
M  V30 47 H 4.201641 -4.536896 4.588982 0
M  V30 48 H 5.228260 -4.589299 -1.670276 0
M  V30 49 H 4.568147 -5.148438 -0.067399 0
M  V30 50 H 6.206806 -4.390169 -0.115976 0
M  V30 51 H 2.814109 -3.181018 -1.667051 0
M  V30 52 H 4.389992 -2.863442 -2.445523 0
M  V30 53 H 3.617134 -1.517362 -1.581865 0
M  V30 54 H 6.618312 -2.530866 0.190001 0
M  V30 55 H 5.399663 -1.177342 0.459524 0
M  V30 56 H 5.930705 -1.642306 -1.177573 0
M  V30 57 H 2.995483 -0.970344 0.837366 0
M  V30 58 H 1.269360 -0.238477 6.112753 0
M  V30 59 H -0.360926 0.579964 3.923489 0
M  V30 60 H -2.476130 -0.429988 1.649044 0
M  V30 61 H -3.437858 0.552319 -0.464034 0
M  V30 62 H -4.508747 2.235665 -1.760053 0
M  V30 63 H -3.458796 1.048759 -2.682447 0
M  V30 64 H -2.888145 2.892229 -4.266563 0
M  V30 65 H -3.884909 4.038714 -3.276300 0
M  V30 66 H -4.023583 1.435025 -5.817816 0
M  V30 67 H -4.573378 0.540672 -4.306676 0
M  V30 68 H -5.881616 0.173923 -6.412827 0
M  V30 69 H -6.799542 0.515433 -4.936065 0
M  V30 70 H -6.277225 3.740507 -7.307630 0
M  V30 71 H -4.920476 2.575479 -7.240357 0
M  V30 72 H -6.070334 4.318764 -4.996138 0
M  V30 73 H -4.349499 4.223746 -5.585636 0
M  V30 74 H -0.588457 4.132681 -1.564203 0
M  V30 75 H 1.424115 5.118054 -0.590922 0
M  V30 76 H 2.409872 4.161476 1.515073 0
M  V30 77 H 1.287679 2.185926 2.589007 0
M  V30 78 H 0.112185 -4.362098 3.347049 0
M  V30 END ATOM
M  V30 BEGIN BOND
M  V30 1 1 1 2
M  V30 2 2 2 3
M  V30 3 1 3 4
M  V30 4 2 4 5
M  V30 5 1 5 6
M  V30 6 1 6 7
M  V30 7 1 7 8
M  V30 8 2 8 9
M  V30 9 1 9 10
M  V30 10 1 10 11
M  V30 11 1 10 12
M  V30 12 1 10 13
M  V30 13 1 9 14
M  V30 14 2 14 15
M  V30 15 1 15 16
M  V30 16 2 16 17
M  V30 17 1 17 18
M  V30 18 1 16 19
M  V30 19 2 19 20
M  V30 20 1 19 21
M  V30 21 1 21 22
M  V30 22 2 22 23
M  V30 23 1 23 24
M  V30 24 2 24 25
M  V30 25 1 25 26
M  V30 26 1 26 27
M  V30 27 1 27 28
M  V30 28 1 28 29
M  V30 29 1 29 30
M  V30 30 1 30 31
M  V30 31 1 31 32
M  V30 32 1 32 33
M  V30 33 1 33 34
M  V30 34 1 25 35
M  V30 35 2 35 36
M  V30 36 1 36 37
M  V30 37 2 37 38
M  V30 38 1 38 39
M  V30 39 2 39 40
M  V30 40 2 6 41
M  V30 41 1 41 2
M  V30 42 1 15 7
M  V30 43 1 40 22
M  V30 44 1 34 29
M  V30 45 1 40 35
M  V30 46 1 1 42
M  V30 47 1 1 43
M  V30 48 1 1 44
M  V30 49 1 3 45
M  V30 50 1 4 46
M  V30 51 1 5 47
M  V30 52 1 11 48
M  V30 53 1 11 49
M  V30 54 1 11 50
M  V30 55 1 12 51
M  V30 56 1 12 52
M  V30 57 1 12 53
M  V30 58 1 13 54
M  V30 59 1 13 55
M  V30 60 1 13 56
M  V30 61 1 14 57
M  V30 62 1 18 58
M  V30 63 1 21 59
M  V30 64 1 23 60
M  V30 65 1 24 61
M  V30 66 1 27 62
M  V30 67 1 27 63
M  V30 68 1 28 64
M  V30 69 1 28 65
M  V30 70 1 30 66
M  V30 71 1 30 67
M  V30 72 1 31 68
M  V30 73 1 31 69
M  V30 74 1 33 70
M  V30 75 1 33 71
M  V30 76 1 34 72
M  V30 77 1 34 73
M  V30 78 1 36 74
M  V30 79 1 37 75
M  V30 80 1 38 76
M  V30 81 1 39 77
M  V30 82 1 41 78
M  V30 END BOND
M  V30 END CTAB
M  END
>  <Dataset>  (138) 
ChEMBL_Kinases

>  <Ligand_Instance>  (138) 
nan

>  <PDB_ID>  (138) 
nan

>  <Standardized_SMILES>  (138) 
Cc1cccc(-n2nc(C(C)(C)C)cc2/C(=N/O)C(=O)Nc2ccc(OCCN3CCOCC3)c3ccccc23)c1

>  <Name>  (138) 
nan

>  <Pocket>  (138) 
nan

>  <ATP_Site>  (138) 
nan

>  <Peripheral>  (138) 
nan

>  <Num_H_Atoms_ProtBoundConf>  (138) 
nan

>  <Num_Resolved_Atoms>  (138) 
nan

>  <Num_Not_Resolved_Atoms>  (138) 
nan

$$$$
CHEMBL4648967
     RDKit          3D

  0  0  0  0  0  0  0  0  0  0999 V3000
M  V30 BEGIN CTAB
M  V30 COUNTS 67 69 0 0 0
M  V30 BEGIN ATOM
M  V30 1 C 3.828460 0.142871 4.009653 0
M  V30 2 C 4.036062 -1.101351 3.164735 0
M  V30 3 C 4.304078 -2.309709 4.042376 0
M  V30 4 C 5.295458 -0.878266 2.340588 0
M  V30 5 C 2.839415 -1.288805 2.304197 0
M  V30 6 C 2.748201 -0.744875 1.040070 0
M  V30 7 C 1.648136 -0.894501 0.212620 0
M  V30 8 N 1.589143 -0.328319 -1.083777 0
M  V30 9 C 0.393373 -0.436072 -1.832246 0
M  V30 10 N -0.449384 0.631923 -1.709418 0
M  V30 11 C -1.632999 0.700408 -2.347403 0
M  V30 12 N -2.442431 1.854391 -2.163472 0
M  V30 13 C -1.998388 2.932678 -1.343019 0
M  V30 14 C -3.048508 3.452520 -0.402734 0
M  V30 15 C -4.442674 3.405027 -0.919308 0
M  V30 16 C -4.734101 2.108750 -1.646267 0 CFG=2
M  V30 17 N -4.562056 1.047866 -0.678709 0
M  V30 18 C -3.742683 2.002457 -2.786697 0
M  V30 19 N -1.985120 -0.332439 -3.133225 0
M  V30 20 C -1.190558 -1.429578 -3.300110 0
M  V30 21 C 0.019786 -1.488211 -2.641495 0
M  V30 22 C 0.944223 -2.604123 -2.741971 0
M  V30 23 N 0.611894 -3.715005 -3.558671 0
M  V30 24 O 2.017223 -2.543442 -2.093599 0
M  V30 25 C 0.604848 -1.641865 0.728674 0
M  V30 26 C 0.628827 -2.211870 1.977498 0
M  V30 27 C -0.574355 -2.969048 2.344176 0
M  V30 28 C -0.525949 -3.583170 3.703539 0
M  V30 29 C -0.872005 -4.087852 1.360559 0
M  V30 30 C -1.782568 -2.055769 2.300053 0
M  V30 31 C 1.759604 -2.021333 2.749615 0
M  V30 32 H 2.727073 0.280888 4.191943 0
M  V30 33 H 4.312967 0.032566 4.999268 0
M  V30 34 H 4.173269 1.065786 3.490832 0
M  V30 35 H 5.361633 -2.329461 4.372553 0
M  V30 36 H 4.054766 -3.251445 3.526739 0
M  V30 37 H 3.700731 -2.179946 4.979583 0
M  V30 38 H 5.244439 0.125237 1.852169 0
M  V30 39 H 6.162895 -0.976143 3.020951 0
M  V30 40 H 5.356020 -1.628380 1.523980 0
M  V30 41 H 3.595896 -0.164984 0.679806 0
M  V30 42 H 2.435320 0.152977 -1.443504 0
M  V30 43 H -1.126444 2.624965 -0.735423 0
M  V30 44 H -1.728247 3.785380 -2.033773 0
M  V30 45 H -2.818125 4.542990 -0.217493 0
M  V30 46 H -2.957900 2.949137 0.584884 0
M  V30 47 H -5.124009 3.402550 -0.017828 0
M  V30 48 H -4.732391 4.288869 -1.523667 0
M  V30 49 H -5.758044 2.077870 -2.023935 0
M  V30 50 H -4.432225 1.376502 0.299049 0
M  V30 51 H -3.869540 0.330331 -0.985404 0
M  V30 52 H -3.749772 2.997342 -3.315496 0
M  V30 53 H -3.969726 1.189054 -3.498981 0
M  V30 54 H -1.471103 -2.252444 -3.926523 0
M  V30 55 H -0.371470 -4.053378 -3.371227 0
M  V30 56 H 1.181555 -4.224460 -4.290405 0
M  V30 57 H -0.254932 -1.742248 0.047721 0
M  V30 58 H -0.511624 -2.885253 4.548084 0
M  V30 59 H -1.466521 -4.173276 3.825416 0
M  V30 60 H 0.290576 -4.355189 3.800085 0
M  V30 61 H -0.142985 -4.901841 1.384620 0
M  V30 62 H -1.868406 -4.502081 1.668024 0
M  V30 63 H -1.035730 -3.649109 0.356013 0
M  V30 64 H -1.568106 -1.112639 2.830491 0
M  V30 65 H -1.963617 -1.881759 1.203850 0
M  V30 66 H -2.686411 -2.581960 2.675401 0
M  V30 67 H 1.736000 -2.489954 3.730743 0
M  V30 END ATOM
M  V30 BEGIN BOND
M  V30 1 1 1 2
M  V30 2 1 2 3
M  V30 3 1 2 4
M  V30 4 1 2 5
M  V30 5 2 5 6
M  V30 6 1 6 7
M  V30 7 1 7 8
M  V30 8 1 8 9
M  V30 9 2 9 10
M  V30 10 1 10 11
M  V30 11 1 11 12
M  V30 12 1 12 13
M  V30 13 1 13 14
M  V30 14 1 14 15
M  V30 15 1 15 16
M  V30 16 1 16 17
M  V30 17 1 16 18
M  V30 18 2 11 19
M  V30 19 1 19 20
M  V30 20 2 20 21
M  V30 21 1 21 22
M  V30 22 1 22 23
M  V30 23 2 22 24
M  V30 24 2 7 25
M  V30 25 1 25 26
M  V30 26 1 26 27
M  V30 27 1 27 28
M  V30 28 1 27 29
M  V30 29 1 27 30
M  V30 30 2 26 31
M  V30 31 1 31 5
M  V30 32 1 21 9
M  V30 33 1 18 12
M  V30 34 1 1 32
M  V30 35 1 1 33
M  V30 36 1 1 34
M  V30 37 1 3 35
M  V30 38 1 3 36
M  V30 39 1 3 37
M  V30 40 1 4 38
M  V30 41 1 4 39
M  V30 42 1 4 40
M  V30 43 1 6 41
M  V30 44 1 8 42
M  V30 45 1 13 43
M  V30 46 1 13 44
M  V30 47 1 14 45
M  V30 48 1 14 46
M  V30 49 1 15 47
M  V30 50 1 15 48
M  V30 51 1 16 49 CFG=3
M  V30 52 1 17 50
M  V30 53 1 17 51
M  V30 54 1 18 52
M  V30 55 1 18 53
M  V30 56 1 20 54
M  V30 57 1 23 55
M  V30 58 1 23 56
M  V30 59 1 25 57
M  V30 60 1 28 58
M  V30 61 1 28 59
M  V30 62 1 28 60
M  V30 63 1 29 61
M  V30 64 1 29 62
M  V30 65 1 29 63
M  V30 66 1 30 64
M  V30 67 1 30 65
M  V30 68 1 30 66
M  V30 69 1 31 67
M  V30 END BOND
M  V30 END CTAB
M  END
>  <Dataset>  (139) 
ChEMBL_Kinases

>  <Ligand_Instance>  (139) 
nan

>  <PDB_ID>  (139) 
nan

>  <Standardized_SMILES>  (139) 
CC(C)(C)c1cc(Nc2nc(N3CCC[C@H](N)C3)ncc2C(N)=O)cc(C(C)(C)C)c1

>  <Name>  (139) 
nan

>  <Pocket>  (139) 
nan

>  <ATP_Site>  (139) 
nan

>  <Peripheral>  (139) 
nan

>  <Num_H_Atoms_ProtBoundConf>  (139) 
nan

>  <Num_Resolved_Atoms>  (139) 
nan

>  <Num_Not_Resolved_Atoms>  (139) 
nan

$$$$
CHEMBL450678
     RDKit          3D

  0  0  0  0  0  0  0  0  0  0999 V3000
M  V30 BEGIN CTAB
M  V30 COUNTS 31 32 0 0 0
M  V30 BEGIN ATOM
M  V30 1 C -2.146699 -4.892089 3.875205 0
M  V30 2 C -1.255545 -3.968101 3.124901 0
M  V30 3 C 0.091649 -4.240587 3.131196 0
M  V30 4 C 0.943916 -3.378550 2.428417 0
M  V30 5 C 0.467852 -2.281346 1.742320 0
M  V30 6 C 1.431165 -1.470443 1.059600 0
M  V30 7 O 2.634575 -1.911126 1.199954 0
M  V30 8 C 1.477165 -0.292170 0.248392 0
M  V30 9 C 0.607163 0.561759 -0.218832 0
M  V30 10 C 0.789235 1.739933 -1.048162 0
M  V30 11 C -0.284931 2.511123 -1.431651 0
M  V30 12 C -0.135664 3.622973 -2.211290 0
M  V30 13 C 1.097476 4.033073 -2.656185 0
M  V30 14 C 2.204347 3.296071 -2.300422 0
M  V30 15 C 2.008919 2.182833 -1.513670 0
M  V30 16 C -0.895236 -2.112320 1.808835 0
M  V30 17 C -1.816154 -2.895006 2.466565 0
M  V30 18 H -2.878645 -5.398944 3.192331 0
M  V30 19 H -1.596945 -5.669086 4.404297 0
M  V30 20 H -2.783106 -4.249302 4.530093 0
M  V30 21 H 0.462413 -5.099100 3.668278 0
M  V30 22 H 1.978416 -3.679654 2.496030 0
M  V30 23 H 2.444463 0.075517 -0.132046 0
M  V30 24 H -0.398171 0.347818 0.061652 0
M  V30 25 H -1.275770 2.230193 -1.107371 0
M  V30 26 H -1.025302 4.187544 -2.478249 0
M  V30 27 H 1.122137 4.921170 -3.266301 0
M  V30 28 H 3.181293 3.607604 -2.643760 0
M  V30 29 H 2.914935 1.653483 -1.272967 0
M  V30 30 H -1.335827 -1.277103 1.297011 0
M  V30 31 H -2.874487 -2.680478 2.461293 0
M  V30 END ATOM
M  V30 BEGIN BOND
M  V30 1 1 1 2
M  V30 2 2 2 3
M  V30 3 1 3 4
M  V30 4 2 4 5
M  V30 5 1 5 6
M  V30 6 2 6 7
M  V30 7 1 6 8
M  V30 8 2 8 9
M  V30 9 1 9 10
M  V30 10 2 10 11
M  V30 11 1 11 12
M  V30 12 2 12 13
M  V30 13 1 13 14
M  V30 14 2 14 15
M  V30 15 1 5 16
M  V30 16 2 16 17
M  V30 17 1 17 2
M  V30 18 1 15 10
M  V30 19 1 1 18
M  V30 20 1 1 19
M  V30 21 1 1 20
M  V30 22 1 3 21
M  V30 23 1 4 22
M  V30 24 1 8 23
M  V30 25 1 9 24
M  V30 26 1 11 25
M  V30 27 1 12 26
M  V30 28 1 13 27
M  V30 29 1 14 28
M  V30 30 1 15 29
M  V30 31 1 16 30
M  V30 32 1 17 31
M  V30 END BOND
M  V30 END CTAB
M  END
>  <Dataset>  (140) 
ChEMBL_Kinases

>  <Ligand_Instance>  (140) 
nan

>  <PDB_ID>  (140) 
nan

>  <Standardized_SMILES>  (140) 
Cc1ccc(C(=O)/C=C/c2ccccc2)cc1

>  <Name>  (140) 
nan

>  <Pocket>  (140) 
nan

>  <ATP_Site>  (140) 
nan

>  <Peripheral>  (140) 
nan

>  <Num_H_Atoms_ProtBoundConf>  (140) 
nan

>  <Num_Resolved_Atoms>  (140) 
nan

>  <Num_Not_Resolved_Atoms>  (140) 
nan

$$$$
CHEMBL4483670
     RDKit          3D

  0  0  0  0  0  0  0  0  0  0999 V3000
M  V30 BEGIN CTAB
M  V30 COUNTS 35 38 0 0 0
M  V30 BEGIN ATOM
M  V30 1 C -1.218062 -2.189943 5.220985 0
M  V30 2 C -0.827187 -1.831474 3.969058 0
M  V30 3 C -1.255469 -0.713284 3.315830 0
M  V30 4 C -0.883878 -0.267883 1.985464 0
M  V30 5 C -0.018782 -0.994494 1.251635 0
M  V30 6 C 0.351058 -0.583145 -0.029822 0
M  V30 7 N 1.263045 -1.323414 -0.834263 0
M  V30 8 C 1.981185 -1.502635 -2.028745 0
M  V30 9 C 2.925668 -2.683671 -2.169134 0
M  V30 10 O 3.807850 -1.830880 -2.838369 0
M  V30 11 C 3.229752 -0.678568 -2.255909 0
M  V30 12 C -0.211905 0.587844 -0.487466 0
M  V30 13 C 0.052716 1.120883 -1.717770 0
M  V30 14 C -0.490446 2.288077 -2.204823 0
M  V30 15 N -1.359201 2.973666 -1.409943 0
M  V30 16 C -1.681360 2.515593 -0.165857 0
M  V30 17 C -1.093537 1.337802 0.247603 0
M  V30 18 N -1.381678 0.855669 1.462287 0
M  V30 19 C -2.146100 0.070837 4.022914 0
M  V30 20 C -2.533842 -0.303986 5.290576 0
M  V30 21 N -2.089140 -1.417594 5.905247 0
M  V30 22 H -0.849920 -3.089710 5.700201 0
M  V30 23 H -0.141313 -2.478512 3.482413 0
M  V30 24 H 0.388929 -1.890233 1.647308 0
M  V30 25 H 1.582972 -2.166071 -0.309060 0
M  V30 26 H 1.350750 -1.491089 -2.948513 0
M  V30 27 H 2.575060 -3.470993 -2.862935 0
M  V30 28 H 3.371723 -3.042809 -1.231792 0
M  V30 29 H 3.795553 -0.413410 -1.353943 0
M  V30 30 H 3.112275 0.084833 -3.028916 0
M  V30 31 H 0.722239 0.638659 -2.385650 0
M  V30 32 H -0.272570 2.695408 -3.175983 0
M  V30 33 H -2.372245 3.045557 0.486724 0
M  V30 34 H -2.558976 0.975132 3.625932 0
M  V30 35 H -3.231001 0.302381 5.854008 0
M  V30 END ATOM
M  V30 BEGIN BOND
M  V30 1 2 1 2
M  V30 2 1 2 3
M  V30 3 1 3 4
M  V30 4 2 4 5
M  V30 5 1 5 6
M  V30 6 1 6 7
M  V30 7 1 7 8
M  V30 8 1 8 9
M  V30 9 1 9 10
M  V30 10 1 10 11
M  V30 11 2 6 12
M  V30 12 1 12 13
M  V30 13 2 13 14
M  V30 14 1 14 15
M  V30 15 2 15 16
M  V30 16 1 16 17
M  V30 17 2 17 18
M  V30 18 2 3 19
M  V30 19 1 19 20
M  V30 20 2 20 21
M  V30 21 1 21 1
M  V30 22 1 18 4
M  V30 23 1 11 8
M  V30 24 1 17 12
M  V30 25 1 1 22
M  V30 26 1 2 23
M  V30 27 1 5 24
M  V30 28 1 7 25
M  V30 29 1 8 26
M  V30 30 1 9 27
M  V30 31 1 9 28
M  V30 32 1 11 29
M  V30 33 1 11 30
M  V30 34 1 13 31
M  V30 35 1 14 32
M  V30 36 1 16 33
M  V30 37 1 19 34
M  V30 38 1 20 35
M  V30 END BOND
M  V30 END CTAB
M  END
>  <Dataset>  (141) 
ChEMBL_Kinases

>  <Ligand_Instance>  (141) 
nan

>  <PDB_ID>  (141) 
nan

>  <Standardized_SMILES>  (141) 
c1cc(-c2cc(NC3COC3)c3ccncc3n2)ccn1

>  <Name>  (141) 
nan

>  <Pocket>  (141) 
nan

>  <ATP_Site>  (141) 
nan

>  <Peripheral>  (141) 
nan

>  <Num_H_Atoms_ProtBoundConf>  (141) 
nan

>  <Num_Resolved_Atoms>  (141) 
nan

>  <Num_Not_Resolved_Atoms>  (141) 
nan

$$$$
CHEMBL450347
     RDKit          3D

  0  0  0  0  0  0  0  0  0  0999 V3000
M  V30 BEGIN CTAB
M  V30 COUNTS 39 42 0 0 0
M  V30 BEGIN ATOM
M  V30 1 N 1.186038 -4.562547 5.627515 0
M  V30 2 C 1.421305 -3.909616 4.696823 0
M  V30 3 C 1.712261 -3.113268 3.522969 0
M  V30 4 C 2.193931 -3.653718 2.344655 0
M  V30 5 C 2.456429 -2.846828 1.249344 0
M  V30 6 C 2.223849 -1.492612 1.368604 0
M  V30 7 C 2.500752 -0.641064 0.218268 0
M  V30 8 C 3.676136 -0.814144 -0.480129 0
M  V30 9 N 3.700623 0.091687 -1.498163 0
M  V30 10 C 2.553675 0.782602 -1.392752 0
M  V30 11 C 1.975789 1.817173 -2.096908 0
M  V30 12 C 0.752892 2.353416 -1.763383 0
M  V30 13 C 0.021931 1.865960 -0.672717 0
M  V30 14 N -1.236747 2.370429 -0.273236 0
M  V30 15 C -2.067623 1.929189 0.817879 0
M  V30 16 C -2.511899 0.525700 0.719271 0
M  V30 17 C -1.893998 -0.587675 1.242140 0
M  V30 18 C -2.388611 -1.859186 1.088785 0
M  V30 19 C -3.563081 -2.077418 0.381345 0
M  V30 20 N -4.194051 -0.999870 -0.145105 0
M  V30 21 C -3.691132 0.242551 0.016938 0
M  V30 22 N 0.654487 0.860703 -0.042178 0
M  V30 23 N 1.810615 0.356456 -0.360415 0
M  V30 24 C 1.746271 -0.969108 2.541956 0
M  V30 25 C 1.476563 -1.761287 3.652202 0
M  V30 26 H 2.352323 -4.723395 2.324050 0
M  V30 27 H 2.832913 -3.321161 0.349739 0
M  V30 28 H 4.536805 -1.473943 -0.403160 0
M  V30 29 H 2.480510 2.246385 -2.952187 0
M  V30 30 H 0.319369 3.172661 -2.339161 0
M  V30 31 H -1.568913 3.176600 -0.887019 0
M  V30 32 H -2.987807 2.547506 0.823255 0
M  V30 33 H -1.573332 2.147523 1.791912 0
M  V30 34 H -0.995701 -0.424296 1.788163 0
M  V30 35 H -1.827850 -2.685634 1.540637 0
M  V30 36 H -3.893621 -3.104199 0.300397 0
M  V30 37 H -4.289638 1.025037 -0.453062 0
M  V30 38 H 1.582265 0.107135 2.576022 0
M  V30 39 H 1.103237 -1.238546 4.522815 0
M  V30 END ATOM
M  V30 BEGIN BOND
M  V30 1 3 1 2
M  V30 2 1 2 3
M  V30 3 2 3 4
M  V30 4 1 4 5
M  V30 5 2 5 6
M  V30 6 1 6 7
M  V30 7 2 7 8
M  V30 8 1 8 9
M  V30 9 2 9 10
M  V30 10 1 10 11
M  V30 11 2 11 12
M  V30 12 1 12 13
M  V30 13 1 13 14
M  V30 14 1 14 15
M  V30 15 1 15 16
M  V30 16 2 16 17
M  V30 17 1 17 18
M  V30 18 2 18 19
M  V30 19 1 19 20
M  V30 20 2 20 21
M  V30 21 2 13 22
M  V30 22 1 22 23
M  V30 23 1 6 24
M  V30 24 2 24 25
M  V30 25 1 25 3
M  V30 26 1 23 7
M  V30 27 1 23 10
M  V30 28 1 21 16
M  V30 29 1 4 26
M  V30 30 1 5 27
M  V30 31 1 8 28
M  V30 32 1 11 29
M  V30 33 1 12 30
M  V30 34 1 14 31
M  V30 35 1 15 32
M  V30 36 1 15 33
M  V30 37 1 17 34
M  V30 38 1 18 35
M  V30 39 1 19 36
M  V30 40 1 21 37
M  V30 41 1 24 38
M  V30 42 1 25 39
M  V30 END BOND
M  V30 END CTAB
M  END
>  <Dataset>  (142) 
ChEMBL_Kinases

>  <Ligand_Instance>  (142) 
nan

>  <PDB_ID>  (142) 
nan

>  <Standardized_SMILES>  (142) 
N#Cc1ccc(-c2cnc3ccc(NCc4cccnc4)nn23)cc1

>  <Name>  (142) 
nan

>  <Pocket>  (142) 
nan

>  <ATP_Site>  (142) 
nan

>  <Peripheral>  (142) 
nan

>  <Num_H_Atoms_ProtBoundConf>  (142) 
nan

>  <Num_Resolved_Atoms>  (142) 
nan

>  <Num_Not_Resolved_Atoms>  (142) 
nan

$$$$
CHEMBL450161
     RDKit          3D

  0  0  0  0  0  0  0  0  0  0999 V3000
M  V30 BEGIN CTAB
M  V30 COUNTS 40 43 0 0 0
M  V30 BEGIN ATOM
M  V30 1 C 3.287405 -4.878205 4.160755 0
M  V30 2 C 2.613181 -3.766894 3.425661 0
M  V30 3 O 2.123151 -2.840427 4.117666 0
M  V30 4 N 2.574605 -3.838741 1.986612 0
M  V30 5 C 1.897640 -2.706717 1.418052 0
M  V30 6 N 2.309913 -1.491263 1.004438 0
M  V30 7 C 1.269874 -0.791175 0.545242 0
M  V30 8 C 1.467563 0.560583 0.038978 0
M  V30 9 C 2.322663 0.640759 -1.054379 0
M  V30 10 C 2.625104 1.855607 -1.665882 0
M  V30 11 C 2.039881 2.995724 -1.144088 0
M  V30 12 C 1.190838 2.897233 -0.054900 0
M  V30 13 C 0.551130 4.115278 0.520569 0
M  V30 14 N 0.927113 1.701788 0.504214 0
M  V30 15 C 0.174558 -1.617452 0.685568 0
M  V30 16 C -1.157832 -1.181901 0.282622 0
M  V30 17 C -1.907310 -1.797333 -0.714012 0
M  V30 18 C -3.165175 -1.343271 -1.053379 0
M  V30 19 C -3.705753 -0.256537 -0.399688 0
M  V30 20 N -4.890878 0.353128 -0.556077 0
M  V30 21 C -4.910429 1.366857 0.341397 0
M  V30 22 N -3.760758 1.345165 1.004050 0
M  V30 23 N -2.999514 0.352060 0.565107 0
M  V30 24 C -1.772514 -0.092738 0.894410 0
M  V30 25 N 0.565619 -2.792281 1.221877 0
M  V30 26 H 3.596051 -4.571548 5.177692 0
M  V30 27 H 4.149662 -5.288614 3.611324 0
M  V30 28 H 2.535010 -5.699197 4.257174 0
M  V30 29 H 3.010333 -4.653132 1.468059 0
M  V30 30 H 2.815789 -0.204944 -1.515549 0
M  V30 31 H 3.291754 1.926874 -2.519762 0
M  V30 32 H 2.220796 3.990831 -1.561010 0
M  V30 33 H 1.171046 4.573193 1.308104 0
M  V30 34 H -0.449428 3.840296 0.958572 0
M  V30 35 H 0.343255 4.851679 -0.282605 0
M  V30 36 H -1.448253 -2.650410 -1.206504 0
M  V30 37 H -3.745369 -1.834188 -1.837852 0
M  V30 38 H -5.562051 2.177476 0.681737 0
M  V30 39 H -1.287519 0.462414 1.680612 0
M  V30 40 H -0.107670 -3.558422 1.411022 0
M  V30 END ATOM
M  V30 BEGIN BOND
M  V30 1 1 1 2
M  V30 2 2 2 3
M  V30 3 1 2 4
M  V30 4 1 4 5
M  V30 5 2 5 6
M  V30 6 1 6 7
M  V30 7 1 7 8
M  V30 8 2 8 9
M  V30 9 1 9 10
M  V30 10 2 10 11
M  V30 11 1 11 12
M  V30 12 1 12 13
M  V30 13 2 12 14
M  V30 14 2 7 15
M  V30 15 1 15 16
M  V30 16 1 16 17
M  V30 17 2 17 18
M  V30 18 1 18 19
M  V30 19 2 19 20
M  V30 20 1 20 21
M  V30 21 2 21 22
M  V30 22 1 22 23
M  V30 23 1 23 24
M  V30 24 1 15 25
M  V30 25 1 25 5
M  V30 26 1 14 8
M  V30 27 2 24 16
M  V30 28 1 23 19
M  V30 29 1 1 26
M  V30 30 1 1 27
M  V30 31 1 1 28
M  V30 32 1 4 29
M  V30 33 1 9 30
M  V30 34 1 10 31
M  V30 35 1 11 32
M  V30 36 1 13 33
M  V30 37 1 13 34
M  V30 38 1 13 35
M  V30 39 1 17 36
M  V30 40 1 18 37
M  V30 41 1 21 38
M  V30 42 1 24 39
M  V30 43 1 25 40
M  V30 END BOND
M  V30 END CTAB
M  END
>  <Dataset>  (143) 
ChEMBL_Kinases

>  <Ligand_Instance>  (143) 
nan

>  <PDB_ID>  (143) 
nan

>  <Standardized_SMILES>  (143) 
CC(=O)Nc1nc(-c2cccc(C)n2)c(-c2ccc3ncnn3c2)[nH]1

>  <Name>  (143) 
nan

>  <Pocket>  (143) 
nan

>  <ATP_Site>  (143) 
nan

>  <Peripheral>  (143) 
nan

>  <Num_H_Atoms_ProtBoundConf>  (143) 
nan

>  <Num_Resolved_Atoms>  (143) 
nan

>  <Num_Not_Resolved_Atoms>  (143) 
nan

$$$$
CHEMBL449964
     RDKit          3D

  0  0  0  0  0  0  0  0  0  0999 V3000
M  V30 BEGIN CTAB
M  V30 COUNTS 42 46 0 0 0
M  V30 BEGIN ATOM
M  V30 1 Cl 4.985949 -3.948377 1.743531 0
M  V30 2 C 3.498181 -3.009482 1.714696 0
M  V30 3 C 2.438924 -3.518888 2.429933 0
M  V30 4 C 1.201534 -2.879504 2.494404 0
M  V30 5 C 1.056903 -1.693313 1.807722 0
M  V30 6 C 2.107701 -1.168877 1.086161 0
M  V30 7 C 3.319794 -1.822446 1.040080 0
M  V30 8 C 1.794381 0.108863 0.402605 0
M  V30 9 C 1.619362 -0.219689 -1.058274 0
M  V30 10 C 1.482878 1.013107 -1.912828 0
M  V30 11 N 2.474270 2.017706 -1.584403 0
M  V30 12 C 2.534935 2.350287 -0.193457 0
M  V30 13 C 2.882830 1.127654 0.629778 0
M  V30 14 C 0.489242 0.503235 1.031561 0
M  V30 15 N 0.023225 -0.740945 1.602892 0
M  V30 16 C -1.337038 -1.051028 1.957720 0
M  V30 17 N -1.481474 -1.336535 3.272263 0
M  V30 18 C -2.736476 -1.644148 3.708615 0
M  V30 19 N -3.858612 -1.691683 2.948662 0
M  V30 20 C -3.676209 -1.402282 1.648277 0
M  V30 21 N -4.504748 -1.335801 0.573690 0
M  V30 22 C -3.823716 -0.994062 -0.546764 0
M  V30 23 C -2.473966 -0.821079 -0.218106 0
M  V30 24 C -2.437872 -1.082358 1.134833 0
M  V30 25 H 2.515104 -4.442822 2.978470 0
M  V30 26 H 0.359303 -3.263732 3.050105 0
M  V30 27 H 4.206547 -1.483163 0.495760 0
M  V30 28 H 2.479546 -0.853151 -1.382461 0
M  V30 29 H 0.700109 -0.828890 -1.164768 0
M  V30 30 H 1.653315 0.721195 -2.970059 0
M  V30 31 H 0.436989 1.395032 -1.860570 0
M  V30 32 H 2.159211 2.890739 -2.103592 0
M  V30 33 H 1.580012 2.730416 0.232374 0
M  V30 34 H 3.275502 3.154652 -0.082870 0
M  V30 35 H 2.903299 1.421735 1.677495 0
M  V30 36 H 3.839568 0.667165 0.282420 0
M  V30 37 H 0.692596 1.199546 1.894833 0
M  V30 38 H -0.220156 0.955804 0.315383 0
M  V30 39 H -2.878956 -1.878472 4.766226 0
M  V30 40 H -5.548505 -1.526282 0.606201 0
M  V30 41 H -4.209142 -0.864872 -1.543349 0
M  V30 42 H -1.659449 -0.547803 -0.873479 0
M  V30 END ATOM
M  V30 BEGIN BOND
M  V30 1 1 1 2
M  V30 2 2 2 3
M  V30 3 1 3 4
M  V30 4 2 4 5
M  V30 5 1 5 6
M  V30 6 2 6 7
M  V30 7 1 6 8
M  V30 8 1 8 9
M  V30 9 1 9 10
M  V30 10 1 10 11
M  V30 11 1 11 12
M  V30 12 1 12 13
M  V30 13 1 8 14
M  V30 14 1 14 15
M  V30 15 1 15 16
M  V30 16 2 16 17
M  V30 17 1 17 18
M  V30 18 2 18 19
M  V30 19 1 19 20
M  V30 20 1 20 21
M  V30 21 1 21 22
M  V30 22 2 22 23
M  V30 23 1 23 24
M  V30 24 1 7 2
M  V30 25 1 13 8
M  V30 26 1 24 16
M  V30 27 1 15 5
M  V30 28 2 24 20
M  V30 29 1 3 25
M  V30 30 1 4 26
M  V30 31 1 7 27
M  V30 32 1 9 28
M  V30 33 1 9 29
M  V30 34 1 10 30
M  V30 35 1 10 31
M  V30 36 1 11 32
M  V30 37 1 12 33
M  V30 38 1 12 34
M  V30 39 1 13 35
M  V30 40 1 13 36
M  V30 41 1 14 37
M  V30 42 1 14 38
M  V30 43 1 18 39
M  V30 44 1 21 40
M  V30 45 1 22 41
M  V30 46 1 23 42
M  V30 END BOND
M  V30 END CTAB
M  END
>  <Dataset>  (144) 
ChEMBL_Kinases

>  <Ligand_Instance>  (144) 
nan

>  <PDB_ID>  (144) 
nan

>  <Standardized_SMILES>  (144) 
Clc1ccc2c(c1)C1(CCNCC1)CN2c1ncnc2[nH]ccc12

>  <Name>  (144) 
nan

>  <Pocket>  (144) 
nan

>  <ATP_Site>  (144) 
nan

>  <Peripheral>  (144) 
nan

>  <Num_H_Atoms_ProtBoundConf>  (144) 
nan

>  <Num_Resolved_Atoms>  (144) 
nan

>  <Num_Not_Resolved_Atoms>  (144) 
nan

$$$$
CHEMBL449692
     RDKit          3D

  0  0  0  0  0  0  0  0  0  0999 V3000
M  V30 BEGIN CTAB
M  V30 COUNTS 47 50 0 0 0
M  V30 BEGIN ATOM
M  V30 1 C -1.939578 -2.973707 2.345244 0
M  V30 2 C -2.639834 -2.350762 1.154051 0 CFG=1
M  V30 3 N -1.904252 -1.114934 0.848415 0
M  V30 4 C -1.837447 -0.125833 1.868501 0
M  V30 5 C -0.851697 -0.021267 2.848697 0
M  V30 6 N 0.362634 -0.574781 3.393531 0
M  V30 7 C 1.633961 -0.104277 2.896770 0
M  V30 8 C 2.819637 -0.620946 3.404404 0
M  V30 9 C 3.984874 -0.110606 2.868705 0
M  V30 10 N 4.001191 0.832906 1.909672 0
M  V30 11 C 2.875722 1.359316 1.391255 0
M  V30 12 C 2.902723 2.382882 0.350660 0
M  V30 13 C 1.790349 2.954628 -0.214019 0
M  V30 14 C 1.864274 3.920809 -1.197032 0
M  V30 15 C 3.109998 4.356336 -1.657998 0
M  V30 16 C 4.229902 3.770031 -1.078633 0
M  V30 17 F 5.499429 4.124668 -1.457756 0
M  V30 18 C 4.136975 2.805653 -0.097173 0
M  V30 19 C 1.709116 0.852009 1.923893 0
M  V30 20 C -1.474662 1.107295 3.389368 0
M  V30 21 O -1.379864 1.970150 4.311787 0
M  V30 22 C -2.451040 0.997566 2.412511 0
M  V30 23 O -3.511494 1.561815 2.015218 0
M  V30 24 C -2.537399 -3.301370 0.018163 0
M  V30 25 C -2.725867 -2.800522 -1.256840 0
M  V30 26 C -2.648420 -3.613827 -2.371016 0
M  V30 27 C -2.375370 -4.978883 -2.248046 0
M  V30 28 C -2.187642 -5.477104 -0.976300 0
M  V30 29 C -2.269124 -4.650899 0.116454 0
M  V30 30 H -1.875899 -2.244746 3.196065 0
M  V30 31 H -0.898146 -3.229892 2.084026 0
M  V30 32 H -2.542452 -3.848206 2.692595 0
M  V30 33 H -3.680803 -2.113615 1.398453 0
M  V30 34 H -1.416609 -0.885428 -0.058988 0
M  V30 35 H 0.368762 -1.306586 4.137234 0
M  V30 36 H 2.805923 -1.380015 4.175968 0
M  V30 37 H 4.915166 -0.506352 3.257206 0
M  V30 38 H 0.826884 2.641403 0.118495 0
M  V30 39 H 0.977814 4.361256 -1.631612 0
M  V30 40 H 3.239084 5.108714 -2.424526 0
M  V30 41 H 5.040419 2.366685 0.335657 0
M  V30 42 H 0.764117 1.213458 1.570449 0
M  V30 43 H -2.943102 -1.757069 -1.469316 0
M  V30 44 H -2.784130 -3.292017 -3.393787 0
M  V30 45 H -2.299119 -5.672494 -3.056326 0
M  V30 46 H -1.972811 -6.528702 -0.819044 0
M  V30 47 H -2.122107 -5.047009 1.096562 0
M  V30 END ATOM
M  V30 BEGIN BOND
M  V30 1 1 1 2
M  V30 2 1 2 3
M  V30 3 1 3 4
M  V30 4 2 4 5
M  V30 5 1 5 6
M  V30 6 1 6 7
M  V30 7 2 7 8
M  V30 8 1 8 9
M  V30 9 2 9 10
M  V30 10 1 10 11
M  V30 11 1 11 12
M  V30 12 2 12 13
M  V30 13 1 13 14
M  V30 14 2 14 15
M  V30 15 1 15 16
M  V30 16 1 16 17
M  V30 17 2 16 18
M  V30 18 2 11 19
M  V30 19 1 5 20
M  V30 20 2 20 21
M  V30 21 1 20 22
M  V30 22 2 22 23
M  V30 23 1 2 24
M  V30 24 2 24 25
M  V30 25 1 25 26
M  V30 26 2 26 27
M  V30 27 1 27 28
M  V30 28 2 28 29
M  V30 29 1 22 4
M  V30 30 1 29 24
M  V30 31 1 19 7
M  V30 32 1 18 12
M  V30 33 1 1 30
M  V30 34 1 1 31
M  V30 35 1 1 32
M  V30 36 1 2 33 CFG=1
M  V30 37 1 3 34
M  V30 38 1 6 35
M  V30 39 1 8 36
M  V30 40 1 9 37
M  V30 41 1 13 38
M  V30 42 1 14 39
M  V30 43 1 15 40
M  V30 44 1 18 41
M  V30 45 1 19 42
M  V30 46 1 25 43
M  V30 47 1 26 44
M  V30 48 1 27 45
M  V30 49 1 28 46
M  V30 50 1 29 47
M  V30 END BOND
M  V30 END CTAB
M  END
>  <Dataset>  (145) 
ChEMBL_Kinases

>  <Ligand_Instance>  (145) 
nan

>  <PDB_ID>  (145) 
nan

>  <Standardized_SMILES>  (145) 
C[C@@H](Nc1c(Nc2ccnc(-c3cccc(F)c3)c2)c(=O)c1=O)c1ccccc1

>  <Name>  (145) 
nan

>  <Pocket>  (145) 
nan

>  <ATP_Site>  (145) 
nan

>  <Peripheral>  (145) 
nan

>  <Num_H_Atoms_ProtBoundConf>  (145) 
nan

>  <Num_Resolved_Atoms>  (145) 
nan

>  <Num_Not_Resolved_Atoms>  (145) 
nan

$$$$
CHEMBL449372
     RDKit          3D

  0  0  0  0  0  0  0  0  0  0999 V3000
M  V30 BEGIN CTAB
M  V30 COUNTS 40 42 0 0 0
M  V30 BEGIN ATOM
M  V30 1 C -1.662646 -3.894255 -0.110569 0
M  V30 2 C -1.228113 -2.483441 0.105185 0
M  V30 3 C 0.221960 -2.249871 -0.237997 0
M  V30 4 C 1.157504 -3.085165 0.570730 0
M  V30 5 C 0.951459 -2.741097 2.038987 0
M  V30 6 C 0.436291 -2.567408 -1.684327 0
M  V30 7 N 1.788014 -2.205257 -2.077514 0
M  V30 8 C 2.129205 -0.818219 -1.877655 0
M  V30 9 O 2.964784 -0.218472 -2.607266 0
M  V30 10 C 1.464907 -0.114693 -0.783158 0
M  V30 11 C 1.550536 1.194673 -0.315012 0
M  V30 12 C 0.671408 1.240074 0.746941 0
M  V30 13 C 0.414310 2.423447 1.566439 0
M  V30 14 C 1.062383 3.614749 1.316490 0
M  V30 15 C 0.727466 4.666717 2.171111 0
M  V30 16 N -0.154513 4.547447 3.164674 0
M  V30 17 C -0.775255 3.376942 3.391273 0
M  V30 18 N -1.736456 3.077930 4.400524 0
M  V30 19 N -0.463748 2.371559 2.584670 0
M  V30 20 N 0.074287 0.047338 0.935930 0
M  V30 21 C 0.551272 -0.818100 -0.006029 0
M  V30 22 H -1.455809 -4.211884 -1.134959 0
M  V30 23 H -1.318467 -4.587683 0.682583 0
M  V30 24 H -2.788356 -3.890575 -0.023784 0
M  V30 25 H -1.509515 -2.173041 1.125482 0
M  V30 26 H -1.845865 -1.852561 -0.586129 0
M  V30 27 H 1.106654 -4.152978 0.377757 0
M  V30 28 H 2.198833 -2.770970 0.344504 0
M  V30 29 H 1.707514 -3.324415 2.598837 0
M  V30 30 H 1.149492 -1.669479 2.210317 0
M  V30 31 H -0.085016 -2.947142 2.361239 0
M  V30 32 H -0.339205 -2.208186 -2.365861 0
M  V30 33 H 0.414006 -3.693303 -1.764362 0
M  V30 34 H 2.549555 -2.823072 -2.488807 0
M  V30 35 H 2.183006 1.972911 -0.726238 0
M  V30 36 H 1.776548 3.724428 0.517658 0
M  V30 37 H 1.195260 5.645415 2.042371 0
M  V30 38 H -2.572256 2.489215 4.169279 0
M  V30 39 H -1.680459 3.405745 5.388767 0
M  V30 40 H -0.627497 -0.145770 1.683744 0
M  V30 END ATOM
M  V30 BEGIN BOND
M  V30 1 1 1 2
M  V30 2 1 2 3
M  V30 3 1 3 4
M  V30 4 1 4 5
M  V30 5 1 3 6
M  V30 6 1 6 7
M  V30 7 1 7 8
M  V30 8 2 8 9
M  V30 9 1 8 10
M  V30 10 1 10 11
M  V30 11 2 11 12
M  V30 12 1 12 13
M  V30 13 2 13 14
M  V30 14 1 14 15
M  V30 15 2 15 16
M  V30 16 1 16 17
M  V30 17 1 17 18
M  V30 18 2 17 19
M  V30 19 1 12 20
M  V30 20 1 20 21
M  V30 21 1 21 3
M  V30 22 2 21 10
M  V30 23 1 19 13
M  V30 24 1 1 22
M  V30 25 1 1 23
M  V30 26 1 1 24
M  V30 27 1 2 25
M  V30 28 1 2 26
M  V30 29 1 4 27
M  V30 30 1 4 28
M  V30 31 1 5 29
M  V30 32 1 5 30
M  V30 33 1 5 31
M  V30 34 1 6 32
M  V30 35 1 6 33
M  V30 36 1 7 34
M  V30 37 1 11 35
M  V30 38 1 14 36
M  V30 39 1 15 37
M  V30 40 1 18 38
M  V30 41 1 18 39
M  V30 42 1 20 40
M  V30 END BOND
M  V30 END CTAB
M  END
>  <Dataset>  (146) 
ChEMBL_Kinases

>  <Ligand_Instance>  (146) 
nan

>  <PDB_ID>  (146) 
nan

>  <Standardized_SMILES>  (146) 
CCC1(CC)CNC(=O)c2cc(-c3ccnc(N)n3)[nH]c21

>  <Name>  (146) 
nan

>  <Pocket>  (146) 
nan

>  <ATP_Site>  (146) 
nan

>  <Peripheral>  (146) 
nan

>  <Num_H_Atoms_ProtBoundConf>  (146) 
nan

>  <Num_Resolved_Atoms>  (146) 
nan

>  <Num_Not_Resolved_Atoms>  (146) 
nan

$$$$
CHEMBL4649108
     RDKit          3D

  0  0  0  0  0  0  0  0  0  0999 V3000
M  V30 BEGIN CTAB
M  V30 COUNTS 66 69 0 0 0
M  V30 BEGIN ATOM
M  V30 1 C 3.057695 -4.805337 4.094403 0
M  V30 2 C 3.039173 -5.019455 2.593984 0
M  V30 3 O 2.723640 -3.802703 1.989543 0
M  V30 4 C 3.424867 -2.644483 2.087576 0
M  V30 5 O 4.285562 -3.170626 2.834467 0
M  V30 6 C 3.394401 -1.273569 1.626455 0
M  V30 7 C 4.432956 -0.504272 2.081163 0
M  V30 8 N 4.551304 0.770746 1.755391 0
M  V30 9 C 3.643559 1.354744 0.958301 0
M  V30 10 C 3.772407 2.683261 0.612707 0
M  V30 11 C 2.814377 3.232141 -0.217340 0
M  V30 12 C 1.748357 2.508293 -0.705588 0
M  V30 13 C 0.765545 3.143790 -1.572459 0
M  V30 14 C 0.839801 4.462500 -1.957023 0
M  V30 15 C -0.096319 5.079299 -2.781401 0
M  V30 16 C -1.152090 4.343041 -3.239949 0
M  V30 17 N -2.125933 4.970395 -4.092532 0
M  V30 18 C -1.282912 3.017904 -2.890815 0
M  V30 19 C -0.314122 2.442326 -2.058250 0
M  V30 20 N 1.710219 1.242457 -0.318649 0
M  V30 21 C 2.584265 0.617712 0.479163 0
M  V30 22 C 2.445197 -0.705466 0.806610 0
M  V30 23 N 1.395243 -1.532452 0.328386 0
M  V30 24 C 0.197999 -1.335337 -0.483881 0 CFG=1
M  V30 25 C -0.412462 -2.608502 -0.975460 0
M  V30 26 C -1.885544 -2.734255 -0.818528 0
M  V30 27 C -2.338284 -2.665665 0.613637 0 CFG=2
M  V30 28 C -3.825796 -2.404070 0.675629 0
M  V30 29 N -4.326735 -2.327113 2.009572 0
M  V30 30 C -4.316958 -3.539341 2.761324 0
M  V30 31 C -5.570714 -1.637144 2.161614 0
M  V30 32 C -1.557194 -1.568137 1.288983 0
M  V30 33 C -0.881865 -0.629008 0.313584 0
M  V30 34 H 2.524809 -5.630935 4.626610 0
M  V30 35 H 4.104297 -4.818343 4.490419 0
M  V30 36 H 2.535714 -3.871155 4.403928 0
M  V30 37 H 2.171880 -5.708228 2.402951 0
M  V30 38 H 3.979050 -5.474830 2.230245 0
M  V30 39 H 5.210711 -0.882933 2.724835 0
M  V30 40 H 4.627041 3.210799 1.021247 0
M  V30 41 H 3.000657 4.267380 -0.428553 0
M  V30 42 H 1.636538 5.096307 -1.637616 0
M  V30 43 H -0.005428 6.120167 -3.063795 0
M  V30 44 H -1.927824 4.565732 -5.054606 0
M  V30 45 H -2.872766 5.656331 -3.906167 0
M  V30 46 H -2.139540 2.490896 -3.286012 0
M  V30 47 H -0.494858 1.421112 -1.840407 0
M  V30 48 H 1.422894 -2.542903 0.585393 0
M  V30 49 H 0.479538 -0.684051 -1.318933 0
M  V30 50 H 0.062747 -3.532654 -0.553064 0
M  V30 51 H -0.193421 -2.680962 -2.082313 0
M  V30 52 H -2.394952 -1.902086 -1.365012 0
M  V30 53 H -2.254723 -3.653265 -1.331468 0
M  V30 54 H -2.177673 -3.603470 1.167083 0
M  V30 55 H -4.401983 -3.090441 0.038250 0
M  V30 56 H -3.983363 -1.389568 0.223627 0
M  V30 57 H -3.436621 -3.591176 3.467264 0
M  V30 58 H -4.392066 -4.463226 2.170207 0
M  V30 59 H -5.197208 -3.540904 3.439129 0
M  V30 60 H -6.294780 -2.267246 2.679695 0
M  V30 61 H -5.426873 -0.658587 2.692673 0
M  V30 62 H -5.974416 -1.399549 1.137551 0
M  V30 63 H -2.304008 -0.971157 1.886204 0
M  V30 64 H -0.875945 -1.990390 2.024506 0
M  V30 65 H -1.645849 -0.297455 -0.414480 0
M  V30 66 H -0.544436 0.280815 0.827230 0
M  V30 END ATOM
M  V30 BEGIN BOND
M  V30 1 1 1 2
M  V30 2 1 2 3
M  V30 3 1 3 4
M  V30 4 2 4 5
M  V30 5 1 4 6
M  V30 6 2 6 7
M  V30 7 1 7 8
M  V30 8 2 8 9
M  V30 9 1 9 10
M  V30 10 2 10 11
M  V30 11 1 11 12
M  V30 12 1 12 13
M  V30 13 2 13 14
M  V30 14 1 14 15
M  V30 15 2 15 16
M  V30 16 1 16 17
M  V30 17 1 16 18
M  V30 18 2 18 19
M  V30 19 2 12 20
M  V30 20 1 20 21
M  V30 21 2 21 22
M  V30 22 1 22 23
M  V30 23 1 23 24
M  V30 24 1 24 25
M  V30 25 1 25 26
M  V30 26 1 26 27
M  V30 27 1 27 28
M  V30 28 1 28 29
M  V30 29 1 29 30
M  V30 30 1 29 31
M  V30 31 1 27 32
M  V30 32 1 32 33
M  V30 33 1 22 6
M  V30 34 1 33 24
M  V30 35 1 21 9
M  V30 36 1 19 13
M  V30 37 1 1 34
M  V30 38 1 1 35
M  V30 39 1 1 36
M  V30 40 1 2 37
M  V30 41 1 2 38
M  V30 42 1 7 39
M  V30 43 1 10 40
M  V30 44 1 11 41
M  V30 45 1 14 42
M  V30 46 1 15 43
M  V30 47 1 17 44
M  V30 48 1 17 45
M  V30 49 1 18 46
M  V30 50 1 19 47
M  V30 51 1 23 48
M  V30 52 1 24 49 CFG=3
M  V30 53 1 25 50
M  V30 54 1 25 51
M  V30 55 1 26 52
M  V30 56 1 26 53
M  V30 57 1 27 54 CFG=1
M  V30 58 1 28 55
M  V30 59 1 28 56
M  V30 60 1 30 57
M  V30 61 1 30 58
M  V30 62 1 30 59
M  V30 63 1 31 60
M  V30 64 1 31 61
M  V30 65 1 31 62
M  V30 66 1 32 63
M  V30 67 1 32 64
M  V30 68 1 33 65
M  V30 69 1 33 66
M  V30 END BOND
M  V30 END CTAB
M  END
>  <Dataset>  (147) 
ChEMBL_Kinases

>  <Ligand_Instance>  (147) 
nan

>  <PDB_ID>  (147) 
nan

>  <Standardized_SMILES>  (147) 
CCOC(=O)c1cnc2ccc(-c3ccc(N)cc3)nc2c1N[C@H]1CC[C@H](CN(C)C)CC1

>  <Name>  (147) 
nan

>  <Pocket>  (147) 
nan

>  <ATP_Site>  (147) 
nan

>  <Peripheral>  (147) 
nan

>  <Num_H_Atoms_ProtBoundConf>  (147) 
nan

>  <Num_Resolved_Atoms>  (147) 
nan

>  <Num_Not_Resolved_Atoms>  (147) 
nan

$$$$
CHEMBL4649268
     RDKit          3D

  0  0  0  0  0  0  0  0  0  0999 V3000
M  V30 BEGIN CTAB
M  V30 COUNTS 70 74 0 0 0
M  V30 BEGIN ATOM
M  V30 1 C 1.999566 -6.045275 3.669050 0
M  V30 2 C 3.161394 -5.109790 3.908812 0
M  V30 3 O 2.796131 -3.864750 3.376713 0
M  V30 4 C 3.583848 -2.748040 3.389920 0
M  V30 5 O 4.468950 -3.416118 3.977402 0
M  V30 6 C 3.551102 -1.365297 2.963581 0
M  V30 7 C 4.729455 -0.731713 3.283672 0
M  V30 8 N 4.905423 0.564298 2.971688 0
M  V30 9 C 3.921421 1.234940 2.346612 0
M  V30 10 C 4.083926 2.587381 2.038622 0
M  V30 11 C 3.034556 3.239575 1.419230 0
M  V30 12 C 1.857668 2.595014 1.107186 0
M  V30 13 C 0.799667 3.384476 0.503163 0
M  V30 14 C -0.451425 2.896433 0.197754 0
M  V30 15 C -1.470567 3.608560 -0.388111 0
M  V30 16 Cl -3.034108 2.936807 -0.749455 0
M  V30 17 C -1.262865 4.930727 -0.713885 0
M  V30 18 O -2.254594 5.688543 -1.303786 0
M  V30 19 C -0.011917 5.481356 -0.426821 0
M  V30 20 Cl 0.238966 7.160702 -0.845386 0
M  V30 21 C 0.950444 4.701985 0.158543 0
M  V30 22 N 1.753341 1.296446 1.421711 0
M  V30 23 C 2.740738 0.598379 2.026919 0
M  V30 24 C 2.521708 -0.728391 2.327001 0
M  V30 25 N 1.350409 -1.468133 2.046804 0
M  V30 26 C 0.174477 -1.087334 1.304550 0 CFG=1
M  V30 27 C 0.527226 -0.985713 -0.146168 0
M  V30 28 C -0.002318 -2.112295 -1.000660 0
M  V30 29 C -1.505755 -2.212408 -0.940470 0 CFG=2
M  V30 30 C -2.202777 -1.425700 -2.029997 0
M  V30 31 N -3.632351 -1.535171 -1.946220 0
M  V30 32 C -4.150203 -2.839589 -2.242910 0
M  V30 33 C -5.090424 -2.828600 -3.428404 0
M  V30 34 O -4.534763 -1.962416 -4.385030 0
M  V30 35 C -4.790744 -0.680209 -3.969741 0
M  V30 36 C -4.337376 -0.462789 -2.574098 0
M  V30 37 C -2.030547 -1.855201 0.435087 0
M  V30 38 C -0.971998 -2.010100 1.495821 0
M  V30 39 H 2.177506 -6.535822 2.685155 0
M  V30 40 H 1.067549 -5.459612 3.541234 0
M  V30 41 H 1.901385 -6.805675 4.458526 0
M  V30 42 H 3.365362 -5.069702 4.999659 0
M  V30 43 H 4.058494 -5.559020 3.441665 0
M  V30 44 H 5.590113 -1.151666 3.781914 0
M  V30 45 H 5.039348 3.015997 2.317761 0
M  V30 46 H 3.305191 4.269933 1.246375 0
M  V30 47 H -0.714278 1.887277 0.422683 0
M  V30 48 H -3.243895 5.524478 -1.153472 0
M  V30 49 H 1.859575 5.233436 0.326241 0
M  V30 50 H 1.270054 -2.433300 2.402252 0
M  V30 51 H -0.131428 -0.088720 1.685300 0
M  V30 52 H 1.639415 -0.948165 -0.231679 0
M  V30 53 H 0.162619 -0.024834 -0.544761 0
M  V30 54 H 0.417312 -3.062854 -0.622467 0
M  V30 55 H 0.310921 -1.957265 -2.029817 0
M  V30 56 H -1.762271 -3.278646 -1.104241 0
M  V30 57 H -1.930038 -1.873554 -3.031270 0
M  V30 58 H -1.851676 -0.381321 -2.103539 0
M  V30 59 H -4.668678 -3.311097 -1.383226 0
M  V30 60 H -3.302096 -3.503598 -2.511040 0
M  V30 61 H -6.052948 -2.370738 -3.119524 0
M  V30 62 H -5.233627 -3.803807 -3.892160 0
M  V30 63 H -4.280714 0.008849 -4.705762 0
M  V30 64 H -5.884861 -0.420721 -4.088427 0
M  V30 65 H -5.217441 -0.156520 -1.957890 0
M  V30 66 H -3.690985 0.461638 -2.581083 0
M  V30 67 H -2.375356 -0.813195 0.400618 0
M  V30 68 H -2.895313 -2.484749 0.730017 0
M  V30 69 H -0.585794 -3.059455 1.479029 0
M  V30 70 H -1.477358 -1.912483 2.481732 0
M  V30 END ATOM
M  V30 BEGIN BOND
M  V30 1 1 1 2
M  V30 2 1 2 3
M  V30 3 1 3 4
M  V30 4 2 4 5
M  V30 5 1 4 6
M  V30 6 2 6 7
M  V30 7 1 7 8
M  V30 8 2 8 9
M  V30 9 1 9 10
M  V30 10 2 10 11
M  V30 11 1 11 12
M  V30 12 1 12 13
M  V30 13 2 13 14
M  V30 14 1 14 15
M  V30 15 1 15 16
M  V30 16 2 15 17
M  V30 17 1 17 18
M  V30 18 1 17 19
M  V30 19 1 19 20
M  V30 20 2 19 21
M  V30 21 2 12 22
M  V30 22 1 22 23
M  V30 23 2 23 24
M  V30 24 1 24 25
M  V30 25 1 25 26
M  V30 26 1 26 27
M  V30 27 1 27 28
M  V30 28 1 28 29
M  V30 29 1 29 30
M  V30 30 1 30 31
M  V30 31 1 31 32
M  V30 32 1 32 33
M  V30 33 1 33 34
M  V30 34 1 34 35
M  V30 35 1 35 36
M  V30 36 1 29 37
M  V30 37 1 37 38
M  V30 38 1 24 6
M  V30 39 1 38 26
M  V30 40 1 23 9
M  V30 41 1 36 31
M  V30 42 1 21 13
M  V30 43 1 1 39
M  V30 44 1 1 40
M  V30 45 1 1 41
M  V30 46 1 2 42
M  V30 47 1 2 43
M  V30 48 1 7 44
M  V30 49 1 10 45
M  V30 50 1 11 46
M  V30 51 1 14 47
M  V30 52 1 18 48
M  V30 53 1 21 49
M  V30 54 1 25 50
M  V30 55 1 26 51 CFG=1
M  V30 56 1 27 52
M  V30 57 1 27 53
M  V30 58 1 28 54
M  V30 59 1 28 55
M  V30 60 1 29 56 CFG=3
M  V30 61 1 30 57
M  V30 62 1 30 58
M  V30 63 1 32 59
M  V30 64 1 32 60
M  V30 65 1 33 61
M  V30 66 1 33 62
M  V30 67 1 35 63
M  V30 68 1 35 64
M  V30 69 1 36 65
M  V30 70 1 36 66
M  V30 71 1 37 67
M  V30 72 1 37 68
M  V30 73 1 38 69
M  V30 74 1 38 70
M  V30 END BOND
M  V30 END CTAB
M  END
>  <Dataset>  (148) 
ChEMBL_Kinases

>  <Ligand_Instance>  (148) 
nan

>  <PDB_ID>  (148) 
nan

>  <Standardized_SMILES>  (148) 
CCOC(=O)c1cnc2ccc(-c3cc(Cl)c(O)c(Cl)c3)nc2c1N[C@H]1CC[C@H](CN2CCOCC2)CC1

>  <Name>  (148) 
nan

>  <Pocket>  (148) 
nan

>  <ATP_Site>  (148) 
nan

>  <Peripheral>  (148) 
nan

>  <Num_H_Atoms_ProtBoundConf>  (148) 
nan

>  <Num_Resolved_Atoms>  (148) 
nan

>  <Num_Not_Resolved_Atoms>  (148) 
nan

$$$$
CHEMBL449148
     RDKit          3D

  0  0  0  0  0  0  0  0  0  0999 V3000
M  V30 BEGIN CTAB
M  V30 COUNTS 30 32 0 0 0
M  V30 BEGIN ATOM
M  V30 1 C -2.329924 -0.817438 3.219729 0
M  V30 2 C -1.123503 -0.254836 3.924489 0
M  V30 3 C 0.143980 -0.939534 3.456828 0
M  V30 4 C 0.333167 -0.661999 2.011985 0
M  V30 5 N 0.921375 -1.374391 1.035542 0
M  V30 6 C 0.866036 -0.730169 -0.160671 0
M  V30 7 C 1.399671 -1.201786 -1.436273 0
M  V30 8 C 1.262209 -0.422191 -2.576589 0
M  V30 9 C 1.786069 -0.917591 -3.756450 0
M  V30 10 N 2.416274 -2.107282 -3.850620 0
M  V30 11 C 2.528385 -2.831955 -2.722277 0
M  V30 12 C 2.035965 -2.425888 -1.480205 0
M  V30 13 C 0.205049 0.472382 0.039440 0
M  V30 14 C -0.107762 0.481927 1.382847 0
M  V30 15 C -0.807502 1.482046 2.203687 0
M  V30 16 O -1.257592 2.570081 1.739320 0
M  V30 17 N -0.967317 1.170744 3.595502 0
M  V30 18 H -2.080121 -1.287121 2.245703 0
M  V30 19 H -2.845341 -1.576109 3.832767 0
M  V30 20 H -3.054207 -0.009103 2.979725 0
M  V30 21 H -1.239947 -0.398251 5.009373 0
M  V30 22 H 0.972467 -0.434212 4.032370 0
M  V30 23 H 0.099925 -2.030412 3.652701 0
M  V30 24 H 1.360173 -2.304032 1.195772 0
M  V30 25 H 0.768067 0.528478 -2.542553 0
M  V30 26 H 1.711577 -0.350644 -4.696939 0
M  V30 27 H 3.034358 -3.805331 -2.757270 0
M  V30 28 H 2.168891 -3.069619 -0.623333 0
M  V30 29 H -0.033881 1.255258 -0.665260 0
M  V30 30 H -0.963666 1.971837 4.293564 0
M  V30 END ATOM
M  V30 BEGIN BOND
M  V30 1 1 1 2
M  V30 2 1 2 3
M  V30 3 1 3 4
M  V30 4 1 4 5
M  V30 5 1 5 6
M  V30 6 1 6 7
M  V30 7 2 7 8
M  V30 8 1 8 9
M  V30 9 2 9 10
M  V30 10 1 10 11
M  V30 11 2 11 12
M  V30 12 2 6 13
M  V30 13 1 13 14
M  V30 14 1 14 15
M  V30 15 2 15 16
M  V30 16 1 15 17
M  V30 17 1 17 2
M  V30 18 2 14 4
M  V30 19 1 12 7
M  V30 20 1 1 18
M  V30 21 1 1 19
M  V30 22 1 1 20
M  V30 23 1 2 21
M  V30 24 1 3 22
M  V30 25 1 3 23
M  V30 26 1 5 24
M  V30 27 1 8 25
M  V30 28 1 9 26
M  V30 29 1 11 27
M  V30 30 1 12 28
M  V30 31 1 13 29
M  V30 32 1 17 30
M  V30 END BOND
M  V30 END CTAB
M  END
>  <Dataset>  (149) 
ChEMBL_Kinases

>  <Ligand_Instance>  (149) 
nan

>  <PDB_ID>  (149) 
nan

>  <Standardized_SMILES>  (149) 
CC1Cc2[nH]c(-c3ccncc3)cc2C(=O)N1

>  <Name>  (149) 
nan

>  <Pocket>  (149) 
nan

>  <ATP_Site>  (149) 
nan

>  <Peripheral>  (149) 
nan

>  <Num_H_Atoms_ProtBoundConf>  (149) 
nan

>  <Num_Resolved_Atoms>  (149) 
nan

>  <Num_Not_Resolved_Atoms>  (149) 
nan

$$$$
CHEMBL44889
     RDKit          3D

  0  0  0  0  0  0  0  0  0  0999 V3000
M  V30 BEGIN CTAB
M  V30 COUNTS 31 33 0 0 0
M  V30 BEGIN ATOM
M  V30 1 C -1.858130 -1.652280 4.907491 0
M  V30 2 O -0.489315 -1.279542 4.822907 0
M  V30 3 C 0.072252 -0.997111 3.585140 0
M  V30 4 C 1.418804 -0.643939 3.627282 0
M  V30 5 C 2.049867 -0.346154 2.418415 0
M  V30 6 C 1.343262 -0.406402 1.234513 0
M  V30 7 C 1.683636 -0.174135 -0.083075 0
M  V30 8 C 2.873158 0.209225 -0.708776 0
M  V30 9 C 2.948427 0.376477 -2.076608 0
M  V30 10 N 1.852537 0.162077 -2.789277 0
M  V30 11 C 0.659682 -0.212815 -2.250426 0
M  V30 12 C -0.513347 -0.427290 -3.152786 0
M  V30 13 C 0.558942 -0.386396 -0.886657 0
M  V30 14 N -0.461769 -0.744242 -0.081377 0
M  V30 15 C -1.825464 -1.061385 -0.500544 0
M  V30 16 C 0.007890 -0.756187 1.188477 0
M  V30 17 C -0.611589 -1.050154 2.390449 0
M  V30 18 H -2.015928 -2.408158 4.093652 0
M  V30 19 H -2.089459 -2.152165 5.864756 0
M  V30 20 H -2.540341 -0.814743 4.659033 0
M  V30 21 H 2.036394 -0.575620 4.516531 0
M  V30 22 H 3.094554 -0.059430 2.332758 0
M  V30 23 H 3.737323 0.370370 -0.073253 0
M  V30 24 H 3.873965 0.675504 -2.570503 0
M  V30 25 H -1.172340 0.462171 -3.194469 0
M  V30 26 H -0.123429 -0.547866 -4.204757 0
M  V30 27 H -1.037889 -1.378244 -2.948592 0
M  V30 28 H -1.940181 -2.098234 -0.844399 0
M  V30 29 H -2.245332 -0.292250 -1.181106 0
M  V30 30 H -2.477448 -0.987140 0.419260 0
M  V30 31 H -1.654096 -1.328253 2.401406 0
M  V30 END ATOM
M  V30 BEGIN BOND
M  V30 1 1 1 2
M  V30 2 1 2 3
M  V30 3 2 3 4
M  V30 4 1 4 5
M  V30 5 2 5 6
M  V30 6 1 6 7
M  V30 7 2 7 8
M  V30 8 1 8 9
M  V30 9 2 9 10
M  V30 10 1 10 11
M  V30 11 1 11 12
M  V30 12 2 11 13
M  V30 13 1 13 14
M  V30 14 1 14 15
M  V30 15 1 14 16
M  V30 16 2 16 17
M  V30 17 1 17 3
M  V30 18 1 16 6
M  V30 19 1 13 7
M  V30 20 1 1 18
M  V30 21 1 1 19
M  V30 22 1 1 20
M  V30 23 1 4 21
M  V30 24 1 5 22
M  V30 25 1 8 23
M  V30 26 1 9 24
M  V30 27 1 12 25
M  V30 28 1 12 26
M  V30 29 1 12 27
M  V30 30 1 15 28
M  V30 31 1 15 29
M  V30 32 1 15 30
M  V30 33 1 17 31
M  V30 END BOND
M  V30 END CTAB
M  END
>  <Dataset>  (150) 
ChEMBL_Kinases

>  <Ligand_Instance>  (150) 
nan

>  <PDB_ID>  (150) 
nan

>  <Standardized_SMILES>  (150) 
COc1ccc2c3ccnc(C)c3n(C)c2c1

>  <Name>  (150) 
nan

>  <Pocket>  (150) 
nan

>  <ATP_Site>  (150) 
nan

>  <Peripheral>  (150) 
nan

>  <Num_H_Atoms_ProtBoundConf>  (150) 
nan

>  <Num_Resolved_Atoms>  (150) 
nan

>  <Num_Not_Resolved_Atoms>  (150) 
nan

$$$$
CHEMBL4649363
     RDKit          3D

  0  0  0  0  0  0  0  0  0  0999 V3000
M  V30 BEGIN CTAB
M  V30 COUNTS 45 48 0 0 0
M  V30 BEGIN ATOM
M  V30 1 C -0.588503 -3.793632 4.263923 0
M  V30 2 C 0.662658 -3.371809 4.099378 0
M  V30 3 C 0.927046 -2.704257 2.833626 0
M  V30 4 O -0.070276 -2.630445 2.091116 0
M  V30 5 N 2.170203 -2.170621 2.422159 0
M  V30 6 C 2.488227 -1.526674 1.221832 0
M  V30 7 C 3.790402 -1.109894 1.069548 0
M  V30 8 C 4.235548 -0.481189 -0.065028 0
M  V30 9 C 3.393131 -0.229472 -1.126859 0
M  V30 10 C 2.080549 -0.623585 -1.030034 0
M  V30 11 C 1.035013 -0.483078 -2.068778 0
M  V30 12 C -0.149101 0.039327 -1.714936 0
M  V30 13 C -0.537082 0.503234 -0.390735 0
M  V30 14 C 0.374417 1.288255 0.331514 0
M  V30 15 N -0.154118 1.632205 1.541316 0
M  V30 16 C 0.521486 2.450315 2.552224 0
M  V30 17 C -1.377768 1.076833 1.589844 0
M  V30 18 C -2.353936 1.092037 2.568194 0
M  V30 19 C -3.536881 0.421359 2.349368 0
M  V30 20 C -3.751842 -0.268218 1.152641 0
M  V30 21 F -4.917785 -0.927074 0.943062 0
M  V30 22 C -2.794184 -0.302428 0.153009 0
M  V30 23 C -1.637785 0.381379 0.424176 0
M  V30 24 C -1.029145 0.087115 -2.874929 0
M  V30 25 O -2.203952 0.482217 -3.043337 0
M  V30 26 N -0.308186 -0.446537 -3.988075 0
M  V30 27 C 0.998541 -0.809778 -3.486423 0
M  V30 28 O 2.046507 -1.312213 -3.956653 0
M  V30 29 C 1.689929 -1.261201 0.156797 0
M  V30 30 H -1.209764 -3.551766 3.388371 0
M  V30 31 H -0.962479 -4.307183 5.134969 0
M  V30 32 H 1.383263 -3.543375 4.886831 0
M  V30 33 H 2.878589 -2.325079 3.172051 0
M  V30 34 H 4.519040 -1.273112 1.869827 0
M  V30 35 H 5.269814 -0.177925 -0.123236 0
M  V30 36 H 3.679266 0.260137 -2.046840 0
M  V30 37 H 1.378896 1.620141 0.043734 0
M  V30 38 H 0.588215 3.460747 2.120481 0
M  V30 39 H 1.546111 2.031125 2.709949 0
M  V30 40 H -0.009397 2.389064 3.505349 0
M  V30 41 H -2.147548 1.638434 3.479150 0
M  V30 42 H -4.312130 0.425591 3.107939 0
M  V30 43 H -2.935551 -0.829329 -0.772461 0
M  V30 44 H -0.495730 -0.619792 -4.999520 0
M  V30 45 H 0.655124 -1.572850 0.225611 0
M  V30 END ATOM
M  V30 BEGIN BOND
M  V30 1 2 1 2
M  V30 2 1 2 3
M  V30 3 2 3 4
M  V30 4 1 3 5
M  V30 5 1 5 6
M  V30 6 2 6 7
M  V30 7 1 7 8
M  V30 8 2 8 9
M  V30 9 1 9 10
M  V30 10 1 10 11
M  V30 11 2 11 12
M  V30 12 1 12 13
M  V30 13 2 13 14
M  V30 14 1 14 15
M  V30 15 1 15 16
M  V30 16 1 15 17
M  V30 17 2 17 18
M  V30 18 1 18 19
M  V30 19 2 19 20
M  V30 20 1 20 21
M  V30 21 1 20 22
M  V30 22 2 22 23
M  V30 23 1 12 24
M  V30 24 2 24 25
M  V30 25 1 24 26
M  V30 26 1 26 27
M  V30 27 2 27 28
M  V30 28 2 10 29
M  V30 29 1 29 6
M  V30 30 1 27 11
M  V30 31 1 23 13
M  V30 32 1 23 17
M  V30 33 1 1 30
M  V30 34 1 1 31
M  V30 35 1 2 32
M  V30 36 1 5 33
M  V30 37 1 7 34
M  V30 38 1 8 35
M  V30 39 1 9 36
M  V30 40 1 14 37
M  V30 41 1 16 38
M  V30 42 1 16 39
M  V30 43 1 16 40
M  V30 44 1 18 41
M  V30 45 1 19 42
M  V30 46 1 22 43
M  V30 47 1 26 44
M  V30 48 1 29 45
M  V30 END BOND
M  V30 END CTAB
M  END
>  <Dataset>  (151) 
ChEMBL_Kinases

>  <Ligand_Instance>  (151) 
nan

>  <PDB_ID>  (151) 
nan

>  <Standardized_SMILES>  (151) 
C=CC(=O)Nc1cccc(C2=C(c3cn(C)c4ccc(F)cc34)C(=O)NC2=O)c1

>  <Name>  (151) 
nan

>  <Pocket>  (151) 
nan

>  <ATP_Site>  (151) 
nan

>  <Peripheral>  (151) 
nan

>  <Num_H_Atoms_ProtBoundConf>  (151) 
nan

>  <Num_Resolved_Atoms>  (151) 
nan

>  <Num_Not_Resolved_Atoms>  (151) 
nan

$$$$
CHEMBL4483764
     RDKit          3D

  0  0  0  0  0  0  0  0  0  0999 V3000
M  V30 BEGIN CTAB
M  V30 COUNTS 39 42 0 0 0
M  V30 BEGIN ATOM
M  V30 1 C -0.324709 -2.917400 1.926325 0
M  V30 2 C -0.640507 -1.659995 2.667355 0
M  V30 3 N -1.340881 -0.632211 1.925372 0
M  V30 4 C -0.765596 -0.035005 0.776187 0
M  V30 5 C 0.480501 -0.389513 0.309294 0
M  V30 6 C 1.048603 0.182394 -0.806510 0
M  V30 7 C 2.363959 -0.173383 -1.322191 0
M  V30 8 C 3.196715 -1.118511 -0.762603 0
M  V30 9 C 4.440310 -1.451180 -1.254706 0
M  V30 10 N 4.890577 -0.813250 -2.366334 0
M  V30 11 C 4.101873 0.099328 -2.917797 0
M  V30 12 N 2.892903 0.410005 -2.423727 0
M  V30 13 N 0.378819 1.129956 -1.487298 0
M  V30 14 C -0.841433 1.528929 -1.093768 0
M  V30 15 C -1.497448 2.502002 -1.815947 0
M  V30 16 N -2.730994 2.900668 -1.412470 0
M  V30 17 C -3.320356 2.361502 -0.321617 0
M  V30 18 C -2.634822 1.390810 0.376235 0
M  V30 19 C -1.382585 0.937846 0.026047 0
M  V30 20 C 0.567366 -1.150444 3.436877 0
M  V30 21 C 0.115487 -2.052385 4.594135 0
M  V30 22 C -1.284729 -1.900789 4.040148 0
M  V30 23 H 0.749486 -3.153903 2.015916 0
M  V30 24 H -0.939307 -3.732324 2.414463 0
M  V30 25 H -0.556979 -2.874512 0.835405 0
M  V30 26 H -2.276293 -0.368938 2.285681 0
M  V30 27 H 1.070611 -1.127774 0.792707 0
M  V30 28 H 2.892935 -1.650518 0.112463 0
M  V30 29 H 5.056196 -2.200688 -0.778671 0
M  V30 30 H 4.345149 0.681055 -3.810202 0
M  V30 31 H -1.048267 2.959094 -2.704156 0
M  V30 32 H -4.305957 2.719838 -0.048239 0
M  V30 33 H -3.176444 1.015429 1.230831 0
M  V30 34 H 0.489842 -0.080865 3.738720 0
M  V30 35 H 1.543482 -1.498415 3.102960 0
M  V30 36 H 0.274484 -1.587697 5.585045 0
M  V30 37 H 0.462772 -3.083699 4.460637 0
M  V30 38 H -1.894646 -2.825427 4.037643 0
M  V30 39 H -1.813154 -0.980838 4.381903 0
M  V30 END ATOM
M  V30 BEGIN BOND
M  V30 1 1 1 2
M  V30 2 1 2 3
M  V30 3 1 3 4
M  V30 4 2 4 5
M  V30 5 1 5 6
M  V30 6 1 6 7
M  V30 7 2 7 8
M  V30 8 1 8 9
M  V30 9 2 9 10
M  V30 10 1 10 11
M  V30 11 2 11 12
M  V30 12 2 6 13
M  V30 13 1 13 14
M  V30 14 2 14 15
M  V30 15 1 15 16
M  V30 16 2 16 17
M  V30 17 1 17 18
M  V30 18 2 18 19
M  V30 19 1 2 20
M  V30 20 1 20 21
M  V30 21 1 21 22
M  V30 22 1 22 2
M  V30 23 1 19 4
M  V30 24 1 12 7
M  V30 25 1 19 14
M  V30 26 1 1 23
M  V30 27 1 1 24
M  V30 28 1 1 25
M  V30 29 1 3 26
M  V30 30 1 5 27
M  V30 31 1 8 28
M  V30 32 1 9 29
M  V30 33 1 11 30
M  V30 34 1 15 31
M  V30 35 1 17 32
M  V30 36 1 18 33
M  V30 37 1 20 34
M  V30 38 1 20 35
M  V30 39 1 21 36
M  V30 40 1 21 37
M  V30 41 1 22 38
M  V30 42 1 22 39
M  V30 END BOND
M  V30 END CTAB
M  END
>  <Dataset>  (152) 
ChEMBL_Kinases

>  <Ligand_Instance>  (152) 
nan

>  <PDB_ID>  (152) 
nan

>  <Standardized_SMILES>  (152) 
CC1(Nc2cc(-c3ccncn3)nc3cnccc23)CCC1

>  <Name>  (152) 
nan

>  <Pocket>  (152) 
nan

>  <ATP_Site>  (152) 
nan

>  <Peripheral>  (152) 
nan

>  <Num_H_Atoms_ProtBoundConf>  (152) 
nan

>  <Num_Resolved_Atoms>  (152) 
nan

>  <Num_Not_Resolved_Atoms>  (152) 
nan

$$$$
CHEMBL4483684
     RDKit          3D

  0  0  0  0  0  0  0  0  0  0999 V3000
M  V30 BEGIN CTAB
M  V30 COUNTS 41 44 0 0 0
M  V30 BEGIN ATOM
M  V30 1 C 2.832061 -6.461443 1.163864 0
M  V30 2 C 1.919290 -5.286509 1.138023 0
M  V30 3 C 0.754077 -5.414851 1.863819 0
M  V30 4 C -0.129095 -4.344696 1.870054 0
M  V30 5 C 0.148238 -3.173471 1.165910 0
M  V30 6 C 1.336980 -3.099200 0.451848 0
M  V30 7 C 1.633234 -1.858723 -0.294959 0
M  V30 8 C 2.373792 -1.954931 -1.452413 0
M  V30 9 N 2.640100 -0.802212 -2.131482 0
M  V30 10 C 2.196061 0.387671 -1.688143 0
M  V30 11 N 2.338839 1.639275 -2.192507 0
M  V30 12 C 1.700746 2.517950 -1.371356 0
M  V30 13 C 1.126959 1.851853 -0.310548 0
M  V30 14 N 0.369718 2.364013 0.781868 0
M  V30 15 C -1.031875 2.491089 0.718678 0
M  V30 16 O -1.587746 2.131158 -0.348334 0
M  V30 17 C -1.864791 3.000481 1.782959 0
M  V30 18 C -3.230241 3.066291 1.573926 0
M  V30 19 C -4.117846 3.536368 2.523432 0
M  V30 20 C -3.604441 3.956426 3.731769 0
M  V30 21 N -2.291057 3.903409 3.958783 0
M  V30 22 C -1.439007 3.434565 3.002678 0
M  V30 23 C 1.452100 0.528125 -0.535071 0
M  V30 24 C 1.180667 -0.631100 0.153600 0
M  V30 25 C 2.238916 -4.140771 0.421556 0
M  V30 26 H 2.250408 -7.406992 1.129392 0
M  V30 27 H 3.610731 -6.415895 0.378830 0
M  V30 28 H 3.352404 -6.433087 2.139344 0
M  V30 29 H 0.525348 -6.335438 2.423505 0
M  V30 30 H -1.057276 -4.416207 2.433840 0
M  V30 31 H -0.550362 -2.329361 1.172005 0
M  V30 32 H 2.739960 -2.907362 -1.824395 0
M  V30 33 H 2.856968 1.881043 -3.070758 0
M  V30 34 H 1.651750 3.598394 -1.532679 0
M  V30 35 H 0.866750 2.653109 1.652964 0
M  V30 36 H -3.674437 2.743980 0.633316 0
M  V30 37 H -5.177395 3.587591 2.361859 0
M  V30 38 H -4.189081 4.338632 4.541242 0
M  V30 39 H -0.363964 3.393171 3.193949 0
M  V30 40 H 0.598765 -0.579884 1.068496 0
M  V30 41 H 3.166582 -4.108510 -0.123785 0
M  V30 END ATOM
M  V30 BEGIN BOND
M  V30 1 1 1 2
M  V30 2 2 2 3
M  V30 3 1 3 4
M  V30 4 2 4 5
M  V30 5 1 5 6
M  V30 6 1 6 7
M  V30 7 2 7 8
M  V30 8 1 8 9
M  V30 9 2 9 10
M  V30 10 1 10 11
M  V30 11 1 11 12
M  V30 12 2 12 13
M  V30 13 1 13 14
M  V30 14 1 14 15
M  V30 15 2 15 16
M  V30 16 1 15 17
M  V30 17 2 17 18
M  V30 18 1 18 19
M  V30 19 2 19 20
M  V30 20 1 20 21
M  V30 21 2 21 22
M  V30 22 1 13 23
M  V30 23 2 23 24
M  V30 24 2 6 25
M  V30 25 1 25 2
M  V30 26 1 24 7
M  V30 27 1 23 10
M  V30 28 1 22 17
M  V30 29 1 1 26
M  V30 30 1 1 27
M  V30 31 1 1 28
M  V30 32 1 3 29
M  V30 33 1 4 30
M  V30 34 1 5 31
M  V30 35 1 8 32
M  V30 36 1 11 33
M  V30 37 1 12 34
M  V30 38 1 14 35
M  V30 39 1 18 36
M  V30 40 1 19 37
M  V30 41 1 20 38
M  V30 42 1 22 39
M  V30 43 1 24 40
M  V30 44 1 25 41
M  V30 END BOND
M  V30 END CTAB
M  END
>  <Dataset>  (153) 
ChEMBL_Kinases

>  <Ligand_Instance>  (153) 
nan

>  <PDB_ID>  (153) 
nan

>  <Standardized_SMILES>  (153) 
Cc1cccc(-c2cnc3[nH]cc(NC(=O)c4cccnc4)c3c2)c1

>  <Name>  (153) 
nan

>  <Pocket>  (153) 
nan

>  <ATP_Site>  (153) 
nan

>  <Peripheral>  (153) 
nan

>  <Num_H_Atoms_ProtBoundConf>  (153) 
nan

>  <Num_Resolved_Atoms>  (153) 
nan

>  <Num_Not_Resolved_Atoms>  (153) 
nan

$$$$
CHEMBL4648987
     RDKit          3D

  0  0  0  0  0  0  0  0  0  0999 V3000
M  V30 BEGIN CTAB
M  V30 COUNTS 69 73 0 0 0
M  V30 BEGIN ATOM
M  V30 1 C 2.037497 -7.257235 1.088033 0
M  V30 2 C 1.649367 -6.264385 2.172866 0
M  V30 3 O 2.046759 -5.022573 2.021272 0
M  V30 4 C 2.434374 -3.837246 1.876218 0
M  V30 5 O 3.013261 -4.943091 1.969929 0
M  V30 6 C 2.919089 -2.493993 1.709738 0
M  V30 7 C 4.311437 -2.408656 1.674288 0
M  V30 8 N 4.782018 -1.151587 1.555381 0
M  V30 9 C 3.977657 -0.082755 1.478466 0
M  V30 10 C 4.500899 1.193044 1.356124 0
M  V30 11 C 3.672728 2.305350 1.275387 0
M  V30 12 C 2.301169 2.178451 1.313962 0
M  V30 13 C 1.392437 3.314029 1.232546 0
M  V30 14 C 1.778777 4.622967 1.109094 0
M  V30 15 C 0.857264 5.660367 1.038374 0
M  V30 16 N -0.442359 5.397964 1.090159 0
M  V30 17 C -0.841501 4.130036 1.210218 0
M  V30 18 N -2.256865 3.868995 1.263629 0
M  V30 19 C 0.028392 3.062066 1.284633 0
M  V30 20 N 1.825962 0.921834 1.433410 0
M  V30 21 C 2.607546 -0.168167 1.512623 0
M  V30 22 C 2.055903 -1.424655 1.632374 0
M  V30 23 N 0.638974 -1.547477 1.635743 0
M  V30 24 C -0.386927 -2.556960 1.628093 0 CFG=1
M  V30 25 C -1.753009 -2.048386 2.056485 0
M  V30 26 C -2.753541 -2.128771 0.928928 0
M  V30 27 C -2.137398 -1.322101 -0.213834 0 CFG=2
M  V30 28 C -3.212250 -1.069037 -1.240745 0
M  V30 29 N -2.703328 -0.296053 -2.364872 0
M  V30 30 C -2.402919 1.043624 -1.937428 0
M  V30 31 C -3.407822 1.940388 -2.643118 0
M  V30 32 C -3.685903 1.195071 -3.934900 0
M  V30 33 C -3.632302 -0.242709 -3.447864 0
M  V30 34 C -1.057797 -2.207428 -0.787933 0
M  V30 35 C -0.475644 -3.154334 0.234111 0
M  V30 36 H 1.518580 -6.995868 0.136112 0
M  V30 37 H 3.112912 -7.415538 0.989798 0
M  V30 38 H 1.581429 -8.217925 1.403673 0
M  V30 39 H 1.892698 -6.781759 3.140946 0
M  V30 40 H 0.509824 -6.303824 2.170026 0
M  V30 41 H 4.963426 -3.262343 1.735288 0
M  V30 42 H 5.578038 1.268091 1.327676 0
M  V30 43 H 4.122855 3.283805 1.181223 0
M  V30 44 H 2.829135 4.850317 1.067043 0
M  V30 45 H 1.147653 6.698680 0.942025 0
M  V30 46 H -3.094315 4.028162 1.859459 0
M  V30 47 H -3.027245 4.092418 1.949980 0
M  V30 48 H -0.398801 2.074050 1.380639 0
M  V30 49 H 0.112435 -0.639659 1.643669 0
M  V30 50 H -0.099710 -3.358809 2.319700 0
M  V30 51 H -2.119287 -2.553515 2.972699 0
M  V30 52 H -1.627616 -0.976507 2.317949 0
M  V30 53 H -3.685231 -1.645733 1.289866 0
M  V30 54 H -2.889607 -3.180770 0.651233 0
M  V30 55 H -1.715136 -0.385757 0.135460 0
M  V30 56 H -3.675394 -2.020923 -1.581196 0
M  V30 57 H -4.017761 -0.482116 -0.753018 0
M  V30 58 H -1.375516 1.369042 -2.192690 0
M  V30 59 H -2.579822 1.146545 -0.855036 0
M  V30 60 H -4.348600 2.021545 -2.058194 0
M  V30 61 H -3.014555 2.933108 -2.896090 0
M  V30 62 H -4.648366 1.482127 -4.374155 0
M  V30 63 H -2.826401 1.332414 -4.632817 0
M  V30 64 H -3.324941 -0.858571 -4.323353 0
M  V30 65 H -4.636965 -0.597602 -3.147857 0
M  V30 66 H -1.530417 -2.839407 -1.582422 0
M  V30 67 H -0.327973 -1.587429 -1.302293 0
M  V30 68 H -1.023703 -4.116491 0.285078 0
M  V30 69 H 0.545269 -3.372123 -0.107488 0
M  V30 END ATOM
M  V30 BEGIN BOND
M  V30 1 1 1 2
M  V30 2 1 2 3
M  V30 3 1 3 4
M  V30 4 2 4 5
M  V30 5 1 4 6
M  V30 6 2 6 7
M  V30 7 1 7 8
M  V30 8 2 8 9
M  V30 9 1 9 10
M  V30 10 2 10 11
M  V30 11 1 11 12
M  V30 12 1 12 13
M  V30 13 2 13 14
M  V30 14 1 14 15
M  V30 15 2 15 16
M  V30 16 1 16 17
M  V30 17 1 17 18
M  V30 18 2 17 19
M  V30 19 2 12 20
M  V30 20 1 20 21
M  V30 21 2 21 22
M  V30 22 1 22 23
M  V30 23 1 23 24
M  V30 24 1 24 25
M  V30 25 1 25 26
M  V30 26 1 26 27
M  V30 27 1 27 28
M  V30 28 1 28 29
M  V30 29 1 29 30
M  V30 30 1 30 31
M  V30 31 1 31 32
M  V30 32 1 32 33
M  V30 33 1 27 34
M  V30 34 1 34 35
M  V30 35 1 22 6
M  V30 36 1 35 24
M  V30 37 1 21 9
M  V30 38 1 33 29
M  V30 39 1 19 13
M  V30 40 1 1 36
M  V30 41 1 1 37
M  V30 42 1 1 38
M  V30 43 1 2 39
M  V30 44 1 2 40
M  V30 45 1 7 41
M  V30 46 1 10 42
M  V30 47 1 11 43
M  V30 48 1 14 44
M  V30 49 1 15 45
M  V30 50 1 18 46
M  V30 51 1 18 47
M  V30 52 1 19 48
M  V30 53 1 23 49
M  V30 54 1 24 50 CFG=1
M  V30 55 1 25 51
M  V30 56 1 25 52
M  V30 57 1 26 53
M  V30 58 1 26 54
M  V30 59 1 27 55 CFG=1
M  V30 60 1 28 56
M  V30 61 1 28 57
M  V30 62 1 30 58
M  V30 63 1 30 59
M  V30 64 1 31 60
M  V30 65 1 31 61
M  V30 66 1 32 62
M  V30 67 1 32 63
M  V30 68 1 33 64
M  V30 69 1 33 65
M  V30 70 1 34 66
M  V30 71 1 34 67
M  V30 72 1 35 68
M  V30 73 1 35 69
M  V30 END BOND
M  V30 END CTAB
M  END
>  <Dataset>  (154) 
ChEMBL_Kinases

>  <Ligand_Instance>  (154) 
nan

>  <PDB_ID>  (154) 
nan

>  <Standardized_SMILES>  (154) 
CCOC(=O)c1cnc2ccc(-c3ccnc(N)c3)nc2c1N[C@H]1CC[C@H](CN2CCCC2)CC1

>  <Name>  (154) 
nan

>  <Pocket>  (154) 
nan

>  <ATP_Site>  (154) 
nan

>  <Peripheral>  (154) 
nan

>  <Num_H_Atoms_ProtBoundConf>  (154) 
nan

>  <Num_Resolved_Atoms>  (154) 
nan

>  <Num_Not_Resolved_Atoms>  (154) 
nan

$$$$
CHEMBL471252
     RDKit          3D

  0  0  0  0  0  0  0  0  0  0999 V3000
M  V30 BEGIN CTAB
M  V30 COUNTS 29 30 0 0 0
M  V30 BEGIN ATOM
M  V30 1 O -0.960057 -1.129562 2.913169 0
M  V30 2 C -0.414884 -0.594243 1.872393 0
M  V30 3 C 0.232110 -1.626043 1.137044 0
M  V30 4 C 0.934671 -1.740855 0.037016 0
M  V30 5 C 1.535882 -2.912348 -0.582511 0
M  V30 6 C 1.473892 -4.198608 -0.096666 0
M  V30 7 C 2.052664 -5.292605 -0.703221 0
M  V30 8 C 2.739738 -5.075722 -1.877792 0
M  V30 9 C 2.804448 -3.788080 -2.368448 0
M  V30 10 N 2.217763 -2.764677 -1.727942 0
M  V30 11 C -0.631667 0.835496 1.793786 0
M  V30 12 C -0.173902 1.672866 0.803577 0
M  V30 13 C -0.365699 3.031409 0.706013 0
M  V30 14 C -1.098366 3.581500 1.724181 0
M  V30 15 C -1.599556 2.832660 2.757968 0
M  V30 16 N -2.357722 3.423832 3.805022 0 CHG=1 VAL=4
M  V30 17 O -2.560849 4.652310 3.764794 0
M  V30 18 O -2.843718 2.640939 4.824462 0 CHG=-1 VAL=1
M  V30 19 C -1.349711 1.494486 2.755690 0
M  V30 20 H 0.195451 -2.654490 1.504625 0
M  V30 21 H 1.071051 -0.797159 -0.466181 0
M  V30 22 H 0.944844 -4.388502 0.814614 0
M  V30 23 H 1.967783 -6.269554 -0.273160 0
M  V30 24 H 3.216007 -5.909565 -2.396844 0
M  V30 25 H 3.334900 -3.576099 -3.288641 0
M  V30 26 H 0.405670 1.284097 -0.015746 0
M  V30 27 H 0.020620 3.636521 -0.099193 0
M  V30 28 H -1.305806 4.641842 1.741270 0
M  V30 29 H -1.762661 0.937757 3.589415 0
M  V30 END ATOM
M  V30 BEGIN BOND
M  V30 1 2 1 2
M  V30 2 1 2 3
M  V30 3 2 3 4
M  V30 4 1 4 5
M  V30 5 2 5 6
M  V30 6 1 6 7
M  V30 7 2 7 8
M  V30 8 1 8 9
M  V30 9 2 9 10
M  V30 10 1 2 11
M  V30 11 2 11 12
M  V30 12 1 12 13
M  V30 13 2 13 14
M  V30 14 1 14 15
M  V30 15 1 15 16
M  V30 16 2 16 17
M  V30 17 1 16 18
M  V30 18 2 15 19
M  V30 19 1 10 5
M  V30 20 1 19 11
M  V30 21 1 3 20
M  V30 22 1 4 21
M  V30 23 1 6 22
M  V30 24 1 7 23
M  V30 25 1 8 24
M  V30 26 1 9 25
M  V30 27 1 12 26
M  V30 28 1 13 27
M  V30 29 1 14 28
M  V30 30 1 19 29
M  V30 END BOND
M  V30 END CTAB
M  END
>  <Dataset>  (155) 
ChEMBL_Kinases

>  <Ligand_Instance>  (155) 
nan

>  <PDB_ID>  (155) 
nan

>  <Standardized_SMILES>  (155) 
O=C(/C=C/c1ccccn1)c1cccc([N+](=O)[O-])c1

>  <Name>  (155) 
nan

>  <Pocket>  (155) 
nan

>  <ATP_Site>  (155) 
nan

>  <Peripheral>  (155) 
nan

>  <Num_H_Atoms_ProtBoundConf>  (155) 
nan

>  <Num_Resolved_Atoms>  (155) 
nan

>  <Num_Not_Resolved_Atoms>  (155) 
nan

$$$$
CHEMBL471308
     RDKit          3D

  0  0  0  0  0  0  0  0  0  0999 V3000
M  V30 BEGIN CTAB
M  V30 COUNTS 54 55 0 0 0
M  V30 BEGIN ATOM
M  V30 1 C 0.558786 -0.809000 5.034757 0
M  V30 2 C 0.616428 -1.078024 3.565272 0
M  V30 3 C 2.050111 -1.189532 3.037410 0
M  V30 4 C 2.769437 0.091653 3.307066 0
M  V30 5 C 4.198131 0.079109 2.810477 0
M  V30 6 C 4.258000 -0.138972 1.310101 0
M  V30 7 C 3.513960 0.991645 0.676167 0
M  V30 8 O 4.111472 2.110685 0.707357 0
M  V30 9 O 2.243892 0.851428 0.083926 0
M  V30 10 C 1.630542 2.010497 -0.485578 0
M  V30 11 C 0.287421 1.569014 -1.029075 0
M  V30 12 C -0.512403 2.756454 -1.535107 0
M  V30 13 O 0.092603 3.354414 -2.626074 0
M  V30 14 C 0.387737 0.480251 -2.059612 0
M  V30 15 C -0.618075 -0.513257 -1.632009 0
M  V30 16 C -1.220561 -1.600547 -2.092043 0
M  V30 17 C -2.219521 -2.505227 -1.537475 0
M  V30 18 C -2.264957 -3.161545 -0.349692 0
M  V30 19 C -3.320352 -3.957622 0.034564 0
M  V30 20 C -4.377691 -4.092136 -0.831062 0
M  V30 21 C -5.542331 -4.943863 -0.447810 0
M  V30 22 F -5.422294 -5.451323 0.824970 0
M  V30 23 F -5.737343 -5.938797 -1.395450 0
M  V30 24 F -6.668145 -4.108954 -0.420739 0
M  V30 25 C -4.463182 -3.476014 -2.085182 0
M  V30 26 C -3.337211 -2.693931 -2.366885 0
M  V30 27 C -1.130479 -0.111986 -0.294826 0
M  V30 28 O -1.951898 -0.459856 0.562556 0
M  V30 29 O -0.423604 1.041176 0.078013 0
M  V30 30 H -0.375513 -1.258021 5.466708 0
M  V30 31 H 0.431868 0.294434 5.244311 0
M  V30 32 H 1.467629 -1.130920 5.561975 0
M  V30 33 H 0.076960 -2.039289 3.335919 0
M  V30 34 H 0.161906 -0.225534 3.032961 0
M  V30 35 H 2.498847 -2.034080 3.610599 0
M  V30 36 H 2.050501 -1.475418 1.981254 0
M  V30 37 H 2.831812 0.213640 4.428064 0
M  V30 38 H 2.216886 0.968914 2.933305 0
M  V30 39 H 4.720819 -0.727920 3.358367 0
M  V30 40 H 4.655659 1.039983 3.059927 0
M  V30 41 H 5.311525 -0.073546 0.989182 0
M  V30 42 H 3.877048 -1.127720 1.060572 0
M  V30 43 H 1.423632 2.773181 0.297980 0
M  V30 44 H 2.259220 2.496220 -1.244922 0
M  V30 45 H -0.655444 3.417294 -0.665848 0
M  V30 46 H -1.496632 2.378327 -1.848563 0
M  V30 47 H -0.512407 4.045531 -2.969126 0
M  V30 48 H 0.243150 0.858571 -3.092343 0
M  V30 49 H 1.424773 0.073399 -2.011764 0
M  V30 50 H -0.862508 -1.834683 -3.114993 0
M  V30 51 H -1.397351 -3.035408 0.281433 0
M  V30 52 H -3.288165 -4.447981 0.993444 0
M  V30 53 H -5.280458 -3.571574 -2.771079 0
M  V30 54 H -3.401276 -2.206593 -3.352686 0
M  V30 END ATOM
M  V30 BEGIN BOND
M  V30 1 1 1 2
M  V30 2 1 2 3
M  V30 3 1 3 4
M  V30 4 1 4 5
M  V30 5 1 5 6
M  V30 6 1 6 7
M  V30 7 2 7 8
M  V30 8 1 7 9
M  V30 9 1 9 10
M  V30 10 1 10 11
M  V30 11 1 11 12
M  V30 12 1 12 13
M  V30 13 1 11 14
M  V30 14 1 14 15
M  V30 15 2 15 16
M  V30 16 1 16 17
M  V30 17 2 17 18
M  V30 18 1 18 19
M  V30 19 2 19 20
M  V30 20 1 20 21
M  V30 21 1 21 22
M  V30 22 1 21 23
M  V30 23 1 21 24
M  V30 24 1 20 25
M  V30 25 2 25 26
M  V30 26 1 15 27
M  V30 27 2 27 28
M  V30 28 1 27 29
M  V30 29 1 29 11
M  V30 30 1 26 17
M  V30 31 1 1 30
M  V30 32 1 1 31
M  V30 33 1 1 32
M  V30 34 1 2 33
M  V30 35 1 2 34
M  V30 36 1 3 35
M  V30 37 1 3 36
M  V30 38 1 4 37
M  V30 39 1 4 38
M  V30 40 1 5 39
M  V30 41 1 5 40
M  V30 42 1 6 41
M  V30 43 1 6 42
M  V30 44 1 10 43
M  V30 45 1 10 44
M  V30 46 1 12 45
M  V30 47 1 12 46
M  V30 48 1 13 47
M  V30 49 1 14 48
M  V30 50 1 14 49
M  V30 51 1 16 50
M  V30 52 1 18 51
M  V30 53 1 19 52
M  V30 54 1 25 53
M  V30 55 1 26 54
M  V30 END BOND
M  V30 END CTAB
M  END
>  <Dataset>  (156) 
ChEMBL_Kinases

>  <Ligand_Instance>  (156) 
nan

>  <PDB_ID>  (156) 
nan

>  <Standardized_SMILES>  (156) 
CCCCCCC(=O)OCC1(CO)C/C(=C/c2ccc(C(F)(F)F)cc2)C(=O)O1

>  <Name>  (156) 
nan

>  <Pocket>  (156) 
nan

>  <ATP_Site>  (156) 
nan

>  <Peripheral>  (156) 
nan

>  <Num_H_Atoms_ProtBoundConf>  (156) 
nan

>  <Num_Resolved_Atoms>  (156) 
nan

>  <Num_Not_Resolved_Atoms>  (156) 
nan

$$$$
CHEMBL4467512
     RDKit          3D

  0  0  0  0  0  0  0  0  0  0999 V3000
M  V30 BEGIN CTAB
M  V30 COUNTS 33 36 0 0 0
M  V30 BEGIN ATOM
M  V30 1 C -2.715291 -0.977931 0.529930 0
M  V30 2 C -1.836715 -2.102863 0.989990 0
M  V30 3 N -0.725595 -1.717455 1.867011 0
M  V30 4 C 0.205904 -0.799551 1.306011 0
M  V30 5 N 0.026081 -0.356082 0.061830 0
M  V30 6 C 0.881412 0.523773 -0.533886 0
M  V30 7 C 0.635822 0.977986 -1.903107 0
M  V30 8 C -0.310322 1.649024 -2.656655 0
M  V30 9 N 0.156047 1.709065 -3.923129 0
M  V30 10 N 1.343055 1.103768 -3.969231 0
M  V30 11 N 1.652207 0.653565 -2.755108 0
M  V30 12 N 1.965829 0.981313 0.144599 0
M  V30 13 C 2.213516 0.575687 1.411174 0
M  V30 14 C 3.318695 1.027622 2.133953 0
M  V30 15 N 3.524511 0.596914 3.390496 0
M  V30 16 C 2.649097 -0.280321 3.949475 0
M  V30 17 C 1.557948 -0.732841 3.249645 0
M  V30 18 C 1.316902 -0.312506 1.961273 0
M  V30 19 C -2.446531 -3.460379 1.249903 0
M  V30 20 C -1.647457 -3.210095 0.021579 0
M  V30 21 H -2.227256 -0.012414 0.752991 0
M  V30 22 H -3.688883 -1.024125 1.061990 0
M  V30 23 H -2.854032 -1.023429 -0.560991 0
M  V30 24 H -0.723115 -2.141081 2.795137 0
M  V30 25 H -1.175771 1.960955 -2.080759 0
M  V30 26 H -0.453902 2.192822 -4.623330 0
M  V30 27 H 3.958812 1.725069 1.603175 0
M  V30 28 H 2.846444 -0.602604 4.956665 0
M  V30 29 H 0.910738 -1.418668 3.744124 0
M  V30 30 H -1.992552 -4.116520 2.040861 0
M  V30 31 H -3.559752 -3.474555 1.198699 0
M  V30 32 H -0.676334 -3.726803 -0.039063 0
M  V30 33 H -2.188533 -3.169413 -0.940145 0
M  V30 END ATOM
M  V30 BEGIN BOND
M  V30 1 1 1 2
M  V30 2 1 2 3
M  V30 3 1 3 4
M  V30 4 2 4 5
M  V30 5 1 5 6
M  V30 6 1 6 7
M  V30 7 2 7 8
M  V30 8 1 8 9
M  V30 9 1 9 10
M  V30 10 2 10 11
M  V30 11 2 6 12
M  V30 12 1 12 13
M  V30 13 2 13 14
M  V30 14 1 14 15
M  V30 15 2 15 16
M  V30 16 1 16 17
M  V30 17 2 17 18
M  V30 18 1 2 19
M  V30 19 1 19 20
M  V30 20 1 20 2
M  V30 21 1 18 4
M  V30 22 1 11 7
M  V30 23 1 18 13
M  V30 24 1 1 21
M  V30 25 1 1 22
M  V30 26 1 1 23
M  V30 27 1 3 24
M  V30 28 1 8 25
M  V30 29 1 9 26
M  V30 30 1 14 27
M  V30 31 1 16 28
M  V30 32 1 17 29
M  V30 33 1 19 30
M  V30 34 1 19 31
M  V30 35 1 20 32
M  V30 36 1 20 33
M  V30 END BOND
M  V30 END CTAB
M  END
>  <Dataset>  (157) 
ChEMBL_Kinases

>  <Ligand_Instance>  (157) 
nan

>  <PDB_ID>  (157) 
nan

>  <Standardized_SMILES>  (157) 
CC1(Nc2nc(-c3c[nH]nn3)nc3cnccc23)CC1

>  <Name>  (157) 
nan

>  <Pocket>  (157) 
nan

>  <ATP_Site>  (157) 
nan

>  <Peripheral>  (157) 
nan

>  <Num_H_Atoms_ProtBoundConf>  (157) 
nan

>  <Num_Resolved_Atoms>  (157) 
nan

>  <Num_Not_Resolved_Atoms>  (157) 
nan

$$$$
CHEMBL471310
     RDKit          3D

  0  0  0  0  0  0  0  0  0  0999 V3000
M  V30 BEGIN CTAB
M  V30 COUNTS 55 57 0 0 0
M  V30 BEGIN ATOM
M  V30 1 C 0.536715 -0.104652 3.232377 0
M  V30 2 C 1.357670 -1.180452 3.827998 0
M  V30 3 C 1.803097 -2.272399 2.876174 0
M  V30 4 C 2.606980 -1.688524 1.818316 0
M  V30 5 O 3.854084 -1.766790 1.649202 0
M  V30 6 O 2.198479 -0.918814 0.762198 0
M  V30 7 C 3.059009 -0.394347 -0.214485 0
M  V30 8 C 2.273398 0.409366 -1.238568 0
M  V30 9 C 3.183819 0.957381 -2.296687 0
M  V30 10 O 3.809880 -0.135562 -2.903153 0
M  V30 11 C 1.505630 1.487041 -0.511793 0
M  V30 12 C 0.106718 1.019561 -0.605264 0
M  V30 13 C -1.035146 1.507346 -0.123410 0
M  V30 14 C -2.396064 1.037969 -0.225456 0
M  V30 15 C -2.852547 0.275032 0.827106 0
M  V30 16 C -4.131177 -0.200780 0.834529 0
M  V30 17 C -4.994082 0.070523 -0.208972 0
M  V30 18 C -4.467299 0.840306 -1.227461 0
M  V30 19 C -3.175621 1.363753 -1.310527 0
M  V30 20 C -2.755170 2.180480 -2.452224 0
M  V30 21 F -1.709787 1.661365 -3.137446 0
M  V30 22 F -2.458757 3.468820 -1.998924 0
M  V30 23 F -3.832133 2.257959 -3.341246 0
M  V30 24 C 0.065208 -0.218566 -1.366327 0
M  V30 25 O -0.919113 -1.002251 -1.578701 0
M  V30 26 O 1.333735 -0.441322 -1.864460 0
M  V30 27 C 0.747267 -3.205381 2.519829 0
M  V30 28 C 0.614617 -4.487958 3.071067 0
M  V30 29 C -0.419250 -5.334361 2.689453 0
M  V30 30 C -1.342009 -4.899612 1.739971 0
M  V30 31 C -1.262085 -3.658309 1.168015 0
M  V30 32 C -0.207726 -2.861347 1.591164 0
M  V30 33 H -0.556052 -0.365703 3.362046 0
M  V30 34 H 0.665649 0.875583 3.750874 0
M  V30 35 H 0.657380 0.098204 2.174015 0
M  V30 36 H 2.308417 -0.699006 4.192538 0
M  V30 37 H 0.906899 -1.619125 4.745523 0
M  V30 38 H 2.523361 -2.866197 3.524296 0
M  V30 39 H 3.584756 -1.253493 -0.715284 0
M  V30 40 H 3.854457 0.231021 0.240105 0
M  V30 41 H 3.967845 1.611017 -1.844504 0
M  V30 42 H 2.571987 1.522041 -3.025445 0
M  V30 43 H 3.163753 -0.770186 -3.281749 0
M  V30 44 H 1.855165 1.557556 0.549332 0
M  V30 45 H 1.614698 2.451917 -1.041715 0
M  V30 46 H -0.962008 2.429808 0.457019 0
M  V30 47 H -2.265925 0.002670 1.688939 0
M  V30 48 H -4.537424 -0.803211 1.636681 0
M  V30 49 H -6.016918 -0.271077 -0.270992 0
M  V30 50 H -5.147887 1.062998 -2.061271 0
M  V30 51 H 1.376082 -4.769313 3.817217 0
M  V30 52 H -0.440985 -6.298678 3.167128 0
M  V30 53 H -2.137232 -5.615494 1.479447 0
M  V30 54 H -1.972840 -3.339218 0.443629 0
M  V30 55 H -0.166434 -1.878522 1.117124 0
M  V30 END ATOM
M  V30 BEGIN BOND
M  V30 1 1 1 2
M  V30 2 1 2 3
M  V30 3 1 3 4
M  V30 4 2 4 5
M  V30 5 1 4 6
M  V30 6 1 6 7
M  V30 7 1 7 8
M  V30 8 1 8 9
M  V30 9 1 9 10
M  V30 10 1 8 11
M  V30 11 1 11 12
M  V30 12 2 12 13
M  V30 13 1 13 14
M  V30 14 2 14 15
M  V30 15 1 15 16
M  V30 16 2 16 17
M  V30 17 1 17 18
M  V30 18 2 18 19
M  V30 19 1 19 20
M  V30 20 1 20 21
M  V30 21 1 20 22
M  V30 22 1 20 23
M  V30 23 1 12 24
M  V30 24 2 24 25
M  V30 25 1 24 26
M  V30 26 1 3 27
M  V30 27 2 27 28
M  V30 28 1 28 29
M  V30 29 2 29 30
M  V30 30 1 30 31
M  V30 31 2 31 32
M  V30 32 1 26 8
M  V30 33 1 32 27
M  V30 34 1 19 14
M  V30 35 1 1 33
M  V30 36 1 1 34
M  V30 37 1 1 35
M  V30 38 1 2 36
M  V30 39 1 2 37
M  V30 40 1 3 38
M  V30 41 1 7 39
M  V30 42 1 7 40
M  V30 43 1 9 41
M  V30 44 1 9 42
M  V30 45 1 10 43
M  V30 46 1 11 44
M  V30 47 1 11 45
M  V30 48 1 13 46
M  V30 49 1 15 47
M  V30 50 1 16 48
M  V30 51 1 17 49
M  V30 52 1 18 50
M  V30 53 1 28 51
M  V30 54 1 29 52
M  V30 55 1 30 53
M  V30 56 1 31 54
M  V30 57 1 32 55
M  V30 END BOND
M  V30 END CTAB
M  END
>  <Dataset>  (158) 
ChEMBL_Kinases

>  <Ligand_Instance>  (158) 
nan

>  <PDB_ID>  (158) 
nan

>  <Standardized_SMILES>  (158) 
CCC(C(=O)OCC1(CO)C/C(=C/c2ccccc2C(F)(F)F)C(=O)O1)c1ccccc1

>  <Name>  (158) 
nan

>  <Pocket>  (158) 
nan

>  <ATP_Site>  (158) 
nan

>  <Peripheral>  (158) 
nan

>  <Num_H_Atoms_ProtBoundConf>  (158) 
nan

>  <Num_Resolved_Atoms>  (158) 
nan

>  <Num_Not_Resolved_Atoms>  (158) 
nan

$$$$
CHEMBL471311
     RDKit          3D

  0  0  0  0  0  0  0  0  0  0999 V3000
M  V30 BEGIN CTAB
M  V30 COUNTS 49 51 0 0 0
M  V30 BEGIN ATOM
M  V30 1 C -1.097989 -5.689792 -1.081426 0
M  V30 2 C -0.270131 -4.622450 -0.505369 0
M  V30 3 C -0.227593 -4.438736 0.875886 0
M  V30 4 C 0.574255 -3.406740 1.362026 0
M  V30 5 C 1.318186 -2.570598 0.539079 0
M  V30 6 C 2.139053 -1.486797 1.112349 0
M  V30 7 O 2.066865 -1.426950 2.349148 0
M  V30 8 O 2.839431 -0.722070 0.262763 0
M  V30 9 C 3.677431 0.368962 0.410360 0
M  V30 10 C 3.002098 1.619295 0.802616 0
M  V30 11 C 3.959833 2.813637 0.808217 0
M  V30 12 O 4.470527 2.915124 -0.489210 0
M  V30 13 C 2.246473 1.669421 2.066833 0
M  V30 14 C 0.823369 1.389651 1.664071 0
M  V30 15 C -0.332026 1.220890 2.322026 0
M  V30 16 C -1.657220 0.953950 1.781693 0
M  V30 17 C -2.354799 1.540965 0.750903 0
M  V30 18 C -3.600049 1.097725 0.371328 0
M  V30 19 C -4.169498 0.038446 1.038134 0
M  V30 20 C -5.518218 -0.442472 0.618686 0
M  V30 21 F -6.058721 0.397794 -0.323983 0
M  V30 22 F -6.362117 -0.534159 1.685213 0
M  V30 23 F -5.426768 -1.706267 0.036157 0
M  V30 24 C -3.517648 -0.577355 2.068948 0
M  V30 25 C -2.257886 -0.120517 2.443796 0
M  V30 26 C 0.839922 1.258375 0.183524 0
M  V30 27 O 0.005675 0.655335 -0.549903 0
M  V30 28 O 1.997681 1.959709 -0.187210 0
M  V30 29 C 1.232342 -2.805051 -0.808640 0
M  V30 30 C 0.455594 -3.811297 -1.349229 0
M  V30 31 H -1.729463 -5.311903 -1.922868 0
M  V30 32 H -0.484538 -6.528325 -1.466453 0
M  V30 33 H -1.795665 -6.081359 -0.314511 0
M  V30 34 H -0.781643 -5.055578 1.559346 0
M  V30 35 H 0.587012 -3.288984 2.444943 0
M  V30 36 H 4.292880 0.491887 -0.531045 0
M  V30 37 H 4.492466 0.154227 1.183093 0
M  V30 38 H 4.778942 2.622243 1.504738 0
M  V30 39 H 3.441668 3.747678 1.051217 0
M  V30 40 H 3.832966 2.622200 -1.176550 0
M  V30 41 H 2.225359 2.731717 2.494616 0
M  V30 42 H 2.581807 1.058327 2.898941 0
M  V30 43 H -0.200572 1.307095 3.413501 0
M  V30 44 H -1.839452 2.368278 0.302695 0
M  V30 45 H -4.059963 1.628547 -0.451601 0
M  V30 46 H -4.017898 -1.399902 2.550998 0
M  V30 47 H -1.827563 -0.686193 3.280254 0
M  V30 48 H 1.825909 -2.132534 -1.416749 0
M  V30 49 H 0.472575 -3.892900 -2.417750 0
M  V30 END ATOM
M  V30 BEGIN BOND
M  V30 1 1 1 2
M  V30 2 2 2 3
M  V30 3 1 3 4
M  V30 4 2 4 5
M  V30 5 1 5 6
M  V30 6 2 6 7
M  V30 7 1 6 8
M  V30 8 1 8 9
M  V30 9 1 9 10
M  V30 10 1 10 11
M  V30 11 1 11 12
M  V30 12 1 10 13
M  V30 13 1 13 14
M  V30 14 2 14 15
M  V30 15 1 15 16
M  V30 16 2 16 17
M  V30 17 1 17 18
M  V30 18 2 18 19
M  V30 19 1 19 20
M  V30 20 1 20 21
M  V30 21 1 20 22
M  V30 22 1 20 23
M  V30 23 1 19 24
M  V30 24 2 24 25
M  V30 25 1 14 26
M  V30 26 2 26 27
M  V30 27 1 26 28
M  V30 28 1 5 29
M  V30 29 2 29 30
M  V30 30 1 30 2
M  V30 31 1 28 10
M  V30 32 1 25 16
M  V30 33 1 1 31
M  V30 34 1 1 32
M  V30 35 1 1 33
M  V30 36 1 3 34
M  V30 37 1 4 35
M  V30 38 1 9 36
M  V30 39 1 9 37
M  V30 40 1 11 38
M  V30 41 1 11 39
M  V30 42 1 12 40
M  V30 43 1 13 41
M  V30 44 1 13 42
M  V30 45 1 15 43
M  V30 46 1 17 44
M  V30 47 1 18 45
M  V30 48 1 24 46
M  V30 49 1 25 47
M  V30 50 1 29 48
M  V30 51 1 30 49
M  V30 END BOND
M  V30 END CTAB
M  END
>  <Dataset>  (159) 
ChEMBL_Kinases

>  <Ligand_Instance>  (159) 
nan

>  <PDB_ID>  (159) 
nan

>  <Standardized_SMILES>  (159) 
Cc1ccc(C(=O)OCC2(CO)C/C(=C/c3ccc(C(F)(F)F)cc3)C(=O)O2)cc1

>  <Name>  (159) 
nan

>  <Pocket>  (159) 
nan

>  <ATP_Site>  (159) 
nan

>  <Peripheral>  (159) 
nan

>  <Num_H_Atoms_ProtBoundConf>  (159) 
nan

>  <Num_Resolved_Atoms>  (159) 
nan

>  <Num_Not_Resolved_Atoms>  (159) 
nan

$$$$
CHEMBL471312
     RDKit          3D

  0  0  0  0  0  0  0  0  0  0999 V3000
M  V30 BEGIN CTAB
M  V30 COUNTS 52 54 0 0 0
M  V30 BEGIN ATOM
M  V30 1 C -0.767881 -5.422691 2.385806 0
M  V30 2 C -0.388158 -3.981167 2.144349 0
M  V30 3 C 1.063920 -3.941537 1.714875 0
M  V30 4 C 1.534022 -2.545647 1.454112 0
M  V30 5 O 1.861558 -2.559924 0.253393 0
M  V30 6 O 1.548991 -1.569667 2.408490 0
M  V30 7 C 1.951275 -0.254562 2.212302 0
M  V30 8 C 1.009626 0.595899 1.499996 0
M  V30 9 C 0.771156 0.461753 0.053887 0
M  V30 10 O -0.064109 -0.537258 -0.366530 0
M  V30 11 C 1.430037 2.114744 1.674169 0
M  V30 12 C 0.142366 2.701528 1.213789 0
M  V30 13 C -0.222844 3.792559 0.562501 0
M  V30 14 C -1.523408 4.305966 0.147905 0
M  V30 15 C -1.593328 4.620626 -1.199573 0
M  V30 16 C -2.786255 5.151573 -1.698076 0
M  V30 17 C -3.824096 5.329473 -0.808568 0
M  V30 18 Cl -5.366010 5.995801 -1.360900 0
M  V30 19 C -3.753334 5.016278 0.533362 0
M  V30 20 C -2.559799 4.483438 1.040683 0
M  V30 21 C -0.916188 1.728707 1.571272 0
M  V30 22 O -2.169322 1.745606 1.351665 0
M  V30 23 O -0.212192 0.711681 2.247080 0
M  V30 24 C 1.213597 -4.741139 0.484600 0
M  V30 25 C 0.611876 -4.394413 -0.724299 0
M  V30 26 C 0.780211 -5.190715 -1.856146 0
M  V30 27 C 1.556001 -6.330135 -1.753284 0
M  V30 28 C 2.156014 -6.685196 -0.569179 0
M  V30 29 C 1.996249 -5.902033 0.564160 0
M  V30 30 H 0.122285 -6.054644 2.674076 0
M  V30 31 H -1.295038 -5.842414 1.519614 0
M  V30 32 H -1.436473 -5.495672 3.275234 0
M  V30 33 H -1.019861 -3.532092 1.320946 0
M  V30 34 H -0.613588 -3.410063 3.049551 0
M  V30 35 H 1.640219 -4.370509 2.539259 0
M  V30 36 H 2.999671 -0.218280 1.765402 0
M  V30 37 H 2.129575 0.186018 3.232465 0
M  V30 38 H 1.779081 0.398596 -0.461773 0
M  V30 39 H 0.355214 1.421979 -0.385321 0
M  V30 40 H 0.146188 -0.766581 -1.316124 0
M  V30 41 H 2.283558 2.339436 1.043474 0
M  V30 42 H 1.595143 2.238966 2.766570 0
M  V30 43 H 0.631568 4.430920 0.287874 0
M  V30 44 H -0.779613 4.480205 -1.891857 0
M  V30 45 H -2.885724 5.411732 -2.749917 0
M  V30 46 H -4.586422 5.164458 1.226632 0
M  V30 47 H -2.496152 4.256902 2.094880 0
M  V30 48 H 0.013484 -3.512172 -0.789789 0
M  V30 49 H 0.319564 -4.944030 -2.820623 0
M  V30 50 H 1.734345 -7.001259 -2.590745 0
M  V30 51 H 2.766265 -7.571109 -0.470906 0
M  V30 52 H 2.481079 -6.206477 1.482927 0
M  V30 END ATOM
M  V30 BEGIN BOND
M  V30 1 1 1 2
M  V30 2 1 2 3
M  V30 3 1 3 4
M  V30 4 2 4 5
M  V30 5 1 4 6
M  V30 6 1 6 7
M  V30 7 1 7 8
M  V30 8 1 8 9
M  V30 9 1 9 10
M  V30 10 1 8 11
M  V30 11 1 11 12
M  V30 12 2 12 13
M  V30 13 1 13 14
M  V30 14 2 14 15
M  V30 15 1 15 16
M  V30 16 2 16 17
M  V30 17 1 17 18
M  V30 18 1 17 19
M  V30 19 2 19 20
M  V30 20 1 12 21
M  V30 21 2 21 22
M  V30 22 1 21 23
M  V30 23 1 3 24
M  V30 24 2 24 25
M  V30 25 1 25 26
M  V30 26 2 26 27
M  V30 27 1 27 28
M  V30 28 2 28 29
M  V30 29 1 23 8
M  V30 30 1 29 24
M  V30 31 1 20 14
M  V30 32 1 1 30
M  V30 33 1 1 31
M  V30 34 1 1 32
M  V30 35 1 2 33
M  V30 36 1 2 34
M  V30 37 1 3 35
M  V30 38 1 7 36
M  V30 39 1 7 37
M  V30 40 1 9 38
M  V30 41 1 9 39
M  V30 42 1 10 40
M  V30 43 1 11 41
M  V30 44 1 11 42
M  V30 45 1 13 43
M  V30 46 1 15 44
M  V30 47 1 16 45
M  V30 48 1 19 46
M  V30 49 1 20 47
M  V30 50 1 25 48
M  V30 51 1 26 49
M  V30 52 1 27 50
M  V30 53 1 28 51
M  V30 54 1 29 52
M  V30 END BOND
M  V30 END CTAB
M  END
>  <Dataset>  (160) 
ChEMBL_Kinases

>  <Ligand_Instance>  (160) 
nan

>  <PDB_ID>  (160) 
nan

>  <Standardized_SMILES>  (160) 
CCC(C(=O)OCC1(CO)C/C(=C/c2ccc(Cl)cc2)C(=O)O1)c1ccccc1

>  <Name>  (160) 
nan

>  <Pocket>  (160) 
nan

>  <ATP_Site>  (160) 
nan

>  <Peripheral>  (160) 
nan

>  <Num_H_Atoms_ProtBoundConf>  (160) 
nan

>  <Num_Resolved_Atoms>  (160) 
nan

>  <Num_Not_Resolved_Atoms>  (160) 
nan

$$$$
CHEMBL471314
     RDKit          3D

  0  0  0  0  0  0  0  0  0  0999 V3000
M  V30 BEGIN CTAB
M  V30 COUNTS 52 54 0 0 0
M  V30 BEGIN ATOM
M  V30 1 O -0.835127 -3.711921 1.556383 0
M  V30 2 C -1.149934 -2.605536 2.085907 0
M  V30 3 O -1.212469 -1.832404 3.258955 0
M  V30 4 C -0.647789 -0.570937 2.854072 0
M  V30 5 C -0.740954 0.405485 3.976739 0
M  V30 6 O -0.046214 -0.081559 5.062243 0
M  V30 7 C 0.728641 -0.730396 2.291981 0
M  V30 8 O 1.325147 0.479105 1.858216 0
M  V30 9 C 2.609415 0.385054 1.324736 0
M  V30 10 O 3.017534 -0.818569 1.332377 0
M  V30 11 C 3.291912 1.605836 0.848929 0
M  V30 12 C 3.475628 2.653908 1.886217 0
M  V30 13 C 2.296199 3.558739 2.064070 0
M  V30 14 C 1.852038 4.106136 0.718118 0
M  V30 15 C 1.363288 2.902904 -0.084524 0
M  V30 16 C 2.608696 2.106283 -0.402218 0
M  V30 17 C -1.610787 -0.257476 1.703125 0
M  V30 18 C -1.705413 -1.637496 1.113125 0
M  V30 19 C -2.236317 -1.810001 -0.110806 0
M  V30 20 C -2.391679 -3.088027 -0.792076 0
M  V30 21 C -1.938782 -3.069926 -2.122570 0
M  V30 22 C -1.994237 -4.149935 -2.977403 0
M  V30 23 C -2.523213 -5.342684 -2.530206 0
M  V30 24 C -2.569247 -6.480139 -3.456593 0
M  V30 25 F -2.992413 -7.651657 -2.827106 0
M  V30 26 F -3.351661 -6.311864 -4.556278 0
M  V30 27 F -1.278876 -6.782571 -3.915553 0
M  V30 28 C -2.974557 -5.364426 -1.209289 0
M  V30 29 C -2.909386 -4.269384 -0.369638 0
M  V30 30 H -1.813399 0.506329 4.256582 0
M  V30 31 H -0.311107 1.392454 3.690332 0
M  V30 32 H 0.767997 -0.587890 4.795133 0
M  V30 33 H 0.653948 -1.357273 1.354185 0
M  V30 34 H 1.422848 -1.321027 2.945908 0
M  V30 35 H 4.314413 1.289773 0.534928 0
M  V30 36 H 3.714562 2.188879 2.859162 0
M  V30 37 H 4.359381 3.306697 1.657104 0
M  V30 38 H 2.646063 4.441295 2.658360 0
M  V30 39 H 1.432583 3.045769 2.507387 0
M  V30 40 H 1.059630 4.868381 0.821319 0
M  V30 41 H 2.713908 4.506548 0.138276 0
M  V30 42 H 0.663403 2.347822 0.553014 0
M  V30 43 H 0.944693 3.229784 -1.062307 0
M  V30 44 H 3.253334 2.719873 -1.047224 0
M  V30 45 H 2.265449 1.200728 -0.973311 0
M  V30 46 H -1.210999 0.467143 0.995111 0
M  V30 47 H -2.576743 -0.016779 2.152758 0
M  V30 48 H -2.597320 -0.933588 -0.675976 0
M  V30 49 H -1.503820 -2.171740 -2.566185 0
M  V30 50 H -1.632374 -4.088599 -3.993090 0
M  V30 51 H -3.391795 -6.286596 -0.840257 0
M  V30 52 H -3.269757 -4.281066 0.641546 0
M  V30 END ATOM
M  V30 BEGIN BOND
M  V30 1 2 1 2
M  V30 2 1 2 3
M  V30 3 1 3 4
M  V30 4 1 4 5
M  V30 5 1 5 6
M  V30 6 1 4 7
M  V30 7 1 7 8
M  V30 8 1 8 9
M  V30 9 2 9 10
M  V30 10 1 9 11
M  V30 11 1 11 12
M  V30 12 1 12 13
M  V30 13 1 13 14
M  V30 14 1 14 15
M  V30 15 1 15 16
M  V30 16 1 4 17
M  V30 17 1 17 18
M  V30 18 2 18 19
M  V30 19 1 19 20
M  V30 20 2 20 21
M  V30 21 1 21 22
M  V30 22 2 22 23
M  V30 23 1 23 24
M  V30 24 1 24 25
M  V30 25 1 24 26
M  V30 26 1 24 27
M  V30 27 1 23 28
M  V30 28 2 28 29
M  V30 29 1 18 2
M  V30 30 1 29 20
M  V30 31 1 16 11
M  V30 32 1 5 30
M  V30 33 1 5 31
M  V30 34 1 6 32
M  V30 35 1 7 33
M  V30 36 1 7 34
M  V30 37 1 11 35
M  V30 38 1 12 36
M  V30 39 1 12 37
M  V30 40 1 13 38
M  V30 41 1 13 39
M  V30 42 1 14 40
M  V30 43 1 14 41
M  V30 44 1 15 42
M  V30 45 1 15 43
M  V30 46 1 16 44
M  V30 47 1 16 45
M  V30 48 1 17 46
M  V30 49 1 17 47
M  V30 50 1 19 48
M  V30 51 1 21 49
M  V30 52 1 22 50
M  V30 53 1 28 51
M  V30 54 1 29 52
M  V30 END BOND
M  V30 END CTAB
M  END
>  <Dataset>  (161) 
ChEMBL_Kinases

>  <Ligand_Instance>  (161) 
nan

>  <PDB_ID>  (161) 
nan

>  <Standardized_SMILES>  (161) 
O=C1OC(CO)(COC(=O)C2CCCCC2)C/C1=C/c1ccc(C(F)(F)F)cc1

>  <Name>  (161) 
nan

>  <Pocket>  (161) 
nan

>  <ATP_Site>  (161) 
nan

>  <Peripheral>  (161) 
nan

>  <Num_H_Atoms_ProtBoundConf>  (161) 
nan

>  <Num_Resolved_Atoms>  (161) 
nan

>  <Num_Not_Resolved_Atoms>  (161) 
nan

$$$$
CHEMBL471315
     RDKit          3D

  0  0  0  0  0  0  0  0  0  0999 V3000
M  V30 BEGIN CTAB
M  V30 COUNTS 46 48 0 0 0
M  V30 BEGIN ATOM
M  V30 1 O -0.023401 -3.243814 -0.866013 0
M  V30 2 C 0.742102 -2.964719 0.119598 0
M  V30 3 O 2.076856 -3.082911 0.523215 0
M  V30 4 C 2.355542 -1.827749 1.152895 0
M  V30 5 C 3.720713 -1.784028 1.748971 0
M  V30 6 O 3.841189 -2.783001 2.715971 0
M  V30 7 C 2.110039 -0.753774 0.131034 0
M  V30 8 O 2.347823 0.490856 0.709240 0
M  V30 9 C 2.208802 1.704151 0.092222 0
M  V30 10 O 1.823516 1.579853 -1.121039 0
M  V30 11 C 2.460490 3.001546 0.719081 0
M  V30 12 C 2.891540 3.083804 2.025953 0
M  V30 13 C 3.114350 4.315968 2.601736 0
M  V30 14 C 2.908779 5.491102 1.877420 0
M  V30 15 C 2.472710 5.359522 0.559942 0
M  V30 16 C 2.245360 4.138215 -0.030180 0
M  V30 17 C 1.233365 -1.811216 2.168583 0
M  V30 18 C 0.113671 -2.288949 1.272519 0
M  V30 19 C -1.140123 -2.071540 1.607052 0
M  V30 20 C -2.271597 -2.502681 0.825345 0
M  V30 21 C -3.223361 -1.506331 0.563487 0
M  V30 22 C -4.396174 -1.707021 -0.148788 0
M  V30 23 C -4.609136 -2.981459 -0.615544 0
M  V30 24 C -5.845090 -3.306676 -1.398918 0
M  V30 25 F -6.658146 -4.116166 -0.641084 0
M  V30 26 F -6.506145 -2.160856 -1.764798 0
M  V30 27 F -5.428724 -3.970045 -2.540352 0
M  V30 28 C -3.699892 -3.983348 -0.378192 0
M  V30 29 C -2.545246 -3.764080 0.329402 0
M  V30 30 H 4.534419 -1.870822 1.032636 0
M  V30 31 H 3.869940 -0.823697 2.285654 0
M  V30 32 H 3.456529 -2.533342 3.587968 0
M  V30 33 H 2.744890 -0.871401 -0.779725 0
M  V30 34 H 1.065049 -0.883736 -0.263234 0
M  V30 35 H 3.049599 2.145928 2.582136 0
M  V30 36 H 3.455414 4.368523 3.634824 0
M  V30 37 H 3.070740 6.471070 2.292320 0
M  V30 38 H 2.285486 6.211803 -0.078688 0
M  V30 39 H 1.902256 4.033558 -1.063841 0
M  V30 40 H 1.029718 -0.802958 2.583057 0
M  V30 41 H 1.361050 -2.598998 2.915226 0
M  V30 42 H -1.393672 -1.538435 2.518640 0
M  V30 43 H -3.079890 -0.482110 0.918953 0
M  V30 44 H -5.093214 -0.886799 -0.315253 0
M  V30 45 H -3.848181 -4.995129 -0.735692 0
M  V30 46 H -1.841650 -4.544575 0.534163 0
M  V30 END ATOM
M  V30 BEGIN BOND
M  V30 1 2 1 2
M  V30 2 1 2 3
M  V30 3 1 3 4
M  V30 4 1 4 5
M  V30 5 1 5 6
M  V30 6 1 4 7
M  V30 7 1 7 8
M  V30 8 1 8 9
M  V30 9 2 9 10
M  V30 10 1 9 11
M  V30 11 2 11 12
M  V30 12 1 12 13
M  V30 13 2 13 14
M  V30 14 1 14 15
M  V30 15 2 15 16
M  V30 16 1 4 17
M  V30 17 1 17 18
M  V30 18 2 18 19
M  V30 19 1 19 20
M  V30 20 2 20 21
M  V30 21 1 21 22
M  V30 22 2 22 23
M  V30 23 1 23 24
M  V30 24 1 24 25
M  V30 25 1 24 26
M  V30 26 1 24 27
M  V30 27 1 23 28
M  V30 28 2 28 29
M  V30 29 1 18 2
M  V30 30 1 29 20
M  V30 31 1 16 11
M  V30 32 1 5 30
M  V30 33 1 5 31
M  V30 34 1 6 32
M  V30 35 1 7 33
M  V30 36 1 7 34
M  V30 37 1 12 35
M  V30 38 1 13 36
M  V30 39 1 14 37
M  V30 40 1 15 38
M  V30 41 1 16 39
M  V30 42 1 17 40
M  V30 43 1 17 41
M  V30 44 1 19 42
M  V30 45 1 21 43
M  V30 46 1 22 44
M  V30 47 1 28 45
M  V30 48 1 29 46
M  V30 END BOND
M  V30 END CTAB
M  END
>  <Dataset>  (162) 
ChEMBL_Kinases

>  <Ligand_Instance>  (162) 
nan

>  <PDB_ID>  (162) 
nan

>  <Standardized_SMILES>  (162) 
O=C1OC(CO)(COC(=O)c2ccccc2)C/C1=C/c1ccc(C(F)(F)F)cc1

>  <Name>  (162) 
nan

>  <Pocket>  (162) 
nan

>  <ATP_Site>  (162) 
nan

>  <Peripheral>  (162) 
nan

>  <Num_H_Atoms_ProtBoundConf>  (162) 
nan

>  <Num_Resolved_Atoms>  (162) 
nan

>  <Num_Not_Resolved_Atoms>  (162) 
nan

$$$$
CHEMBL471316
     RDKit          3D

  0  0  0  0  0  0  0  0  0  0999 V3000
M  V30 BEGIN CTAB
M  V30 COUNTS 46 48 0 0 0
M  V30 BEGIN ATOM
M  V30 1 C 0.086337 -5.176895 4.988595 0
M  V30 2 O -0.369143 -5.450735 3.688897 0
M  V30 3 C -0.218890 -4.623268 2.591789 0
M  V30 4 C 0.402476 -3.384966 2.569995 0
M  V30 5 C 0.513973 -2.615451 1.438903 0
M  V30 6 C 0.001254 -3.049560 0.246860 0
M  V30 7 C 0.085063 -2.264872 -0.978590 0
M  V30 8 O -0.376720 -2.658657 -2.105816 0
M  V30 9 O 0.702095 -1.014307 -0.917617 0
M  V30 10 C 0.799248 -0.225616 -2.088371 0
M  V30 11 C 1.477407 1.084133 -1.845062 0
M  V30 12 C 1.561197 1.901065 -3.134956 0
M  V30 13 O 0.312911 2.097306 -3.702347 0
M  V30 14 C 0.703839 1.867411 -0.829569 0
M  V30 15 C 1.452074 1.694106 0.416356 0
M  V30 16 C 1.236054 1.729815 1.713832 0
M  V30 17 C -0.106908 2.011536 2.193326 0
M  V30 18 C -1.184156 1.287874 1.725638 0
M  V30 19 C -2.451198 1.570019 2.160351 0
M  V30 20 C -2.638767 2.595355 3.080230 0
M  V30 21 N -1.602535 3.304314 3.542226 0
M  V30 22 C -0.335704 3.035075 3.118760 0
M  V30 23 C 2.831073 1.385039 -0.025141 0
M  V30 24 O 3.949671 1.426540 0.505300 0
M  V30 25 O 2.790457 0.950644 -1.364073 0
M  V30 26 C -0.619125 -4.281796 0.257854 0
M  V30 27 C -0.737411 -5.058295 1.375984 0
M  V30 28 H 1.081223 -5.642028 5.172386 0
M  V30 29 H -0.654060 -5.569263 5.745570 0
M  V30 30 H 0.167467 -4.078333 5.132583 0
M  V30 31 H 0.811433 -3.037024 3.509244 0
M  V30 32 H 1.010824 -1.652636 1.468486 0
M  V30 33 H -0.234360 -0.065586 -2.476729 0
M  V30 34 H 1.378479 -0.772773 -2.887731 0
M  V30 35 H 2.000416 2.906146 -2.914520 0
M  V30 36 H 2.238865 1.398859 -3.853095 0
M  V30 37 H 0.298986 1.901456 -4.679227 0
M  V30 38 H 0.775395 2.966710 -1.131603 0
M  V30 39 H -0.353700 1.614334 -0.779871 0
M  V30 40 H 1.973370 1.564955 2.484476 0
M  V30 41 H -1.149214 0.461394 1.030215 0
M  V30 42 H -3.361821 1.069351 1.864920 0
M  V30 43 H -3.642164 2.844160 3.446914 0
M  V30 44 H 0.550441 3.581706 3.461988 0
M  V30 45 H -1.034040 -4.652951 -0.676023 0
M  V30 46 H -1.233817 -6.020757 1.346563 0
M  V30 END ATOM
M  V30 BEGIN BOND
M  V30 1 1 1 2
M  V30 2 1 2 3
M  V30 3 2 3 4
M  V30 4 1 4 5
M  V30 5 2 5 6
M  V30 6 1 6 7
M  V30 7 2 7 8
M  V30 8 1 7 9
M  V30 9 1 9 10
M  V30 10 1 10 11
M  V30 11 1 11 12
M  V30 12 1 12 13
M  V30 13 1 11 14
M  V30 14 1 14 15
M  V30 15 2 15 16
M  V30 16 1 16 17
M  V30 17 2 17 18
M  V30 18 1 18 19
M  V30 19 2 19 20
M  V30 20 1 20 21
M  V30 21 2 21 22
M  V30 22 1 15 23
M  V30 23 2 23 24
M  V30 24 1 23 25
M  V30 25 1 6 26
M  V30 26 2 26 27
M  V30 27 1 27 3
M  V30 28 1 25 11
M  V30 29 1 22 17
M  V30 30 1 1 28
M  V30 31 1 1 29
M  V30 32 1 1 30
M  V30 33 1 4 31
M  V30 34 1 5 32
M  V30 35 1 10 33
M  V30 36 1 10 34
M  V30 37 1 12 35
M  V30 38 1 12 36
M  V30 39 1 13 37
M  V30 40 1 14 38
M  V30 41 1 14 39
M  V30 42 1 16 40
M  V30 43 1 18 41
M  V30 44 1 19 42
M  V30 45 1 20 43
M  V30 46 1 22 44
M  V30 47 1 26 45
M  V30 48 1 27 46
M  V30 END BOND
M  V30 END CTAB
M  END
>  <Dataset>  (163) 
ChEMBL_Kinases

>  <Ligand_Instance>  (163) 
nan

>  <PDB_ID>  (163) 
nan

>  <Standardized_SMILES>  (163) 
COc1ccc(C(=O)OCC2(CO)C/C(=C\c3cccnc3)C(=O)O2)cc1

>  <Name>  (163) 
nan

>  <Pocket>  (163) 
nan

>  <ATP_Site>  (163) 
nan

>  <Peripheral>  (163) 
nan

>  <Num_H_Atoms_ProtBoundConf>  (163) 
nan

>  <Num_Resolved_Atoms>  (163) 
nan

>  <Num_Not_Resolved_Atoms>  (163) 
nan

$$$$
CHEMBL4467504
     RDKit          3D

  0  0  0  0  0  0  0  0  0  0999 V3000
M  V30 BEGIN CTAB
M  V30 COUNTS 48 51 0 0 0
M  V30 BEGIN ATOM
M  V30 1 N 1.440047 -5.973197 3.982060 0
M  V30 2 C 1.747042 -5.069652 3.357853 0
M  V30 3 C 2.152139 -3.954717 2.582467 0
M  V30 4 N 3.473270 -3.754034 2.403461 0
M  V30 5 C 3.946003 -2.727004 1.683194 0
M  V30 6 C 3.032731 -1.836982 1.100422 0
M  V30 7 N 3.521550 -0.751903 0.338158 0
M  V30 8 C 2.719173 0.228760 -0.282695 0
M  V30 9 N 2.528235 1.281923 0.566796 0
M  V30 10 C 1.777359 2.353556 0.174692 0
M  V30 11 C 1.190609 2.399417 -1.094013 0
M  V30 12 C 0.389028 3.544672 -1.512241 0
M  V30 13 C 0.270338 4.013417 -2.806456 0
M  V30 14 C -0.531473 5.121198 -3.065135 0
M  V30 15 C -1.213582 5.760755 -2.037286 0
M  V30 16 C -1.099430 5.300127 -0.752190 0
M  V30 17 F -1.782614 5.955487 0.216973 0
M  V30 18 C -0.297297 4.188563 -0.479671 0
M  V30 19 C 1.421188 1.304867 -1.904260 0
M  V30 20 N 2.166975 0.243375 -1.511410 0
M  V30 21 C 1.671259 -2.092948 1.318619 0
M  V30 22 C 1.167494 -3.165374 2.070972 0
M  V30 23 O -0.146480 -3.132622 2.089171 0
M  V30 24 C -1.153121 -3.875248 2.640870 0
M  V30 25 C -2.039542 -4.544201 1.607004 0
M  V30 26 C -2.994881 -3.595284 0.952523 0
M  V30 27 C -3.271541 -2.368197 1.786796 0
M  V30 28 N -3.323299 -2.814588 3.159022 0
M  V30 29 C -1.965784 -3.022842 3.597445 0
M  V30 30 H 5.011654 -2.631286 1.584254 0
M  V30 31 H 4.547646 -0.639063 0.205413 0
M  V30 32 H 1.608865 3.205553 0.829409 0
M  V30 33 H 0.823383 3.475401 -3.560256 0
M  V30 34 H -0.601277 5.458747 -4.081267 0
M  V30 35 H -1.843101 6.630638 -2.240054 0
M  V30 36 H -0.288644 3.922196 0.572854 0
M  V30 37 H 0.994895 1.278384 -2.898653 0
M  V30 38 H 1.083271 -1.334288 0.815772 0
M  V30 39 H -0.757139 -4.702320 3.249154 0
M  V30 40 H -1.364537 -4.949641 0.825476 0
M  V30 41 H -2.582236 -5.396819 2.047651 0
M  V30 42 H -3.968453 -4.093450 0.766024 0
M  V30 43 H -2.635032 -3.236332 -0.046698 0
M  V30 44 H -4.275549 -1.980989 1.513035 0
M  V30 45 H -2.550805 -1.554878 1.596299 0
M  V30 46 H -3.769483 -2.151362 3.796933 0
M  V30 47 H -1.470768 -2.031128 3.720986 0
M  V30 48 H -2.014059 -3.453900 4.615250 0
M  V30 END ATOM
M  V30 BEGIN BOND
M  V30 1 3 1 2
M  V30 2 1 2 3
M  V30 3 2 3 4
M  V30 4 1 4 5
M  V30 5 2 5 6
M  V30 6 1 6 7
M  V30 7 1 7 8
M  V30 8 2 8 9
M  V30 9 1 9 10
M  V30 10 2 10 11
M  V30 11 1 11 12
M  V30 12 2 12 13
M  V30 13 1 13 14
M  V30 14 2 14 15
M  V30 15 1 15 16
M  V30 16 1 16 17
M  V30 17 2 16 18
M  V30 18 1 11 19
M  V30 19 2 19 20
M  V30 20 1 6 21
M  V30 21 2 21 22
M  V30 22 1 22 23
M  V30 23 1 23 24
M  V30 24 1 24 25
M  V30 25 1 25 26
M  V30 26 1 26 27
M  V30 27 1 27 28
M  V30 28 1 28 29
M  V30 29 1 22 3
M  V30 30 1 29 24
M  V30 31 1 20 8
M  V30 32 1 18 12
M  V30 33 1 5 30
M  V30 34 1 7 31
M  V30 35 1 10 32
M  V30 36 1 13 33
M  V30 37 1 14 34
M  V30 38 1 15 35
M  V30 39 1 18 36
M  V30 40 1 19 37
M  V30 41 1 21 38
M  V30 42 1 24 39
M  V30 43 1 25 40
M  V30 44 1 25 41
M  V30 45 1 26 42
M  V30 46 1 26 43
M  V30 47 1 27 44
M  V30 48 1 27 45
M  V30 49 1 28 46
M  V30 50 1 29 47
M  V30 51 1 29 48
M  V30 END BOND
M  V30 END CTAB
M  END
>  <Dataset>  (164) 
ChEMBL_Kinases

>  <Ligand_Instance>  (164) 
nan

>  <PDB_ID>  (164) 
nan

>  <Standardized_SMILES>  (164) 
N#Cc1ncc(Nc2ncc(-c3cccc(F)c3)cn2)cc1OC1CCCNC1

>  <Name>  (164) 
nan

>  <Pocket>  (164) 
nan

>  <ATP_Site>  (164) 
nan

>  <Peripheral>  (164) 
nan

>  <Num_H_Atoms_ProtBoundConf>  (164) 
nan

>  <Num_Resolved_Atoms>  (164) 
nan

>  <Num_Not_Resolved_Atoms>  (164) 
nan

$$$$
CHEMBL4467439
     RDKit          3D

  0  0  0  0  0  0  0  0  0  0999 V3000
M  V30 BEGIN CTAB
M  V30 COUNTS 57 60 0 0 0
M  V30 BEGIN ATOM
M  V30 1 C -0.774500 3.855067 4.454100 0
M  V30 2 C 0.712443 3.991177 4.113494 0
M  V30 3 C 0.880436 4.216000 2.631198 0
M  V30 4 C 0.277316 2.999862 1.917774 0 CFG=2
M  V30 5 C 1.038614 1.773478 2.384776 0
M  V30 6 C 1.095626 0.826097 1.232921 0 CFG=1
M  V30 7 C 1.418446 -0.560953 1.618763 0
M  V30 8 C 2.566067 -1.241377 1.207928 0
M  V30 9 C 2.811197 -2.544028 1.605280 0
M  V30 10 C 1.913648 -3.203769 2.426208 0
M  V30 11 Cl 2.297730 -4.851630 2.883903 0
M  V30 12 C 0.779685 -2.532154 2.832462 0
M  V30 13 Cl -0.293075 -3.452125 3.868779 0
M  V30 14 C 0.536350 -1.234857 2.436251 0
M  V30 15 C -0.200914 0.954848 0.460659 0 CFG=2
M  V30 16 N -0.444167 -0.225419 -0.321518 0
M  V30 17 C -1.629362 -0.971723 -0.077270 0
M  V30 18 O -2.417844 -0.590052 0.796692 0
M  V30 19 C -1.909030 -2.172991 -0.850191 0
M  V30 20 C -1.175113 -2.779074 -1.864917 0
M  V30 21 C -1.777413 -3.916368 -2.355840 0
M  V30 22 C -1.283030 -4.770453 -3.397310 0
M  V30 23 C -0.076503 -4.415933 -3.964792 0
M  V30 24 Cl 1.185681 -3.172786 -3.851096 0
M  V30 25 C 0.288567 -5.312283 -4.949942 0
M  V30 26 N -0.713448 -6.207267 -4.965485 0
M  V30 27 N -1.622787 -5.860381 -4.040156 0
M  V30 28 C -2.824390 -6.598676 -3.789861 0
M  V30 29 C -2.897968 -3.934803 -1.570686 0
M  V30 30 Cl -4.224707 -5.045157 -1.522164 0
M  V30 31 O -2.969345 -2.942766 -0.716466 0
M  V30 32 C -0.072184 2.218770 -0.349343 0
M  V30 33 N 0.416971 3.261777 0.512989 0
M  V30 34 H -1.374564 4.570153 3.861102 0
M  V30 35 H -0.952039 3.978542 5.530717 0
M  V30 36 H -1.133031 2.830066 4.204628 0
M  V30 37 H 1.199337 3.024310 4.359211 0
M  V30 38 H 1.181712 4.790341 4.711580 0
M  V30 39 H 0.397062 5.147832 2.284124 0
M  V30 40 H 1.968773 4.183046 2.412899 0
M  V30 41 H -0.816463 2.943118 2.150514 0
M  V30 42 H 2.040142 2.040902 2.781962 0
M  V30 43 H 0.435271 1.312877 3.206130 0
M  V30 44 H 1.934804 1.178011 0.573167 0
M  V30 45 H 3.251733 -0.689840 0.560935 0
M  V30 46 H 3.735962 -3.004456 1.237408 0
M  V30 47 H -0.381903 -0.813482 2.816493 0
M  V30 48 H -1.010451 1.149834 1.200107 0
M  V30 49 H 0.265821 -0.485262 -1.040694 0
M  V30 50 H -0.251082 -2.264207 -2.107938 0
M  V30 51 H 1.043611 -5.554281 -5.680929 0
M  V30 52 H -2.860178 -7.131550 -2.842520 0
M  V30 53 H -2.803456 -7.455730 -4.553286 0
M  V30 54 H -3.725787 -6.047145 -4.111213 0
M  V30 55 H -1.044767 2.516701 -0.785745 0
M  V30 56 H 0.723291 2.051623 -1.112352 0
M  V30 57 H 1.325216 3.654796 0.237651 0
M  V30 END ATOM
M  V30 BEGIN BOND
M  V30 1 1 1 2
M  V30 2 1 2 3
M  V30 3 1 3 4
M  V30 4 1 4 5
M  V30 5 1 5 6
M  V30 6 1 6 7
M  V30 7 2 7 8
M  V30 8 1 8 9
M  V30 9 2 9 10
M  V30 10 1 10 11
M  V30 11 1 10 12
M  V30 12 1 12 13
M  V30 13 2 12 14
M  V30 14 1 6 15
M  V30 15 1 15 16
M  V30 16 1 16 17
M  V30 17 2 17 18
M  V30 18 1 17 19
M  V30 19 2 19 20
M  V30 20 1 20 21
M  V30 21 1 21 22
M  V30 22 2 22 23
M  V30 23 1 23 24
M  V30 24 1 23 25
M  V30 25 2 25 26
M  V30 26 1 26 27
M  V30 27 1 27 28
M  V30 28 2 21 29
M  V30 29 1 29 30
M  V30 30 1 29 31
M  V30 31 1 15 32
M  V30 32 1 32 33
M  V30 33 1 33 4
M  V30 34 1 14 7
M  V30 35 1 31 19
M  V30 36 1 27 22
M  V30 37 1 1 34
M  V30 38 1 1 35
M  V30 39 1 1 36
M  V30 40 1 2 37
M  V30 41 1 2 38
M  V30 42 1 3 39
M  V30 43 1 3 40
M  V30 44 1 4 41 CFG=3
M  V30 45 1 5 42
M  V30 46 1 5 43
M  V30 47 1 6 44 CFG=3
M  V30 48 1 8 45
M  V30 49 1 9 46
M  V30 50 1 14 47
M  V30 51 1 15 48 CFG=1
M  V30 52 1 16 49
M  V30 53 1 20 50
M  V30 54 1 25 51
M  V30 55 1 28 52
M  V30 56 1 28 53
M  V30 57 1 28 54
M  V30 58 1 32 55
M  V30 59 1 32 56
M  V30 60 1 33 57
M  V30 END BOND
M  V30 END CTAB
M  END
>  <Dataset>  (165) 
ChEMBL_Kinases

>  <Ligand_Instance>  (165) 
nan

>  <PDB_ID>  (165) 
nan

>  <Standardized_SMILES>  (165) 
CCC[C@@H]1C[C@@H](c2ccc(Cl)c(Cl)c2)[C@H](NC(=O)c2cc(-c3c(Cl)cnn3C)c(Cl)o2)CN1

>  <Name>  (165) 
nan

>  <Pocket>  (165) 
nan

>  <ATP_Site>  (165) 
nan

>  <Peripheral>  (165) 
nan

>  <Num_H_Atoms_ProtBoundConf>  (165) 
nan

>  <Num_Resolved_Atoms>  (165) 
nan

>  <Num_Not_Resolved_Atoms>  (165) 
nan

$$$$
CHEMBL4472859
     RDKit          3D

  0  0  0  0  0  0  0  0  0  0999 V3000
M  V30 BEGIN CTAB
M  V30 COUNTS 38 41 0 0 0
M  V30 BEGIN ATOM
M  V30 1 O -0.018697 -2.961890 0.792038 0
M  V30 2 C -1.142982 -2.903896 1.599888 0
M  V30 3 C -1.252788 -1.541023 2.200228 0
M  V30 4 N -1.377473 -0.472104 1.268517 0
M  V30 5 C -0.409787 -0.037644 0.347701 0
M  V30 6 N 0.818254 -0.554695 0.199436 0
M  V30 7 C 1.740477 -0.139313 -0.679688 0
M  V30 8 C 3.055656 -0.768580 -0.766331 0
M  V30 9 C 3.741415 -1.341427 -1.823240 0
M  V30 10 N 4.925866 -1.773552 -1.344833 0
M  V30 11 N 4.995619 -1.492611 -0.050049 0
M  V30 12 C 3.874662 -0.874081 0.363555 0
M  V30 13 N 1.498128 0.882642 -1.529269 0
M  V30 14 C 0.269863 1.468837 -1.446959 0
M  V30 15 C 0.005752 2.512310 -2.305869 0
M  V30 16 N -1.181599 3.141456 -2.286151 0
M  V30 17 C -2.126048 2.730110 -1.399281 0
M  V30 18 C -1.825493 1.685712 -0.558538 0
M  V30 19 C -0.641448 1.001507 -0.523912 0
M  V30 20 C -2.242640 -1.444732 3.365470 0
M  V30 21 C -1.200276 -0.595434 4.070273 0
M  V30 22 C -0.164981 -1.361465 3.248912 0
M  V30 23 H 0.751381 -3.283472 1.315584 0
M  V30 24 H -2.059918 -3.061566 0.988460 0
M  V30 25 H -1.022279 -3.700110 2.358619 0
M  V30 26 H -2.304313 -0.007063 1.322846 0
M  V30 27 H 3.263360 -1.356902 -2.801327 0
M  V30 28 H 5.867426 -1.776517 0.443295 0
M  V30 29 H 3.767925 -0.572103 1.407882 0
M  V30 30 H 0.769837 2.831743 -3.010606 0
M  V30 31 H -3.058337 3.261754 -1.419756 0
M  V30 32 H -2.643588 1.447204 0.096933 0
M  V30 33 H -3.167232 -0.894899 3.076394 0
M  V30 34 H -2.371833 -2.432127 3.822067 0
M  V30 35 H -1.241443 0.473566 3.865601 0
M  V30 36 H -1.138942 -0.800691 5.159182 0
M  V30 37 H 0.705887 -0.784698 2.947579 0
M  V30 38 H 0.015307 -2.325380 3.767530 0
M  V30 END ATOM
M  V30 BEGIN BOND
M  V30 1 1 1 2
M  V30 2 1 2 3
M  V30 3 1 3 4
M  V30 4 1 4 5
M  V30 5 2 5 6
M  V30 6 1 6 7
M  V30 7 1 7 8
M  V30 8 1 8 9
M  V30 9 2 9 10
M  V30 10 1 10 11
M  V30 11 1 11 12
M  V30 12 2 7 13
M  V30 13 1 13 14
M  V30 14 2 14 15
M  V30 15 1 15 16
M  V30 16 2 16 17
M  V30 17 1 17 18
M  V30 18 2 18 19
M  V30 19 1 3 20
M  V30 20 1 20 21
M  V30 21 1 21 22
M  V30 22 1 22 3
M  V30 23 1 19 5
M  V30 24 2 12 8
M  V30 25 1 19 14
M  V30 26 1 1 23
M  V30 27 1 2 24
M  V30 28 1 2 25
M  V30 29 1 4 26
M  V30 30 1 9 27
M  V30 31 1 11 28
M  V30 32 1 12 29
M  V30 33 1 15 30
M  V30 34 1 17 31
M  V30 35 1 18 32
M  V30 36 1 20 33
M  V30 37 1 20 34
M  V30 38 1 21 35
M  V30 39 1 21 36
M  V30 40 1 22 37
M  V30 41 1 22 38
M  V30 END BOND
M  V30 END CTAB
M  END
>  <Dataset>  (166) 
ChEMBL_Kinases

>  <Ligand_Instance>  (166) 
nan

>  <PDB_ID>  (166) 
nan

>  <Standardized_SMILES>  (166) 
OCC1(Nc2nc(-c3cn[nH]c3)nc3cnccc23)CCC1

>  <Name>  (166) 
nan

>  <Pocket>  (166) 
nan

>  <ATP_Site>  (166) 
nan

>  <Peripheral>  (166) 
nan

>  <Num_H_Atoms_ProtBoundConf>  (166) 
nan

>  <Num_Resolved_Atoms>  (166) 
nan

>  <Num_Not_Resolved_Atoms>  (166) 
nan

$$$$
CHEMBL471324
     RDKit          3D

  0  0  0  0  0  0  0  0  0  0999 V3000
M  V30 BEGIN CTAB
M  V30 COUNTS 50 52 0 0 0
M  V30 BEGIN ATOM
M  V30 1 C 3.877114 -5.594946 -3.332615 0
M  V30 2 O 4.838562 -5.060160 -2.467955 0
M  V30 3 C 4.626641 -3.934742 -1.706237 0
M  V30 4 C 3.396633 -3.290316 -1.791750 0
M  V30 5 C 3.129523 -2.161750 -1.054027 0
M  V30 6 C 4.078287 -1.624332 -0.195907 0
M  V30 7 C 3.854984 -0.444288 0.629317 0
M  V30 8 C 2.818496 -0.163840 1.386204 0
M  V30 9 C 2.355227 0.938716 2.297907 0
M  V30 10 C 0.885319 0.949823 1.917801 0
M  V30 11 C 0.812922 1.651848 0.576163 0
M  V30 12 O -0.454291 1.611953 0.017360 0
M  V30 13 C 0.034502 1.675380 2.882311 0
M  V30 14 O -1.316217 1.617415 2.530692 0
M  V30 15 C -2.052935 0.463393 2.508318 0
M  V30 16 O -1.742729 -0.714753 2.776714 0
M  V30 17 C -3.467547 0.599481 2.100246 0
M  V30 18 C -4.307168 -0.516187 2.053600 0
M  V30 19 C -5.639762 -0.348124 1.658776 0
M  V30 20 C -6.160164 0.876998 1.313319 0
M  V30 21 C -7.587528 0.902099 0.914524 0
M  V30 22 F -8.423464 1.122892 1.999600 0
M  V30 23 F -7.840269 1.839387 -0.050233 0
M  V30 24 F -7.975650 -0.336054 0.387022 0
M  V30 25 C -5.337050 1.979322 1.357771 0
M  V30 26 C -4.031104 1.783543 1.749728 0
M  V30 27 O 0.547671 -0.394537 1.846612 0
M  V30 28 C 1.692344 -1.111470 1.536998 0
M  V30 29 O 1.796918 -2.378004 1.398133 0
M  V30 30 C 5.289284 -2.287746 -0.134061 0
M  V30 31 C 5.599570 -3.439621 -0.869666 0
M  V30 32 H 2.852764 -5.668248 -2.871622 0
M  V30 33 H 3.739855 -5.004708 -4.262579 0
M  V30 34 H 4.181034 -6.639016 -3.575641 0
M  V30 35 H 2.643703 -3.685539 -2.448940 0
M  V30 36 H 2.177210 -1.698219 -1.166009 0
M  V30 37 H 4.600443 0.360292 0.680368 0
M  V30 38 H 2.450983 0.642878 3.353274 0
M  V30 39 H 2.868727 1.885108 2.136161 0
M  V30 40 H 1.603674 1.237220 -0.061866 0
M  V30 41 H 1.088605 2.730012 0.776432 0
M  V30 42 H -0.427164 1.811441 -0.936801 0
M  V30 43 H 0.212385 1.383271 3.946623 0
M  V30 44 H 0.310695 2.763667 2.802194 0
M  V30 45 H -3.942278 -1.499507 2.317133 0
M  V30 46 H -6.235095 -1.255944 1.644742 0
M  V30 47 H -5.756629 2.934652 1.084341 0
M  V30 48 H -3.401374 2.680833 1.774711 0
M  V30 49 H 6.072482 -1.910714 0.524446 0
M  V30 50 H 6.563381 -3.920294 -0.784368 0
M  V30 END ATOM
M  V30 BEGIN BOND
M  V30 1 1 1 2
M  V30 2 1 2 3
M  V30 3 2 3 4
M  V30 4 1 4 5
M  V30 5 2 5 6
M  V30 6 1 6 7
M  V30 7 2 7 8
M  V30 8 1 8 9
M  V30 9 1 9 10
M  V30 10 1 10 11
M  V30 11 1 11 12
M  V30 12 1 10 13
M  V30 13 1 13 14
M  V30 14 1 14 15
M  V30 15 2 15 16
M  V30 16 1 15 17
M  V30 17 2 17 18
M  V30 18 1 18 19
M  V30 19 2 19 20
M  V30 20 1 20 21
M  V30 21 1 21 22
M  V30 22 1 21 23
M  V30 23 1 21 24
M  V30 24 1 20 25
M  V30 25 2 25 26
M  V30 26 1 10 27
M  V30 27 1 27 28
M  V30 28 2 28 29
M  V30 29 1 6 30
M  V30 30 2 30 31
M  V30 31 1 31 3
M  V30 32 1 28 8
M  V30 33 1 26 17
M  V30 34 1 1 32
M  V30 35 1 1 33
M  V30 36 1 1 34
M  V30 37 1 4 35
M  V30 38 1 5 36
M  V30 39 1 7 37
M  V30 40 1 9 38
M  V30 41 1 9 39
M  V30 42 1 11 40
M  V30 43 1 11 41
M  V30 44 1 12 42
M  V30 45 1 13 43
M  V30 46 1 13 44
M  V30 47 1 18 45
M  V30 48 1 19 46
M  V30 49 1 25 47
M  V30 50 1 26 48
M  V30 51 1 30 49
M  V30 52 1 31 50
M  V30 END BOND
M  V30 END CTAB
M  END
>  <Dataset>  (167) 
ChEMBL_Kinases

>  <Ligand_Instance>  (167) 
nan

>  <PDB_ID>  (167) 
nan

>  <Standardized_SMILES>  (167) 
COc1ccc(/C=C2/CC(CO)(COC(=O)c3ccc(C(F)(F)F)cc3)OC2=O)cc1

>  <Name>  (167) 
nan

>  <Pocket>  (167) 
nan

>  <ATP_Site>  (167) 
nan

>  <Peripheral>  (167) 
nan

>  <Num_H_Atoms_ProtBoundConf>  (167) 
nan

>  <Num_Resolved_Atoms>  (167) 
nan

>  <Num_Not_Resolved_Atoms>  (167) 
nan

$$$$
CHEMBL471325
     RDKit          3D

  0  0  0  0  0  0  0  0  0  0999 V3000
M  V30 BEGIN CTAB
M  V30 COUNTS 49 51 0 0 0
M  V30 BEGIN ATOM
M  V30 1 C -3.007359 -5.759277 0.089011 0
M  V30 2 O -1.824703 -5.580177 -0.682710 0
M  V30 3 C -0.875672 -4.651059 -0.265650 0
M  V30 4 C -1.116600 -3.929836 0.898784 0
M  V30 5 C -0.144587 -3.024760 1.260485 0
M  V30 6 C 1.039407 -2.790465 0.548742 0
M  V30 7 C 1.926743 -1.814686 1.127908 0
M  V30 8 C 2.539573 -0.743528 0.686801 0
M  V30 9 C 3.447665 0.283891 1.202651 0
M  V30 10 C 3.295149 1.402046 0.186366 0
M  V30 11 C 4.537582 2.225394 0.161732 0
M  V30 12 O 4.703388 2.796091 1.435024 0
M  V30 13 C 2.140605 2.305884 0.528499 0
M  V30 14 O 0.922581 1.614514 0.688211 0
M  V30 15 C -0.178904 2.416128 1.023274 0
M  V30 16 O -0.113736 3.684747 1.175829 0
M  V30 17 C -1.452930 1.730351 1.201636 0
M  V30 18 C -1.611033 0.369187 1.046382 0
M  V30 19 C -2.794212 -0.307493 1.214002 0
M  V30 20 C -3.911036 0.456847 1.568653 0
M  V30 21 N -5.105451 -0.301694 1.731817 0 CHG=1 VAL=4
M  V30 22 O -6.130533 0.306790 2.050603 0
M  V30 23 O -5.209399 -1.676667 1.560648 0 CHG=-1 VAL=1
M  V30 24 C -3.794600 1.817474 1.732809 0
M  V30 25 C -2.588058 2.440424 1.552382 0
M  V30 26 O 2.999598 0.760648 -1.037593 0
M  V30 27 C 2.235232 -0.369758 -0.716300 0
M  V30 28 O 1.469444 -0.861208 -1.580340 0
M  V30 29 C 1.194520 -3.536713 -0.573905 0
M  V30 30 C 0.271818 -4.464124 -1.007364 0
M  V30 31 H -3.681696 -6.470110 -0.445338 0
M  V30 32 H -3.516291 -4.754648 0.104149 0
M  V30 33 H -2.827547 -6.115296 1.108804 0
M  V30 34 H -2.009861 -4.064653 1.488648 0
M  V30 35 H -0.363144 -2.467150 2.184017 0
M  V30 36 H 2.150236 -2.005728 2.195668 0
M  V30 37 H 4.509288 -0.069437 1.270379 0
M  V30 38 H 3.159211 0.704397 2.186370 0
M  V30 39 H 5.447355 1.665603 -0.136143 0
M  V30 40 H 4.407190 3.101376 -0.526672 0
M  V30 41 H 4.302254 3.722806 1.470455 0
M  V30 42 H 2.363552 2.967892 1.399543 0
M  V30 43 H 2.010245 3.007609 -0.336694 0
M  V30 44 H -0.707420 -0.194767 0.768563 0
M  V30 45 H -2.796141 -1.380908 1.064226 0
M  V30 46 H -4.702970 2.353003 2.008866 0
M  V30 47 H -2.573865 3.532054 1.703726 0
M  V30 48 H 2.098457 -3.404603 -1.146764 0
M  V30 49 H 0.459555 -5.033860 -1.924589 0
M  V30 END ATOM
M  V30 BEGIN BOND
M  V30 1 1 1 2
M  V30 2 1 2 3
M  V30 3 2 3 4
M  V30 4 1 4 5
M  V30 5 2 5 6
M  V30 6 1 6 7
M  V30 7 2 7 8
M  V30 8 1 8 9
M  V30 9 1 9 10
M  V30 10 1 10 11
M  V30 11 1 11 12
M  V30 12 1 10 13
M  V30 13 1 13 14
M  V30 14 1 14 15
M  V30 15 2 15 16
M  V30 16 1 15 17
M  V30 17 2 17 18
M  V30 18 1 18 19
M  V30 19 2 19 20
M  V30 20 1 20 21
M  V30 21 2 21 22
M  V30 22 1 21 23
M  V30 23 1 20 24
M  V30 24 2 24 25
M  V30 25 1 10 26
M  V30 26 1 26 27
M  V30 27 2 27 28
M  V30 28 1 6 29
M  V30 29 2 29 30
M  V30 30 1 30 3
M  V30 31 1 27 8
M  V30 32 1 25 17
M  V30 33 1 1 31
M  V30 34 1 1 32
M  V30 35 1 1 33
M  V30 36 1 4 34
M  V30 37 1 5 35
M  V30 38 1 7 36
M  V30 39 1 9 37
M  V30 40 1 9 38
M  V30 41 1 11 39
M  V30 42 1 11 40
M  V30 43 1 12 41
M  V30 44 1 13 42
M  V30 45 1 13 43
M  V30 46 1 18 44
M  V30 47 1 19 45
M  V30 48 1 24 46
M  V30 49 1 25 47
M  V30 50 1 29 48
M  V30 51 1 30 49
M  V30 END BOND
M  V30 END CTAB
M  END
>  <Dataset>  (168) 
ChEMBL_Kinases

>  <Ligand_Instance>  (168) 
nan

>  <PDB_ID>  (168) 
nan

>  <Standardized_SMILES>  (168) 
COc1ccc(/C=C2/CC(CO)(COC(=O)c3ccc([N+](=O)[O-])cc3)OC2=O)cc1

>  <Name>  (168) 
nan

>  <Pocket>  (168) 
nan

>  <ATP_Site>  (168) 
nan

>  <Peripheral>  (168) 
nan

>  <Num_H_Atoms_ProtBoundConf>  (168) 
nan

>  <Num_Resolved_Atoms>  (168) 
nan

>  <Num_Not_Resolved_Atoms>  (168) 
nan

$$$$
CHEMBL471329
     RDKit          3D

  0  0  0  0  0  0  0  0  0  0999 V3000
M  V30 BEGIN CTAB
M  V30 COUNTS 51 56 0 0 0
M  V30 BEGIN ATOM
M  V30 1 O 4.356818 1.222387 1.911946 0
M  V30 2 C 3.530652 0.386929 2.371720 0
M  V30 3 N 3.455031 -0.196130 3.672147 0
M  V30 4 C 2.356315 -1.083245 3.727291 0
M  V30 5 O 2.170462 -1.658101 4.791794 0
M  V30 6 C 1.695249 -1.092400 2.457391 0
M  V30 7 C 2.395535 -0.219777 1.659159 0
M  V30 8 C 2.006662 0.006846 0.335835 0
M  V30 9 C 2.745663 0.932767 -0.519183 0
M  V30 10 C 3.816825 0.622055 -1.335936 0
M  V30 11 C 4.412655 1.608385 -2.086689 0
M  V30 12 C 3.996988 2.924785 -2.075560 0
M  V30 13 C 2.912477 3.194032 -1.237034 0
M  V30 14 C 2.273060 2.249159 -0.460414 0
M  V30 15 Cl 0.911326 2.723285 0.557683 0
M  V30 16 C 0.907994 -0.651755 -0.176551 0
M  V30 17 C 0.211990 -1.525864 0.633746 0
M  V30 18 C 0.616058 -1.730854 1.933049 0
M  V30 19 C -0.231735 -2.629254 2.506727 0
M  V30 20 C -0.439044 -3.268931 3.690202 0
M  V30 21 C -1.444833 -4.168705 3.958318 0
M  V30 22 O -1.607705 -4.792140 5.188331 0
M  V30 23 C -2.347251 -4.467622 2.936134 0
M  V30 24 C -2.178483 -3.843503 1.715935 0
M  V30 25 C -1.142578 -2.951505 1.526029 0
M  V30 26 N -0.875612 -2.280278 0.380841 0
M  V30 27 C -1.565974 -2.320247 -0.870180 0
M  V30 28 C -2.671546 -1.331954 -1.031801 0
M  V30 29 C -2.250185 0.097187 -0.919756 0
M  V30 30 C -3.458103 0.942240 -1.102896 0
M  V30 31 N -3.929343 1.430543 -2.276367 0
M  V30 32 N -5.008577 2.131809 -2.066557 0
M  V30 33 N -5.260138 2.112931 -0.750927 0
M  V30 34 N -4.311319 1.384120 -0.155316 0
M  V30 35 H 4.176115 0.087824 4.376814 0
M  V30 36 H 4.120191 -0.415371 -1.324460 0
M  V30 37 H 5.245036 1.318516 -2.708989 0
M  V30 38 H 4.458406 3.694837 -2.658554 0
M  V30 39 H 2.553204 4.232611 -1.202037 0
M  V30 40 H 0.640233 -0.456580 -1.184952 0
M  V30 41 H 0.201314 -3.098557 4.519219 0
M  V30 42 H -2.059858 -4.316447 5.962276 0
M  V30 43 H -3.161239 -5.163516 3.072912 0
M  V30 44 H -2.881826 -4.087053 0.945490 0
M  V30 45 H -2.008433 -3.330654 -0.994093 0
M  V30 46 H -0.879588 -2.185324 -1.730135 0
M  V30 47 H -3.069591 -1.467432 -2.060530 0
M  V30 48 H -3.522829 -1.499577 -0.343593 0
M  V30 49 H -1.553625 0.326703 -1.761969 0
M  V30 50 H -1.823475 0.287706 0.080069 0
M  V30 51 H -4.235666 1.188415 0.848078 0
M  V30 END ATOM
M  V30 BEGIN BOND
M  V30 1 2 1 2
M  V30 2 1 2 3
M  V30 3 1 3 4
M  V30 4 2 4 5
M  V30 5 1 4 6
M  V30 6 2 6 7
M  V30 7 1 7 8
M  V30 8 1 8 9
M  V30 9 2 9 10
M  V30 10 1 10 11
M  V30 11 2 11 12
M  V30 12 1 12 13
M  V30 13 2 13 14
M  V30 14 1 14 15
M  V30 15 2 8 16
M  V30 16 1 16 17
M  V30 17 2 17 18
M  V30 18 1 18 19
M  V30 19 2 19 20
M  V30 20 1 20 21
M  V30 21 1 21 22
M  V30 22 2 21 23
M  V30 23 1 23 24
M  V30 24 2 24 25
M  V30 25 1 25 26
M  V30 26 1 26 27
M  V30 27 1 27 28
M  V30 28 1 28 29
M  V30 29 1 29 30
M  V30 30 2 30 31
M  V30 31 1 31 32
M  V30 32 2 32 33
M  V30 33 1 33 34
M  V30 34 1 7 2
M  V30 35 1 14 9
M  V30 36 1 26 17
M  V30 37 1 34 30
M  V30 38 1 18 6
M  V30 39 1 25 19
M  V30 40 1 3 35
M  V30 41 1 10 36
M  V30 42 1 11 37
M  V30 43 1 12 38
M  V30 44 1 13 39
M  V30 45 1 16 40
M  V30 46 1 20 41
M  V30 47 1 22 42
M  V30 48 1 23 43
M  V30 49 1 24 44
M  V30 50 1 27 45
M  V30 51 1 27 46
M  V30 52 1 28 47
M  V30 53 1 28 48
M  V30 54 1 29 49
M  V30 55 1 29 50
M  V30 56 1 34 51
M  V30 END BOND
M  V30 END CTAB
M  END
>  <Dataset>  (169) 
ChEMBL_Kinases

>  <Ligand_Instance>  (169) 
nan

>  <PDB_ID>  (169) 
nan

>  <Standardized_SMILES>  (169) 
O=C1NC(=O)c2c1c(-c1ccccc1Cl)cc1c2c2cc(O)ccc2n1CCCc1nnn[nH]1

>  <Name>  (169) 
nan

>  <Pocket>  (169) 
nan

>  <ATP_Site>  (169) 
nan

>  <Peripheral>  (169) 
nan

>  <Num_H_Atoms_ProtBoundConf>  (169) 
nan

>  <Num_Resolved_Atoms>  (169) 
nan

>  <Num_Not_Resolved_Atoms>  (169) 
nan

$$$$
CHEMBL44674
     RDKit          3D

  0  0  0  0  0  0  0  0  0  0999 V3000
M  V30 BEGIN CTAB
M  V30 COUNTS 33 33 0 0 0
M  V30 BEGIN ATOM
M  V30 1 C -0.517623 -1.310422 4.371787 0
M  V30 2 N -0.324319 -1.422355 2.935873 0 CHG=1 VAL=4
M  V30 3 C -0.944335 -2.642785 2.508109 0
M  V30 4 C -0.999206 -0.300205 2.320715 0
M  V30 5 C 1.103461 -1.395133 2.697185 0
M  V30 6 C 1.353350 -1.322327 1.260673 0
M  V30 7 C 1.535860 -1.265417 0.091817 0
M  V30 8 C 1.741097 -1.198765 -1.376416 0
M  V30 9 N 0.916176 -0.127009 -1.935336 0
M  V30 10 C -0.441071 -0.354242 -2.395917 0
M  V30 11 C -0.891039 0.947725 -2.977749 0
M  V30 12 C -0.050087 1.952066 -2.216541 0
M  V30 13 C 1.253355 1.242630 -2.123720 0
M  V30 14 O 2.444100 1.630062 -2.180533 0
M  V30 15 H -1.610714 -1.412355 4.560551 0
M  V30 16 H -0.143374 -0.311788 4.671301 0
M  V30 17 H 0.061990 -2.069652 4.917273 0
M  V30 18 H -0.392116 -3.543721 2.821562 0
M  V30 19 H -1.930568 -2.709754 3.014266 0
M  V30 20 H -1.167570 -2.648004 1.409769 0
M  V30 21 H -0.291807 0.537672 2.106783 0
M  V30 22 H -1.805896 0.099641 2.970712 0
M  V30 23 H -1.499864 -0.659441 1.398763 0
M  V30 24 H 1.537044 -2.295930 3.148823 0
M  V30 25 H 1.496344 -0.503194 3.239896 0
M  V30 26 H 1.438255 -2.178238 -1.802986 0
M  V30 27 H 2.811848 -1.065788 -1.613419 0
M  V30 28 H -1.050714 -0.532017 -1.470012 0
M  V30 29 H -0.514121 -1.202959 -3.102710 0
M  V30 30 H -0.727590 0.976526 -4.070566 0
M  V30 31 H -1.969382 1.082931 -2.754979 0
M  V30 32 H 0.037587 2.913227 -2.757605 0
M  V30 33 H -0.518090 2.106952 -1.232262 0
M  V30 END ATOM
M  V30 BEGIN BOND
M  V30 1 1 1 2
M  V30 2 1 2 3
M  V30 3 1 2 4
M  V30 4 1 2 5
M  V30 5 1 5 6
M  V30 6 3 6 7
M  V30 7 1 7 8
M  V30 8 1 8 9
M  V30 9 1 9 10
M  V30 10 1 10 11
M  V30 11 1 11 12
M  V30 12 1 12 13
M  V30 13 2 13 14
M  V30 14 1 13 9
M  V30 15 1 1 15
M  V30 16 1 1 16
M  V30 17 1 1 17
M  V30 18 1 3 18
M  V30 19 1 3 19
M  V30 20 1 3 20
M  V30 21 1 4 21
M  V30 22 1 4 22
M  V30 23 1 4 23
M  V30 24 1 5 24
M  V30 25 1 5 25
M  V30 26 1 8 26
M  V30 27 1 8 27
M  V30 28 1 10 28
M  V30 29 1 10 29
M  V30 30 1 11 30
M  V30 31 1 11 31
M  V30 32 1 12 32
M  V30 33 1 12 33
M  V30 END BOND
M  V30 END CTAB
M  END
>  <Dataset>  (170) 
ChEMBL_Kinases

>  <Ligand_Instance>  (170) 
nan

>  <PDB_ID>  (170) 
nan

>  <Standardized_SMILES>  (170) 
C[N+](C)(C)CC#CCN1CCCC1=O

>  <Name>  (170) 
nan

>  <Pocket>  (170) 
nan

>  <ATP_Site>  (170) 
nan

>  <Peripheral>  (170) 
nan

>  <Num_H_Atoms_ProtBoundConf>  (170) 
nan

>  <Num_Resolved_Atoms>  (170) 
nan

>  <Num_Not_Resolved_Atoms>  (170) 
nan

$$$$
CHEMBL471430
     RDKit          3D

  0  0  0  0  0  0  0  0  0  0999 V3000
M  V30 BEGIN CTAB
M  V30 COUNTS 41 44 0 0 0
M  V30 BEGIN ATOM
M  V30 1 C -1.934698 -4.179511 -0.221049 0
M  V30 2 O -0.937167 -3.609367 0.616827 0
M  V30 3 C 0.202529 -3.076344 0.024343 0
M  V30 4 C 0.361633 -3.101865 -1.365831 0
M  V30 5 C 1.507898 -2.561123 -1.900569 0
M  V30 6 C 2.515724 -1.990556 -1.126786 0
M  V30 7 C 3.759060 -1.401446 -1.667986 0
M  V30 8 S 3.477138 0.359140 -2.001569 0
M  V30 9 C 3.209418 1.166685 -0.410963 0
M  V30 10 N 3.886671 1.775236 0.577467 0
M  V30 11 N 3.008534 2.149368 1.494327 0
M  V30 12 C 1.760849 1.774360 1.083716 0
M  V30 13 C 0.533374 2.021387 1.843960 0
M  V30 14 C 0.525458 2.666791 3.063521 0
M  V30 15 C -0.701923 2.831104 3.669911 0
M  V30 16 C -1.891549 2.391596 3.127762 0
M  V30 17 O -3.120486 2.459455 3.552546 0
M  V30 18 C -3.943694 1.904343 2.704283 0
M  V30 19 C -3.192569 1.430409 1.628897 0
M  V30 20 C -1.858455 1.747686 1.904985 0
M  V30 21 C -0.651198 1.578115 1.293827 0
M  V30 22 O 1.931276 1.173226 -0.093164 0
M  V30 23 C 2.312894 -1.987819 0.255125 0
M  V30 24 C 1.171809 -2.522881 0.830137 0
M  V30 25 C 0.957048 -2.519596 2.293413 0
M  V30 26 F 0.818254 -3.805980 2.791684 0
M  V30 27 F 2.067519 -1.984416 2.951526 0
M  V30 28 F -0.133675 -1.738778 2.644175 0
M  V30 29 H -2.768584 -4.535842 0.446816 0
M  V30 30 H -1.578134 -5.036282 -0.809065 0
M  V30 31 H -2.335055 -3.423881 -0.900829 0
M  V30 32 H -0.405360 -3.540438 -2.012753 0
M  V30 33 H 1.656062 -2.569587 -2.992194 0
M  V30 34 H 4.536730 -1.455976 -0.877455 0
M  V30 35 H 4.125412 -1.938300 -2.566581 0
M  V30 36 H 1.454650 3.009687 3.486298 0
M  V30 37 H -0.762203 3.339406 4.642229 0
M  V30 38 H -4.998379 1.699761 2.573387 0
M  V30 39 H -3.393113 0.912115 0.699947 0
M  V30 40 H -0.642435 1.067358 0.328600 0
M  V30 41 H 3.021573 -1.573289 0.972164 0
M  V30 END ATOM
M  V30 BEGIN BOND
M  V30 1 1 1 2
M  V30 2 1 2 3
M  V30 3 2 3 4
M  V30 4 1 4 5
M  V30 5 2 5 6
M  V30 6 1 6 7
M  V30 7 1 7 8
M  V30 8 1 8 9
M  V30 9 2 9 10
M  V30 10 1 10 11
M  V30 11 2 11 12
M  V30 12 1 12 13
M  V30 13 2 13 14
M  V30 14 1 14 15
M  V30 15 2 15 16
M  V30 16 1 16 17
M  V30 17 1 17 18
M  V30 18 2 18 19
M  V30 19 1 19 20
M  V30 20 2 20 21
M  V30 21 1 12 22
M  V30 22 1 6 23
M  V30 23 2 23 24
M  V30 24 1 24 25
M  V30 25 1 25 26
M  V30 26 1 25 27
M  V30 27 1 25 28
M  V30 28 1 24 3
M  V30 29 1 22 9
M  V30 30 1 21 13
M  V30 31 1 20 16
M  V30 32 1 1 29
M  V30 33 1 1 30
M  V30 34 1 1 31
M  V30 35 1 4 32
M  V30 36 1 5 33
M  V30 37 1 7 34
M  V30 38 1 7 35
M  V30 39 1 14 36
M  V30 40 1 15 37
M  V30 41 1 18 38
M  V30 42 1 19 39
M  V30 43 1 21 40
M  V30 44 1 23 41
M  V30 END BOND
M  V30 END CTAB
M  END
>  <Dataset>  (171) 
ChEMBL_Kinases

>  <Ligand_Instance>  (171) 
nan

>  <PDB_ID>  (171) 
nan

>  <Standardized_SMILES>  (171) 
COc1ccc(CSc2nnc(-c3ccc4occc4c3)o2)cc1C(F)(F)F

>  <Name>  (171) 
nan

>  <Pocket>  (171) 
nan

>  <ATP_Site>  (171) 
nan

>  <Peripheral>  (171) 
nan

>  <Num_H_Atoms_ProtBoundConf>  (171) 
nan

>  <Num_Resolved_Atoms>  (171) 
nan

>  <Num_Not_Resolved_Atoms>  (171) 
nan

$$$$
CHEMBL471474
     RDKit          3D

  0  0  0  0  0  0  0  0  0  0999 V3000
M  V30 BEGIN CTAB
M  V30 COUNTS 49 51 0 0 0
M  V30 BEGIN ATOM
M  V30 1 C 5.504706 -3.004856 1.743364 0
M  V30 2 O 4.645647 -3.776239 0.927459 0
M  V30 3 C 3.490203 -3.169101 0.457428 0
M  V30 4 C 2.747582 -4.029256 -0.321631 0
M  V30 5 C 1.555964 -3.511546 -0.845736 0
M  V30 6 O 0.546885 -4.029105 -1.664020 0
M  V30 7 C 1.148644 -2.246104 -0.606182 0
M  V30 8 C 1.900211 -1.344704 0.188953 0
M  V30 9 C 3.067584 -1.878861 0.692968 0
M  V30 10 C 1.701022 0.074270 0.501052 0 CFG=1
M  V30 11 O 0.383467 0.528269 0.127027 0
M  V30 12 C 0.752145 0.431197 1.479297 0 CFG=2
M  V30 13 C 0.893716 1.799828 2.094338 0
M  V30 14 C -0.357143 2.388351 2.610947 0 CFG=2
M  V30 15 O -0.914115 1.651014 3.624410 0
M  V30 16 C -1.274538 2.928164 1.587477 0 CFG=2
M  V30 17 O -2.133353 3.949527 2.030712 0
M  V30 18 C -2.262273 1.852836 1.123047 0
M  V30 19 O -3.154154 1.094707 0.748248 0
M  V30 20 C -3.698492 1.657203 0.692295 0
M  V30 21 C -3.736814 0.294214 0.526335 0
M  V30 22 C -2.787620 -0.791880 0.679503 0
M  V30 23 C -2.445065 -1.618671 -0.528768 0 CFG=2
M  V30 24 C -3.480119 -2.550901 -1.005823 0
M  V30 25 O -1.159796 -2.126664 -0.235388 0
M  V30 26 C -0.149105 -1.706841 -1.102215 0
M  V30 27 O 0.459443 -1.168846 -2.035931 0
M  V30 28 H 6.404100 -3.581310 2.051805 0
M  V30 29 H 5.905216 -2.118715 1.174936 0
M  V30 30 H 4.991078 -2.585125 2.614355 0
M  V30 31 H 2.854433 -5.051682 -0.647995 0
M  V30 32 H 0.721335 -4.642951 -2.435292 0
M  V30 33 H 3.761967 -1.337011 1.320352 0
M  V30 34 H 2.528560 0.740254 0.125408 0
M  V30 35 H 0.324761 -0.355035 2.125381 0
M  V30 36 H 1.720260 1.804723 2.865971 0
M  V30 37 H 1.291706 2.535619 1.319427 0
M  V30 38 H 0.044466 3.380392 3.130225 0
M  V30 39 H -0.188077 1.084164 3.994356 0
M  V30 40 H -0.769954 3.271633 0.686517 0
M  V30 41 H -2.239066 3.930192 3.026168 0
M  V30 42 H -4.612411 2.325875 0.510403 0
M  V30 43 H -4.728599 0.009390 0.205089 0
M  V30 44 H -3.256713 -1.580834 1.394614 0
M  V30 45 H -1.878171 -0.464797 1.223619 0
M  V30 46 H -2.321002 -0.861846 -1.389983 0
M  V30 47 H -3.654704 -3.397390 -0.308609 0
M  V30 48 H -3.152805 -2.941542 -2.011296 0
M  V30 49 H -4.398113 -1.967459 -1.219016 0
M  V30 END ATOM
M  V30 BEGIN BOND
M  V30 1 1 1 2
M  V30 2 1 2 3
M  V30 3 2 3 4
M  V30 4 1 4 5
M  V30 5 1 5 6
M  V30 6 2 5 7
M  V30 7 1 7 8
M  V30 8 2 8 9
M  V30 9 1 8 10
M  V30 10 1 10 11
M  V30 11 1 11 12
M  V30 12 1 12 13
M  V30 13 1 13 14
M  V30 14 1 14 15
M  V30 15 1 14 16
M  V30 16 1 16 17
M  V30 17 1 16 18
M  V30 18 2 18 19
M  V30 19 1 18 20
M  V30 20 2 20 21
M  V30 21 1 21 22
M  V30 22 1 22 23
M  V30 23 1 23 24
M  V30 24 1 23 25
M  V30 25 1 25 26
M  V30 26 2 26 27
M  V30 27 1 9 3
M  V30 28 1 12 10
M  V30 29 1 26 7
M  V30 30 1 1 28
M  V30 31 1 1 29
M  V30 32 1 1 30
M  V30 33 1 4 31
M  V30 34 1 6 32
M  V30 35 1 9 33
M  V30 36 1 10 34 CFG=3
M  V30 37 1 12 35 CFG=1
M  V30 38 1 13 36
M  V30 39 1 13 37
M  V30 40 1 14 38 CFG=1
M  V30 41 1 15 39
M  V30 42 1 16 40 CFG=3
M  V30 43 1 17 41
M  V30 44 1 20 42
M  V30 45 1 21 43
M  V30 46 1 22 44
M  V30 47 1 22 45
M  V30 48 1 23 46 CFG=3
M  V30 49 1 24 47
M  V30 50 1 24 48
M  V30 51 1 24 49
M  V30 END BOND
M  V30 END CTAB
M  END
>  <Dataset>  (172) 
ChEMBL_Kinases

>  <Ligand_Instance>  (172) 
nan

>  <PDB_ID>  (172) 
nan

>  <Standardized_SMILES>  (172) 
COc1cc(O)c2c(c1)[C@H]1O[C@@H]1C[C@H](O)[C@H](O)C(=O)/C=C\C[C@H](C)OC2=O

>  <Name>  (172) 
HYPOTHEMYCIN

>  <Pocket>  (172) 
nan

>  <ATP_Site>  (172) 
nan

>  <Peripheral>  (172) 
nan

>  <Num_H_Atoms_ProtBoundConf>  (172) 
nan

>  <Num_Resolved_Atoms>  (172) 
nan

>  <Num_Not_Resolved_Atoms>  (172) 
nan

$$$$
CHEMBL4467267
     RDKit          3D

  0  0  0  0  0  0  0  0  0  0999 V3000
M  V30 BEGIN CTAB
M  V30 COUNTS 50 53 0 0 0
M  V30 BEGIN ATOM
M  V30 1 C 2.082763 3.121146 4.617568 0
M  V30 2 C 2.497467 1.703003 4.973987 0 CFG=2
M  V30 3 O 2.764475 1.570786 6.348577 0
M  V30 4 C 3.779163 1.414027 4.222539 0
M  V30 5 N 3.528707 1.551345 2.812267 0
M  V30 6 C 2.616040 0.807501 2.036700 0
M  V30 7 O 1.998639 -0.045650 2.721167 0
M  V30 8 C 2.405221 0.997235 0.608521 0
M  V30 9 C 3.131372 1.960797 -0.056074 0
M  V30 10 N 2.936908 2.136593 -1.375487 0
M  V30 11 C 2.050160 1.394863 -2.063697 0
M  V30 12 C 1.311278 0.424321 -1.420468 0
M  V30 13 C 1.491908 0.223878 -0.068953 0
M  V30 14 N 0.718520 -0.780401 0.512681 0
M  V30 15 C -0.165668 -1.579451 -0.259672 0
M  V30 16 C -1.536893 -1.658401 -0.148407 0
M  V30 17 C -2.339142 -2.471542 -0.919843 0
M  V30 18 C -3.786386 -2.489251 -0.731195 0
M  V30 19 C -4.483850 -1.739030 0.189480 0
M  V30 20 C -5.857454 -1.812480 0.306277 0
M  V30 21 Cl -6.661617 -0.834299 1.492022 0
M  V30 22 C -6.550246 -2.679695 -0.542890 0
M  V30 23 C -5.879568 -3.450191 -1.481898 0
M  V30 24 C -4.506614 -3.338554 -1.556788 0
M  V30 25 F -3.865986 -4.107700 -2.490372 0
M  V30 26 N -1.703744 -3.226272 -1.834106 0
M  V30 27 C -0.360556 -3.190565 -1.987870 0
M  V30 28 N 0.342335 -3.919266 -2.873945 0
M  V30 29 C 1.640473 -3.607346 -2.713366 0
M  V30 30 C 1.753140 -2.667976 -1.710631 0
M  V30 31 C 0.474746 -2.374998 -1.218651 0
M  V30 32 H 2.698425 3.871389 5.152368 0
M  V30 33 H 2.234371 3.265510 3.542247 0
M  V30 34 H 1.042084 3.273411 4.954085 0
M  V30 35 H 1.690101 0.982090 4.749516 0
M  V30 36 H 2.427345 0.729887 6.712173 0
M  V30 37 H 4.059978 0.353001 4.436258 0
M  V30 38 H 4.596350 2.049553 4.584390 0
M  V30 39 H 4.102313 2.291784 2.344260 0
M  V30 40 H 3.860837 2.610231 0.375713 0
M  V30 41 H 1.965047 1.615262 -3.136144 0
M  V30 42 H 0.641520 -0.076180 -2.101491 0
M  V30 43 H 0.527034 -1.218782 1.427945 0
M  V30 44 H -1.915460 -1.008726 0.614674 0
M  V30 45 H -3.931888 -1.084890 0.825531 0
M  V30 46 H -7.632927 -2.751034 -0.465587 0
M  V30 47 H -6.402981 -4.126188 -2.146380 0
M  V30 48 H -0.002201 -4.609822 -3.575471 0
M  V30 49 H 2.513869 -3.977322 -3.233839 0
M  V30 50 H 2.602113 -2.163038 -1.278461 0
M  V30 END ATOM
M  V30 BEGIN BOND
M  V30 1 1 1 2
M  V30 2 1 2 3
M  V30 3 1 2 4
M  V30 4 1 4 5
M  V30 5 1 5 6
M  V30 6 2 6 7
M  V30 7 1 6 8
M  V30 8 2 8 9
M  V30 9 1 9 10
M  V30 10 2 10 11
M  V30 11 1 11 12
M  V30 12 2 12 13
M  V30 13 1 13 14
M  V30 14 1 14 15
M  V30 15 2 15 16
M  V30 16 1 16 17
M  V30 17 1 17 18
M  V30 18 2 18 19
M  V30 19 1 19 20
M  V30 20 1 20 21
M  V30 21 2 20 22
M  V30 22 1 22 23
M  V30 23 2 23 24
M  V30 24 1 24 25
M  V30 25 2 17 26
M  V30 26 1 26 27
M  V30 27 1 27 28
M  V30 28 1 28 29
M  V30 29 2 29 30
M  V30 30 1 30 31
M  V30 31 1 13 8
M  V30 32 1 31 15
M  V30 33 1 24 18
M  V30 34 2 31 27
M  V30 35 1 1 32
M  V30 36 1 1 33
M  V30 37 1 1 34
M  V30 38 1 2 35 CFG=3
M  V30 39 1 3 36
M  V30 40 1 4 37
M  V30 41 1 4 38
M  V30 42 1 5 39
M  V30 43 1 9 40
M  V30 44 1 11 41
M  V30 45 1 12 42
M  V30 46 1 14 43
M  V30 47 1 16 44
M  V30 48 1 19 45
M  V30 49 1 22 46
M  V30 50 1 23 47
M  V30 51 1 28 48
M  V30 52 1 29 49
M  V30 53 1 30 50
M  V30 END BOND
M  V30 END CTAB
M  END
>  <Dataset>  (173) 
ChEMBL_Kinases

>  <Ligand_Instance>  (173) 
nan

>  <PDB_ID>  (173) 
nan

>  <Standardized_SMILES>  (173) 
C[C@H](O)CNC(=O)c1cnccc1Nc1cc(-c2cc(Cl)ccc2F)nc2[nH]ccc12

>  <Name>  (173) 
nan

>  <Pocket>  (173) 
nan

>  <ATP_Site>  (173) 
nan

>  <Peripheral>  (173) 
nan

>  <Num_H_Atoms_ProtBoundConf>  (173) 
nan

>  <Num_Resolved_Atoms>  (173) 
nan

>  <Num_Not_Resolved_Atoms>  (173) 
nan

$$$$
CHEMBL4467262
     RDKit          3D

  0  0  0  0  0  0  0  0  0  0999 V3000
M  V30 BEGIN CTAB
M  V30 COUNTS 47 50 0 0 0
M  V30 BEGIN ATOM
M  V30 1 O 3.116877 -0.005873 0.466299 0
M  V30 2 C 2.092581 -0.747044 0.404112 0
M  V30 3 N 2.537678 -2.063628 0.615348 0
M  V30 4 C 3.951170 -2.042675 0.813784 0
M  V30 5 C 4.317193 -1.894846 2.133470 0
M  V30 6 C 5.651271 -1.855589 2.494260 0
M  V30 7 N 6.553117 -1.968191 1.498924 0
M  V30 8 N 6.227518 -2.110223 0.231204 0
M  V30 9 C 4.934174 -2.152528 -0.156399 0
M  V30 10 C 0.725072 -0.258589 0.154935 0
M  V30 11 C 0.713009 1.138220 -0.003741 0
M  V30 12 C -0.431217 1.830532 -0.244086 0
M  V30 13 N -0.435767 3.244722 -0.403502 0
M  V30 14 C 0.563181 4.313377 -0.381958 0
M  V30 15 C -0.523409 5.275569 0.055158 0
M  V30 16 F -0.472501 6.504006 -0.547890 0
M  V30 17 C -1.418069 4.278217 -0.658683 0
M  V30 18 C -1.637337 1.170977 -0.341483 0
M  V30 19 C -1.583080 -0.189617 -0.181035 0
M  V30 20 C -0.472159 -0.962761 0.064005 0
M  V30 21 O -0.322809 -2.273186 0.231644 0
M  V30 22 C -1.219047 -3.318794 0.229216 0
M  V30 23 C -2.270760 -3.283649 1.265670 0
M  V30 24 C -1.886928 -3.766649 2.510942 0
M  V30 25 C -2.680544 -3.860392 3.634280 0
M  V30 26 C -3.979685 -3.443522 3.542454 0
M  V30 27 C -4.418023 -2.957276 2.340489 0
M  V30 28 C -3.586896 -2.883908 1.247066 0
M  V30 29 H 1.810530 -2.810392 0.596008 0
M  V30 30 H 3.617251 -1.800778 2.965463 0
M  V30 31 H 5.961995 -1.740576 3.521186 0
M  V30 32 H 4.530263 -2.264073 -1.153259 0
M  V30 33 H 1.609458 1.776016 0.051932 0
M  V30 34 H 0.990981 4.535560 -1.370666 0
M  V30 35 H 1.323669 4.224188 0.405715 0
M  V30 36 H -0.679519 5.334505 1.133270 0
M  V30 37 H -2.370121 4.153027 -0.106636 0
M  V30 38 H -1.536519 4.562317 -1.724594 0
M  V30 39 H -2.566080 1.681345 -0.530785 0
M  V30 40 H -2.514863 -0.711303 -0.263655 0
M  V30 41 H -1.680117 -3.369293 -0.796281 0
M  V30 42 H -0.682129 -4.306292 0.374672 0
M  V30 43 H -0.861575 -4.127906 2.692614 0
M  V30 44 H -2.344051 -4.237741 4.569990 0
M  V30 45 H -4.725041 -3.447743 4.314469 0
M  V30 46 H -5.439031 -2.598514 2.162732 0
M  V30 47 H -3.899627 -2.513299 0.264939 0
M  V30 END ATOM
M  V30 BEGIN BOND
M  V30 1 2 1 2
M  V30 2 1 2 3
M  V30 3 1 3 4
M  V30 4 2 4 5
M  V30 5 1 5 6
M  V30 6 2 6 7
M  V30 7 1 7 8
M  V30 8 2 8 9
M  V30 9 1 2 10
M  V30 10 2 10 11
M  V30 11 1 11 12
M  V30 12 1 12 13
M  V30 13 1 13 14
M  V30 14 1 14 15
M  V30 15 1 15 16
M  V30 16 1 15 17
M  V30 17 2 12 18
M  V30 18 1 18 19
M  V30 19 2 19 20
M  V30 20 1 20 21
M  V30 21 1 21 22
M  V30 22 1 22 23
M  V30 23 2 23 24
M  V30 24 1 24 25
M  V30 25 2 25 26
M  V30 26 1 26 27
M  V30 27 2 27 28
M  V30 28 1 9 4
M  V30 29 1 20 10
M  V30 30 1 28 23
M  V30 31 1 17 13
M  V30 32 1 3 29
M  V30 33 1 5 30
M  V30 34 1 6 31
M  V30 35 1 9 32
M  V30 36 1 11 33
M  V30 37 1 14 34
M  V30 38 1 14 35
M  V30 39 1 15 36
M  V30 40 1 17 37
M  V30 41 1 17 38
M  V30 42 1 18 39
M  V30 43 1 19 40
M  V30 44 1 22 41
M  V30 45 1 22 42
M  V30 46 1 24 43
M  V30 47 1 25 44
M  V30 48 1 26 45
M  V30 49 1 27 46
M  V30 50 1 28 47
M  V30 END BOND
M  V30 END CTAB
M  END
>  <Dataset>  (174) 
ChEMBL_Kinases

>  <Ligand_Instance>  (174) 
nan

>  <PDB_ID>  (174) 
nan

>  <Standardized_SMILES>  (174) 
O=C(Nc1ccnnc1)c1cc(N2CC(F)C2)ccc1OCc1ccccc1

>  <Name>  (174) 
nan

>  <Pocket>  (174) 
nan

>  <ATP_Site>  (174) 
nan

>  <Peripheral>  (174) 
nan

>  <Num_H_Atoms_ProtBoundConf>  (174) 
nan

>  <Num_Resolved_Atoms>  (174) 
nan

>  <Num_Not_Resolved_Atoms>  (174) 
nan

$$$$
CHEMBL471791
     RDKit          3D

  0  0  0  0  0  0  0  0  0  0999 V3000
M  V30 BEGIN CTAB
M  V30 COUNTS 58 63 0 0 0
M  V30 BEGIN ATOM
M  V30 1 C 5.494553 -1.202624 4.070936 0
M  V30 2 N 5.142034 0.162752 4.333059 0
M  V30 3 C 5.769777 1.143896 3.504713 0
M  V30 4 C 4.870807 2.381963 3.348850 0
M  V30 5 N 3.696271 1.946995 2.627557 0
M  V30 6 C 2.994357 2.706028 1.616501 0
M  V30 7 C 3.161227 4.041615 1.419039 0
M  V30 8 C 2.394542 4.715981 0.454946 0
M  V30 9 C 1.467180 4.054303 -0.301296 0
M  V30 10 C 1.361266 2.726556 -0.039529 0
M  V30 11 N 0.560633 1.809913 -0.606421 0
M  V30 12 C 0.614989 0.602820 -0.221968 0
M  V30 13 C 0.306185 -0.844761 -0.049453 0
M  V30 14 N 0.692634 -1.980847 0.546395 0
M  V30 15 N -0.126241 -2.959792 0.337847 0
M  V30 16 C -1.161665 -2.570005 -0.430615 0
M  V30 17 C -2.220592 -3.362424 -0.817237 0
M  V30 18 C -3.155182 -2.685542 -1.578660 0
M  V30 19 C -4.324288 -3.459144 -1.995272 0
M  V30 20 C -5.491894 -2.702902 -2.126770 0
M  V30 21 C -6.656558 -3.358882 -2.487201 0
M  V30 22 C -6.651301 -4.722602 -2.702273 0
M  V30 23 C -7.866759 -5.443906 -3.075613 0
M  V30 24 O -7.965726 -6.708630 -3.308839 0
M  V30 25 O -9.164505 -4.979309 -3.262929 0
M  V30 26 C -5.517562 -5.515682 -2.583313 0
M  V30 27 C -4.393312 -4.810364 -2.228142 0
M  V30 28 C -3.033791 -1.338259 -1.917570 0
M  V30 29 C -1.907063 -0.698545 -1.441241 0
M  V30 30 C -0.881733 -1.246048 -0.665751 0
M  V30 31 N 1.603832 0.741661 0.742729 0
M  V30 32 C 2.048809 1.971320 0.862910 0
M  V30 33 C 3.198107 0.632027 3.024933 0
M  V30 34 C 3.717800 0.272454 4.386771 0
M  V30 35 H 5.199154 -1.777769 5.001350 0
M  V30 36 H 4.956060 -1.645527 3.212333 0
M  V30 37 H 6.601055 -1.353407 3.997701 0
M  V30 38 H 6.731627 1.440185 3.968532 0
M  V30 39 H 5.920067 0.724756 2.484969 0
M  V30 40 H 4.521428 2.616059 4.394668 0
M  V30 41 H 5.401706 3.195010 2.884391 0
M  V30 42 H 3.902957 4.569570 2.012719 0
M  V30 43 H 2.523205 5.789423 0.291377 0
M  V30 44 H 0.829382 4.483155 -1.054950 0
M  V30 45 H -0.169278 1.818416 -1.348228 0
M  V30 46 H 0.214804 -3.808391 0.817032 0
M  V30 47 H -2.296840 -4.406241 -0.549434 0
M  V30 48 H -5.563673 -1.632631 -1.975114 0
M  V30 49 H -7.611867 -2.827104 -2.617105 0
M  V30 50 H -9.607129 -4.943332 -4.170335 0
M  V30 51 H -5.490234 -6.571019 -2.744629 0
M  V30 52 H -3.456328 -5.365155 -2.111059 0
M  V30 53 H -3.769658 -0.824891 -2.509860 0
M  V30 54 H -1.854206 0.339217 -1.728188 0
M  V30 55 H 3.489478 -0.151209 2.320216 0
M  V30 56 H 2.076625 0.653137 3.057486 0
M  V30 57 H 3.256792 -0.699889 4.675586 0
M  V30 58 H 3.362651 1.019771 5.140713 0
M  V30 END ATOM
M  V30 BEGIN BOND
M  V30 1 1 1 2
M  V30 2 1 2 3
M  V30 3 1 3 4
M  V30 4 1 4 5
M  V30 5 1 5 6
M  V30 6 2 6 7
M  V30 7 1 7 8
M  V30 8 2 8 9
M  V30 9 1 9 10
M  V30 10 1 10 11
M  V30 11 1 11 12
M  V30 12 1 12 13
M  V30 13 2 13 14
M  V30 14 1 14 15
M  V30 15 1 15 16
M  V30 16 2 16 17
M  V30 17 1 17 18
M  V30 18 1 18 19
M  V30 19 2 19 20
M  V30 20 1 20 21
M  V30 21 2 21 22
M  V30 22 1 22 23
M  V30 23 2 23 24
M  V30 24 1 23 25
M  V30 25 1 22 26
M  V30 26 2 26 27
M  V30 27 2 18 28
M  V30 28 1 28 29
M  V30 29 2 29 30
M  V30 30 2 12 31
M  V30 31 1 31 32
M  V30 32 1 5 33
M  V30 33 1 33 34
M  V30 34 1 34 2
M  V30 35 1 32 6
M  V30 36 2 32 10
M  V30 37 1 30 13
M  V30 38 1 30 16
M  V30 39 1 27 19
M  V30 40 1 1 35
M  V30 41 1 1 36
M  V30 42 1 1 37
M  V30 43 1 3 38
M  V30 44 1 3 39
M  V30 45 1 4 40
M  V30 46 1 4 41
M  V30 47 1 7 42
M  V30 48 1 8 43
M  V30 49 1 9 44
M  V30 50 1 11 45
M  V30 51 1 15 46
M  V30 52 1 17 47
M  V30 53 1 20 48
M  V30 54 1 21 49
M  V30 55 1 25 50
M  V30 56 1 26 51
M  V30 57 1 27 52
M  V30 58 1 28 53
M  V30 59 1 29 54
M  V30 60 1 33 55
M  V30 61 1 33 56
M  V30 62 1 34 57
M  V30 63 1 34 58
M  V30 END BOND
M  V30 END CTAB
M  END
>  <Dataset>  (175) 
ChEMBL_Kinases

>  <Ligand_Instance>  (175) 
nan

>  <PDB_ID>  (175) 
nan

>  <Standardized_SMILES>  (175) 
CN1CCN(c2cccc3[nH]c(-c4n[nH]c5cc(-c6ccc(C(=O)O)cc6)ccc45)nc23)CC1

>  <Name>  (175) 
nan

>  <Pocket>  (175) 
nan

>  <ATP_Site>  (175) 
nan

>  <Peripheral>  (175) 
nan

>  <Num_H_Atoms_ProtBoundConf>  (175) 
nan

>  <Num_Resolved_Atoms>  (175) 
nan

>  <Num_Not_Resolved_Atoms>  (175) 
nan

$$$$
CHEMBL471832
     RDKit          3D

  0  0  0  0  0  0  0  0  0  0999 V3000
M  V30 BEGIN CTAB
M  V30 COUNTS 51 55 0 0 0
M  V30 BEGIN ATOM
M  V30 1 C 2.823690 -5.684178 3.185393 0
M  V30 2 O 2.172474 -5.208845 2.023718 0
M  V30 3 C 2.531913 -3.997157 1.504390 0
M  V30 4 C 3.484323 -3.117667 1.964031 0
M  V30 5 C 3.706752 -1.931152 1.299120 0
M  V30 6 C 2.998113 -1.569084 0.156945 0
M  V30 7 C 3.383714 -0.275585 -0.395118 0
M  V30 8 C 4.708579 0.144677 -0.561316 0
M  V30 9 O 4.614755 1.347099 -1.079715 0
M  V30 10 C 3.381241 1.722212 -1.254509 0
M  V30 11 C 2.886514 2.908169 -1.770426 0
M  V30 12 C 1.511765 3.009196 -1.829231 0
M  V30 13 C 0.617679 2.021557 -1.414019 0
M  V30 14 C -0.819653 2.229549 -1.519348 0
M  V30 15 N -1.400551 3.339617 -2.001957 0
M  V30 16 N -2.732884 3.201591 -1.957790 0
M  V30 17 C -2.954604 1.964046 -1.429568 0
M  V30 18 S -4.668063 1.495126 -1.248137 0
M  V30 19 C -4.821708 -0.164819 -0.537368 0
M  V30 20 C -4.341980 -0.250952 0.856083 0
M  V30 21 C -5.299723 0.006883 1.842621 0
M  V30 22 C -4.982344 -0.041251 3.183312 0
M  V30 23 C -3.709959 -0.346170 3.554956 0
M  V30 24 C -2.720430 -0.610876 2.615976 0
M  V30 25 C -1.289975 -0.959748 2.869087 0
M  V30 26 F -0.984034 -2.138122 2.176438 0
M  V30 27 F -0.426375 0.066469 2.537742 0
M  V30 28 F -1.157405 -1.256143 4.232496 0
M  V30 29 C -3.061759 -0.557040 1.265535 0
M  V30 30 O -1.779011 1.401837 -1.175201 0
M  V30 31 C 1.173033 0.863993 -0.909601 0
M  V30 32 C 2.524577 0.717839 -0.831825 0
M  V30 33 C 2.045108 -2.456881 -0.297016 0
M  V30 34 C 1.824377 -3.642618 0.369459 0
M  V30 35 H 2.227390 -6.491960 3.698351 0
M  V30 36 H 3.808251 -6.113780 2.854431 0
M  V30 37 H 2.982843 -4.850383 3.886418 0
M  V30 38 H 4.014969 -3.430330 2.852132 0
M  V30 39 H 4.490397 -1.309378 1.757779 0
M  V30 40 H 5.615597 -0.394391 -0.319450 0
M  V30 41 H 3.487127 3.740429 -2.121616 0
M  V30 42 H 1.058972 3.917514 -2.224768 0
M  V30 43 H -4.164318 -0.864834 -1.124014 0
M  V30 44 H -5.850264 -0.529789 -0.669171 0
M  V30 45 H -6.321916 0.252170 1.572192 0
M  V30 46 H -5.719503 0.157366 3.955583 0
M  V30 47 H -3.359287 -0.409167 4.588225 0
M  V30 48 H -2.377732 -0.743640 0.453321 0
M  V30 49 H 0.534782 0.057001 -0.569359 0
M  V30 50 H 1.531236 -2.116535 -1.186604 0
M  V30 51 H 1.051008 -4.228575 -0.103946 0
M  V30 END ATOM
M  V30 BEGIN BOND
M  V30 1 1 1 2
M  V30 2 1 2 3
M  V30 3 2 3 4
M  V30 4 1 4 5
M  V30 5 2 5 6
M  V30 6 1 6 7
M  V30 7 2 7 8
M  V30 8 1 8 9
M  V30 9 1 9 10
M  V30 10 2 10 11
M  V30 11 1 11 12
M  V30 12 2 12 13
M  V30 13 1 13 14
M  V30 14 2 14 15
M  V30 15 1 15 16
M  V30 16 2 16 17
M  V30 17 1 17 18
M  V30 18 1 18 19
M  V30 19 1 19 20
M  V30 20 2 20 21
M  V30 21 1 21 22
M  V30 22 2 22 23
M  V30 23 1 23 24
M  V30 24 1 24 25
M  V30 25 1 25 26
M  V30 26 1 25 27
M  V30 27 1 25 28
M  V30 28 2 24 29
M  V30 29 1 17 30
M  V30 30 1 13 31
M  V30 31 2 31 32
M  V30 32 1 6 33
M  V30 33 2 33 34
M  V30 34 1 34 3
M  V30 35 1 32 7
M  V30 36 1 32 10
M  V30 37 1 30 14
M  V30 38 1 29 20
M  V30 39 1 1 35
M  V30 40 1 1 36
M  V30 41 1 1 37
M  V30 42 1 4 38
M  V30 43 1 5 39
M  V30 44 1 8 40
M  V30 45 1 11 41
M  V30 46 1 12 42
M  V30 47 1 19 43
M  V30 48 1 19 44
M  V30 49 1 21 45
M  V30 50 1 22 46
M  V30 51 1 23 47
M  V30 52 1 29 48
M  V30 53 1 31 49
M  V30 54 1 33 50
M  V30 55 1 34 51
M  V30 END BOND
M  V30 END CTAB
M  END
>  <Dataset>  (176) 
ChEMBL_Kinases

>  <Ligand_Instance>  (176) 
nan

>  <PDB_ID>  (176) 
nan

>  <Standardized_SMILES>  (176) 
COc1ccc(-c2coc3ccc(-c4nnc(SCc5cccc(C(F)(F)F)c5)o4)cc23)cc1

>  <Name>  (176) 
nan

>  <Pocket>  (176) 
nan

>  <ATP_Site>  (176) 
nan

>  <Peripheral>  (176) 
nan

>  <Num_H_Atoms_ProtBoundConf>  (176) 
nan

>  <Num_Resolved_Atoms>  (176) 
nan

>  <Num_Not_Resolved_Atoms>  (176) 
nan

$$$$
CHEMBL471833
     RDKit          3D

  0  0  0  0  0  0  0  0  0  0999 V3000
M  V30 BEGIN CTAB
M  V30 COUNTS 49 53 0 0 0
M  V30 BEGIN ATOM
M  V30 1 C 1.397687 -5.421917 3.041619 0
M  V30 2 O 1.640927 -5.239940 1.674287 0
M  V30 3 C 1.942952 -4.032686 1.065010 0
M  V30 4 C 2.068007 -2.776480 1.651408 0
M  V30 5 C 2.374249 -1.680006 0.892392 0
M  V30 6 C 2.572719 -1.770676 -0.488184 0
M  V30 7 C 2.893395 -0.532787 -1.190076 0
M  V30 8 C 3.893892 -0.397830 -2.136900 0
M  V30 9 O 3.939901 0.847788 -2.592316 0
M  V30 10 C 3.018855 1.550976 -1.995852 0
M  V30 11 C 2.589084 2.863041 -2.044712 0
M  V30 12 C 1.541457 3.364062 -1.267190 0
M  V30 13 C 0.904088 2.496597 -0.404533 0
M  V30 14 C -0.199408 2.944908 0.439032 0
M  V30 15 N -0.738750 4.176336 0.511672 0
M  V30 16 N -1.716519 4.182156 1.390142 0
M  V30 17 C -1.807128 2.930284 1.891617 0
M  V30 18 S -3.038942 2.553743 3.127286 0
M  V30 19 C -2.955861 0.817047 3.635363 0
M  V30 20 C -3.329955 -0.086494 2.526378 0
M  V30 21 C -4.679598 -0.396365 2.420998 0
M  V30 22 C -5.215810 -1.231532 1.442617 0
M  V30 23 C -4.342455 -1.785856 0.518138 0
M  V30 24 C -3.016840 -1.489152 0.611786 0
M  V30 25 C -2.041200 -2.022490 -0.307880 0
M  V30 26 N -1.257776 -2.470439 -1.059374 0
M  V30 27 C -2.500343 -0.656471 1.591321 0
M  V30 28 O -0.879391 2.238016 1.288402 0
M  V30 29 C 1.305059 1.178389 -0.327490 0
M  V30 30 C 2.337608 0.738075 -1.111497 0
M  V30 31 C 2.451015 -3.011400 -1.079012 0
M  V30 32 C 2.143913 -4.105660 -0.312044 0
M  V30 33 H 1.777523 -4.578905 3.670883 0
M  V30 34 H 0.330036 -5.579944 3.301017 0
M  V30 35 H 1.935773 -6.343870 3.384023 0
M  V30 36 H 1.902121 -2.782433 2.714232 0
M  V30 37 H 2.436446 -0.782555 1.490279 0
M  V30 38 H 4.575610 -1.179012 -2.491914 0
M  V30 39 H 3.075712 3.554684 -2.713062 0
M  V30 40 H 1.239561 4.401182 -1.339935 0
M  V30 41 H -3.663976 0.696140 4.490456 0
M  V30 42 H -1.930949 0.569898 4.032977 0
M  V30 43 H -5.414232 0.010225 3.120063 0
M  V30 44 H -6.274548 -1.438283 1.407907 0
M  V30 45 H -4.690485 -2.439587 -0.263639 0
M  V30 46 H -1.456051 -0.411357 1.682944 0
M  V30 47 H 0.781403 0.530971 0.358786 0
M  V30 48 H 2.606462 -3.069670 -2.145901 0
M  V30 49 H 2.067661 -5.038170 -0.855927 0
M  V30 END ATOM
M  V30 BEGIN BOND
M  V30 1 1 1 2
M  V30 2 1 2 3
M  V30 3 2 3 4
M  V30 4 1 4 5
M  V30 5 2 5 6
M  V30 6 1 6 7
M  V30 7 2 7 8
M  V30 8 1 8 9
M  V30 9 1 9 10
M  V30 10 2 10 11
M  V30 11 1 11 12
M  V30 12 2 12 13
M  V30 13 1 13 14
M  V30 14 2 14 15
M  V30 15 1 15 16
M  V30 16 2 16 17
M  V30 17 1 17 18
M  V30 18 1 18 19
M  V30 19 1 19 20
M  V30 20 2 20 21
M  V30 21 1 21 22
M  V30 22 2 22 23
M  V30 23 1 23 24
M  V30 24 1 24 25
M  V30 25 3 25 26
M  V30 26 2 24 27
M  V30 27 1 17 28
M  V30 28 1 13 29
M  V30 29 2 29 30
M  V30 30 1 6 31
M  V30 31 2 31 32
M  V30 32 1 32 3
M  V30 33 1 30 7
M  V30 34 1 30 10
M  V30 35 1 28 14
M  V30 36 1 27 20
M  V30 37 1 1 33
M  V30 38 1 1 34
M  V30 39 1 1 35
M  V30 40 1 4 36
M  V30 41 1 5 37
M  V30 42 1 8 38
M  V30 43 1 11 39
M  V30 44 1 12 40
M  V30 45 1 19 41
M  V30 46 1 19 42
M  V30 47 1 21 43
M  V30 48 1 22 44
M  V30 49 1 23 45
M  V30 50 1 27 46
M  V30 51 1 29 47
M  V30 52 1 31 48
M  V30 53 1 32 49
M  V30 END BOND
M  V30 END CTAB
M  END
>  <Dataset>  (177) 
ChEMBL_Kinases

>  <Ligand_Instance>  (177) 
nan

>  <PDB_ID>  (177) 
nan

>  <Standardized_SMILES>  (177) 
COc1ccc(-c2coc3ccc(-c4nnc(SCc5cccc(C#N)c5)o4)cc23)cc1

>  <Name>  (177) 
nan

>  <Pocket>  (177) 
nan

>  <ATP_Site>  (177) 
nan

>  <Peripheral>  (177) 
nan

>  <Num_H_Atoms_ProtBoundConf>  (177) 
nan

>  <Num_Resolved_Atoms>  (177) 
nan

>  <Num_Not_Resolved_Atoms>  (177) 
nan

$$$$
CHEMBL471317
     RDKit          3D

  0  0  0  0  0  0  0  0  0  0999 V3000
M  V30 BEGIN CTAB
M  V30 COUNTS 53 55 0 0 0
M  V30 BEGIN ATOM
M  V30 1 C -3.271872 -1.363073 -3.391741 0
M  V30 2 N -4.349919 -0.827836 -2.566941 0
M  V30 3 C -5.221942 -1.799108 -1.935252 0
M  V30 4 C -4.717914 0.492655 -2.254248 0
M  V30 5 C -5.908810 0.844116 -2.898653 0
M  V30 6 C -6.473770 2.092343 -2.796120 0
M  V30 7 C -5.866254 3.052558 -2.037264 0
M  V30 8 C -4.684898 2.696278 -1.399986 0
M  V30 9 C -4.100236 1.453476 -1.486703 0
M  V30 10 C -2.893134 1.030977 -0.801704 0
M  V30 11 O -2.360208 1.957648 -0.159543 0
M  V30 12 O -2.374678 -0.188848 -0.819508 0
M  V30 13 C -1.274354 -0.793850 -0.271066 0
M  V30 14 C 0.072939 -0.412247 -0.730257 0
M  V30 15 C 0.482531 0.980344 -0.358956 0
M  V30 16 O 1.864104 1.177193 -0.537086 0
M  V30 17 C 1.147946 -1.326020 -0.118799 0
M  V30 18 C 2.296501 -0.987389 -0.985448 0
M  V30 19 C 3.605479 -0.944350 -0.803961 0
M  V30 20 C 4.138218 -1.289781 0.506545 0
M  V30 21 C 3.666208 -2.291039 1.330358 0
M  V30 22 C 4.259784 -2.509707 2.556477 0
M  V30 23 C 5.332711 -1.740578 2.990077 0
M  V30 24 C 5.825198 -0.732329 2.185412 0
M  V30 25 C 5.208504 -0.539410 0.963946 0
M  V30 26 N 5.772143 0.518963 0.184926 0 CHG=1 VAL=4
M  V30 27 O 5.284101 1.316925 -0.635839 0
M  V30 28 O 7.127187 0.838891 0.254010 0 CHG=-1 VAL=1
M  V30 29 C 1.692628 -0.656834 -2.267517 0
M  V30 30 O 2.256019 -0.433116 -3.370976 0
M  V30 31 O 0.324225 -0.621762 -2.089288 0
M  V30 32 H -3.617293 -1.431699 -4.470193 0
M  V30 33 H -2.983671 -2.371227 -3.041036 0
M  V30 34 H -2.381254 -0.719496 -3.443835 0
M  V30 35 H -5.329981 -1.572903 -0.867283 0
M  V30 36 H -6.214840 -1.717158 -2.466463 0
M  V30 37 H -4.896456 -2.856352 -2.123904 0
M  V30 38 H -6.511854 0.182053 -3.541146 0
M  V30 39 H -7.389254 2.396242 -3.278524 0
M  V30 40 H -6.206800 4.049895 -1.884033 0
M  V30 41 H -4.160397 3.416050 -0.785735 0
M  V30 42 H -1.389368 -1.924808 -0.334244 0
M  V30 43 H -1.326850 -0.647896 0.865708 0
M  V30 44 H 0.024107 1.632427 -1.143438 0
M  V30 45 H 0.147450 1.257711 0.634972 0
M  V30 46 H 1.997893 1.613203 -1.405790 0
M  V30 47 H 1.304960 -1.069557 0.947371 0
M  V30 48 H 0.875832 -2.378246 -0.308066 0
M  V30 49 H 4.295435 -0.664794 -1.583564 0
M  V30 50 H 2.834941 -2.886330 0.982846 0
M  V30 51 H 3.920101 -3.283610 3.230693 0
M  V30 52 H 5.831795 -1.884713 3.962182 0
M  V30 53 H 6.659840 -0.138427 2.528996 0
M  V30 END ATOM
M  V30 BEGIN BOND
M  V30 1 1 1 2
M  V30 2 1 2 3
M  V30 3 1 2 4
M  V30 4 2 4 5
M  V30 5 1 5 6
M  V30 6 2 6 7
M  V30 7 1 7 8
M  V30 8 2 8 9
M  V30 9 1 9 10
M  V30 10 2 10 11
M  V30 11 1 10 12
M  V30 12 1 12 13
M  V30 13 1 13 14
M  V30 14 1 14 15
M  V30 15 1 15 16
M  V30 16 1 14 17
M  V30 17 1 17 18
M  V30 18 2 18 19
M  V30 19 1 19 20
M  V30 20 2 20 21
M  V30 21 1 21 22
M  V30 22 2 22 23
M  V30 23 1 23 24
M  V30 24 2 24 25
M  V30 25 1 25 26
M  V30 26 2 26 27
M  V30 27 1 26 28
M  V30 28 1 18 29
M  V30 29 2 29 30
M  V30 30 1 29 31
M  V30 31 1 9 4
M  V30 32 1 31 14
M  V30 33 1 25 20
M  V30 34 1 1 32
M  V30 35 1 1 33
M  V30 36 1 1 34
M  V30 37 1 3 35
M  V30 38 1 3 36
M  V30 39 1 3 37
M  V30 40 1 5 38
M  V30 41 1 6 39
M  V30 42 1 7 40
M  V30 43 1 8 41
M  V30 44 1 13 42
M  V30 45 1 13 43
M  V30 46 1 15 44
M  V30 47 1 15 45
M  V30 48 1 16 46
M  V30 49 1 17 47
M  V30 50 1 17 48
M  V30 51 1 19 49
M  V30 52 1 21 50
M  V30 53 1 22 51
M  V30 54 1 23 52
M  V30 55 1 24 53
M  V30 END BOND
M  V30 END CTAB
M  END
>  <Dataset>  (178) 
ChEMBL_Kinases

>  <Ligand_Instance>  (178) 
nan

>  <PDB_ID>  (178) 
nan

>  <Standardized_SMILES>  (178) 
CN(C)c1ccccc1C(=O)OCC1(CO)C/C(=C\c2ccccc2[N+](=O)[O-])C(=O)O1

>  <Name>  (178) 
nan

>  <Pocket>  (178) 
nan

>  <ATP_Site>  (178) 
nan

>  <Peripheral>  (178) 
nan

>  <Num_H_Atoms_ProtBoundConf>  (178) 
nan

>  <Num_Resolved_Atoms>  (178) 
nan

>  <Num_Not_Resolved_Atoms>  (178) 
nan

$$$$
CHEMBL4468352
     RDKit          3D

  0  0  0  0  0  0  0  0  0  0999 V3000
M  V30 BEGIN CTAB
M  V30 COUNTS 64 67 0 0 0
M  V30 BEGIN ATOM
M  V30 1 C 9.020942 -0.113601 -1.564093 0
M  V30 2 O 7.676305 0.132754 -1.213795 0
M  V30 3 C 7.323392 1.254549 -0.485764 0
M  V30 4 C 8.222641 2.224241 -0.039495 0
M  V30 5 C 7.829061 3.324412 0.681487 0
M  V30 6 C 6.478916 3.486813 0.985112 0
M  V30 7 O 6.259760 4.665009 1.727278 0
M  V30 8 C 5.529676 2.576121 0.582673 0
M  V30 9 C 4.191205 2.880708 0.945902 0
M  V30 10 O 3.998957 4.044383 1.447270 0
M  V30 11 C 2.895850 2.238441 0.921994 0
M  V30 12 C 1.744781 2.980307 0.699141 0
M  V30 13 C 0.474497 2.374355 0.700590 0
M  V30 14 C 0.341527 1.036384 0.922707 0
M  V30 15 C -1.012712 0.500732 0.916362 0
M  V30 16 O -1.950871 1.330903 0.747554 0
M  V30 17 N -1.437008 -0.847076 1.076095 0
M  V30 18 C -2.791972 -1.274986 1.060186 0 CFG=2
M  V30 19 C -3.310957 -1.887616 2.310698 0
M  V30 20 C -2.749204 -3.162217 2.767654 0
M  V30 21 C -2.193875 -4.110492 1.776116 0
M  V30 22 N -1.501096 -3.556408 0.683149 0
M  V30 23 C -2.230412 -3.185596 -0.467947 0
M  V30 24 C -3.154942 -2.042681 -0.167790 0 CFG=1
M  V30 25 N -4.509685 -2.613100 -0.058881 0
M  V30 26 C -5.568726 -2.212200 -0.931197 0
M  V30 27 O -5.239968 -1.351872 -1.774302 0
M  V30 28 C -6.910999 -2.776366 -0.823909 0
M  V30 29 C -7.335124 -3.738218 0.071268 0
M  V30 30 C -8.652672 -4.161269 0.035160 0
M  V30 31 N -9.550237 -3.677682 -0.837313 0
M  V30 32 C -9.172194 -2.741846 -1.721734 0
M  V30 33 C -7.859378 -2.300767 -1.707057 0
M  V30 34 C 1.463894 0.268064 1.148579 0
M  V30 35 C 2.691935 0.890682 1.140828 0
M  V30 36 C 6.014865 1.507562 -0.134626 0
M  V30 37 F 5.120161 0.601371 -0.585629 0
M  V30 38 H 9.154254 -1.200192 -1.843459 0
M  V30 39 H 9.403818 0.471101 -2.398864 0
M  V30 40 H 9.654472 0.107708 -0.665801 0
M  V30 41 H 9.266156 2.074244 -0.288700 0
M  V30 42 H 8.603208 3.999956 0.968376 0
M  V30 43 H 6.137059 5.491498 1.121698 0
M  V30 44 H 1.815478 4.064033 0.515343 0
M  V30 45 H -0.356896 3.071482 0.511472 0
M  V30 46 H -0.580732 -1.468002 1.209274 0
M  V30 47 H -3.390977 -0.301134 0.960371 0
M  V30 48 H -4.437773 -1.893196 2.208565 0
M  V30 49 H -3.179309 -1.127438 3.137212 0
M  V30 50 H -3.594127 -3.718750 3.274750 0
M  V30 51 H -2.029501 -3.006865 3.619497 0
M  V30 52 H -1.440974 -4.755677 2.322116 0
M  V30 53 H -2.930975 -4.871780 1.401740 0
M  V30 54 H -0.609663 -4.001285 0.399648 0
M  V30 55 H -1.503332 -2.830533 -1.239694 0
M  V30 56 H -2.764981 -4.059527 -0.904408 0
M  V30 57 H -3.158943 -1.314897 -1.037885 0
M  V30 58 H -4.691621 -3.327914 0.678038 0
M  V30 59 H -6.584073 -4.102397 0.758023 0
M  V30 60 H -8.960826 -4.928735 0.761351 0
M  V30 61 H -9.938251 -2.391263 -2.396613 0
M  V30 62 H -7.633254 -1.550700 -2.443409 0
M  V30 63 H 1.324286 -0.787759 1.321640 0
M  V30 64 H 3.491604 0.208843 1.349164 0
M  V30 END ATOM
M  V30 BEGIN BOND
M  V30 1 1 1 2
M  V30 2 1 2 3
M  V30 3 2 3 4
M  V30 4 1 4 5
M  V30 5 2 5 6
M  V30 6 1 6 7
M  V30 7 1 6 8
M  V30 8 1 8 9
M  V30 9 2 9 10
M  V30 10 1 9 11
M  V30 11 2 11 12
M  V30 12 1 12 13
M  V30 13 2 13 14
M  V30 14 1 14 15
M  V30 15 2 15 16
M  V30 16 1 15 17
M  V30 17 1 17 18
M  V30 18 1 18 19
M  V30 19 1 19 20
M  V30 20 1 20 21
M  V30 21 1 21 22
M  V30 22 1 22 23
M  V30 23 1 23 24
M  V30 24 1 24 25
M  V30 25 1 25 26
M  V30 26 2 26 27
M  V30 27 1 26 28
M  V30 28 2 28 29
M  V30 29 1 29 30
M  V30 30 2 30 31
M  V30 31 1 31 32
M  V30 32 2 32 33
M  V30 33 1 14 34
M  V30 34 2 34 35
M  V30 35 2 8 36
M  V30 36 1 36 37
M  V30 37 1 36 3
M  V30 38 1 35 11
M  V30 39 1 24 18
M  V30 40 1 33 28
M  V30 41 1 1 38
M  V30 42 1 1 39
M  V30 43 1 1 40
M  V30 44 1 4 41
M  V30 45 1 5 42
M  V30 46 1 7 43
M  V30 47 1 12 44
M  V30 48 1 13 45
M  V30 49 1 17 46
M  V30 50 1 18 47 CFG=3
M  V30 51 1 19 48
M  V30 52 1 19 49
M  V30 53 1 20 50
M  V30 54 1 20 51
M  V30 55 1 21 52
M  V30 56 1 21 53
M  V30 57 1 22 54
M  V30 58 1 23 55
M  V30 59 1 23 56
M  V30 60 1 24 57 CFG=3
M  V30 61 1 25 58
M  V30 62 1 29 59
M  V30 63 1 30 60
M  V30 64 1 32 61
M  V30 65 1 33 62
M  V30 66 1 34 63
M  V30 67 1 35 64
M  V30 END BOND
M  V30 END CTAB
M  END
>  <Dataset>  (179) 
ChEMBL_Kinases

>  <Ligand_Instance>  (179) 
nan

>  <PDB_ID>  (179) 
nan

>  <Standardized_SMILES>  (179) 
COc1ccc(O)c(C(=O)c2ccc(C(=O)N[C@@H]3CCCNC[C@H]3NC(=O)c3ccncc3)cc2)c1F

>  <Name>  (179) 
nan

>  <Pocket>  (179) 
nan

>  <ATP_Site>  (179) 
nan

>  <Peripheral>  (179) 
nan

>  <Num_H_Atoms_ProtBoundConf>  (179) 
nan

>  <Num_Resolved_Atoms>  (179) 
nan

>  <Num_Not_Resolved_Atoms>  (179) 
nan

$$$$
CHEMBL4468342
     RDKit          3D

  0  0  0  0  0  0  0  0  0  0999 V3000
M  V30 BEGIN CTAB
M  V30 COUNTS 55 59 0 0 0
M  V30 BEGIN ATOM
M  V30 1 C 3.360473 -2.957129 3.483626 0
M  V30 2 O 3.157447 -1.574938 3.748082 0
M  V30 3 C 3.186522 -0.645954 2.715112 0
M  V30 4 C 2.983611 0.669876 3.038117 0
M  V30 5 C 2.996539 1.650986 2.077416 0
M  V30 6 C 3.218013 1.313210 0.754764 0
M  V30 7 S 3.265493 2.440903 -0.585714 0
M  V30 8 O 3.824344 3.760279 -0.113567 0
M  V30 9 O 4.241601 1.915340 -1.626059 0
M  V30 10 N 1.790283 2.728584 -1.333509 0
M  V30 11 C 1.116376 1.659041 -1.946196 0
M  V30 12 C 0.003066 0.975980 -1.283515 0
M  V30 13 C -0.671781 1.684307 -0.179341 0
M  V30 14 C -0.170703 2.961793 0.033407 0
M  V30 15 S -1.127836 3.611798 1.422407 0
M  V30 16 C -2.138044 2.051170 1.583408 0
M  V30 17 N -3.173418 1.785028 2.526182 0
M  V30 18 C -3.746543 0.592456 2.441257 0
M  V30 19 N -3.312079 -0.217403 1.510168 0
M  V30 20 C -2.359984 0.024396 0.641479 0
M  V30 21 N -2.109494 -1.049932 -0.248565 0
M  V30 22 C -2.845883 -2.257396 -0.217755 0
M  V30 23 C -4.221286 -2.176616 0.010149 0
M  V30 24 C -5.031055 -3.301600 0.089809 0
M  V30 25 C -4.484012 -4.557891 -0.058046 0
M  V30 26 C -3.145765 -4.691480 -0.282886 0
M  V30 27 O -2.588319 -5.947950 -0.432846 0
M  V30 28 C -1.206400 -6.127405 -0.667238 0
M  V30 29 C -2.388554 -3.565382 -0.353815 0
M  V30 30 C -1.657725 1.188384 0.573964 0
M  V30 31 C 0.918788 3.679316 -0.685191 0
M  V30 32 C 3.420717 -0.026504 0.454138 0
M  V30 33 C 3.410459 -1.022144 1.408710 0
M  V30 34 H 2.527729 -3.400338 2.890882 0
M  V30 35 H 4.334706 -3.169737 3.020697 0
M  V30 36 H 3.338143 -3.481556 4.459361 0
M  V30 37 H 2.806501 0.988762 4.052762 0
M  V30 38 H 2.841661 2.722011 2.266967 0
M  V30 39 H 1.919410 0.930947 -2.294072 0
M  V30 40 H 0.725629 2.046757 -2.936662 0
M  V30 41 H -0.814546 0.691783 -2.015555 0
M  V30 42 H 0.397739 -0.027257 -0.916142 0
M  V30 43 H -4.501985 0.511082 3.194385 0
M  V30 44 H -1.484376 -1.290102 -1.038142 0
M  V30 45 H -4.821796 -1.287824 0.138914 0
M  V30 46 H -6.094782 -3.303972 0.263012 0
M  V30 47 H -5.074716 -5.459169 -0.003059 0
M  V30 48 H -0.677340 -5.987528 0.315903 0
M  V30 49 H -1.007895 -7.167358 -1.054545 0
M  V30 50 H -0.867052 -5.382667 -1.413024 0
M  V30 51 H -1.302405 -3.601604 -0.533002 0
M  V30 52 H 0.460578 4.332935 -1.451969 0
M  V30 53 H 1.560603 4.245900 0.024001 0
M  V30 54 H 3.599241 -0.358656 -0.558007 0
M  V30 55 H 3.565180 -2.066464 1.196591 0
M  V30 END ATOM
M  V30 BEGIN BOND
M  V30 1 1 1 2
M  V30 2 1 2 3
M  V30 3 2 3 4
M  V30 4 1 4 5
M  V30 5 2 5 6
M  V30 6 1 6 7
M  V30 7 2 7 8
M  V30 8 2 7 9
M  V30 9 1 7 10
M  V30 10 1 10 11
M  V30 11 1 11 12
M  V30 12 1 12 13
M  V30 13 2 13 14
M  V30 14 1 14 15
M  V30 15 1 15 16
M  V30 16 2 16 17
M  V30 17 1 17 18
M  V30 18 2 18 19
M  V30 19 1 19 20
M  V30 20 1 20 21
M  V30 21 1 21 22
M  V30 22 2 22 23
M  V30 23 1 23 24
M  V30 24 2 24 25
M  V30 25 1 25 26
M  V30 26 1 26 27
M  V30 27 1 27 28
M  V30 28 2 26 29
M  V30 29 2 20 30
M  V30 30 1 14 31
M  V30 31 1 6 32
M  V30 32 2 32 33
M  V30 33 1 33 3
M  V30 34 1 31 10
M  V30 35 1 30 13
M  V30 36 1 30 16
M  V30 37 1 29 22
M  V30 38 1 1 34
M  V30 39 1 1 35
M  V30 40 1 1 36
M  V30 41 1 4 37
M  V30 42 1 5 38
M  V30 43 1 11 39
M  V30 44 1 11 40
M  V30 45 1 12 41
M  V30 46 1 12 42
M  V30 47 1 18 43
M  V30 48 1 21 44
M  V30 49 1 23 45
M  V30 50 1 24 46
M  V30 51 1 25 47
M  V30 52 1 28 48
M  V30 53 1 28 49
M  V30 54 1 28 50
M  V30 55 1 29 51
M  V30 56 1 31 52
M  V30 57 1 31 53
M  V30 58 1 32 54
M  V30 59 1 33 55
M  V30 END BOND
M  V30 END CTAB
M  END
>  <Dataset>  (180) 
ChEMBL_Kinases

>  <Ligand_Instance>  (180) 
nan

>  <PDB_ID>  (180) 
nan

>  <Standardized_SMILES>  (180) 
COc1ccc(S(=O)(=O)N2CCc3c(sc4ncnc(Nc5cccc(OC)c5)c34)C2)cc1

>  <Name>  (180) 
nan

>  <Pocket>  (180) 
nan

>  <ATP_Site>  (180) 
nan

>  <Peripheral>  (180) 
nan

>  <Num_H_Atoms_ProtBoundConf>  (180) 
nan

>  <Num_Resolved_Atoms>  (180) 
nan

>  <Num_Not_Resolved_Atoms>  (180) 
nan

$$$$
CHEMBL4468249
     RDKit          3D

  0  0  0  0  0  0  0  0  0  0999 V3000
M  V30 BEGIN CTAB
M  V30 COUNTS 54 57 0 0 0
M  V30 BEGIN ATOM
M  V30 1 C 1.410551 -5.305387 3.483483 0
M  V30 2 O 1.607583 -4.911962 2.148117 0
M  V30 3 C 1.644550 -3.586506 1.831419 0
M  V30 4 C 1.501151 -2.483246 2.664718 0
M  V30 5 C 1.567681 -1.175053 2.207990 0
M  V30 6 N 1.410144 -0.160187 3.076310 0
M  V30 7 C 1.474654 1.079971 2.573890 0
M  V30 8 N 1.681637 1.323217 1.294847 0
M  V30 9 C 1.854721 0.362769 0.335586 0
M  V30 10 C 2.100201 0.683737 -1.091095 0
M  V30 11 C 2.224956 2.222700 -1.117193 0
M  V30 12 C 0.867431 2.829560 -1.083371 0
M  V30 13 N -0.221168 1.998621 -0.699999 0
M  V30 14 C -1.303844 2.409290 0.179589 0
M  V30 15 O -1.233000 3.597551 0.612711 0
M  V30 16 C -2.364379 1.411677 0.474048 0
M  V30 17 C -2.511081 0.679520 1.635029 0
M  V30 18 C -3.558148 -0.214441 1.693853 0
M  V30 19 C -4.434406 -0.369076 0.622699 0
M  V30 20 O -5.459074 -1.263927 0.717982 0
M  V30 21 C -5.703880 -2.086275 1.831317 0
M  V30 22 F -5.943242 -1.388383 2.976346 0
M  V30 23 F -4.647786 -2.954410 1.958827 0
M  V30 24 F -6.839073 -2.845160 1.576532 0
M  V30 25 N -4.256150 0.363612 -0.492673 0
M  V30 26 C -3.239736 1.249344 -0.587632 0
M  V30 27 C -0.301269 0.615920 -1.206504 0
M  V30 28 C 0.941782 0.418718 -2.011144 0
M  V30 29 C 1.784217 -0.899369 0.874783 0
M  V30 30 C 1.928715 -1.986057 0.055158 0
M  V30 31 C 1.865966 -3.297927 0.492045 0
M  V30 32 O 2.018817 -4.319351 -0.420228 0
M  V30 33 C 2.242135 -4.012220 -1.784924 0
M  V30 34 H 2.394615 -5.396822 4.004652 0
M  V30 35 H 0.755889 -4.611711 4.053577 0
M  V30 36 H 0.915287 -6.306931 3.442044 0
M  V30 37 H 1.343397 -2.707885 3.701298 0
M  V30 38 H 1.361374 1.951250 3.220987 0
M  V30 39 H 3.046883 0.242899 -1.471667 0
M  V30 40 H 2.821551 2.537759 -2.001764 0
M  V30 41 H 2.865475 2.466688 -0.242892 0
M  V30 42 H 0.613085 3.268750 -2.078315 0
M  V30 43 H 0.904018 3.684711 -0.370722 0
M  V30 44 H -1.766150 0.887408 2.384578 0
M  V30 45 H -3.644738 -0.774725 2.610517 0
M  V30 46 H -3.209866 1.776857 -1.539633 0
M  V30 47 H -1.171708 0.438557 -1.823708 0
M  V30 48 H -0.252403 -0.090308 -0.325424 0
M  V30 49 H 0.964757 -0.509912 -2.582392 0
M  V30 50 H 0.888319 1.220176 -2.821379 0
M  V30 51 H 2.102057 -1.801750 -0.993268 0
M  V30 52 H 2.183280 -4.937640 -2.412773 0
M  V30 53 H 1.454756 -3.323812 -2.186410 0
M  V30 54 H 3.210423 -3.524280 -1.981123 0
M  V30 END ATOM
M  V30 BEGIN BOND
M  V30 1 1 1 2
M  V30 2 1 2 3
M  V30 3 2 3 4
M  V30 4 1 4 5
M  V30 5 2 5 6
M  V30 6 1 6 7
M  V30 7 2 7 8
M  V30 8 1 8 9
M  V30 9 1 9 10
M  V30 10 1 10 11
M  V30 11 1 11 12
M  V30 12 1 12 13
M  V30 13 1 13 14
M  V30 14 2 14 15
M  V30 15 1 14 16
M  V30 16 2 16 17
M  V30 17 1 17 18
M  V30 18 2 18 19
M  V30 19 1 19 20
M  V30 20 1 20 21
M  V30 21 1 21 22
M  V30 22 1 21 23
M  V30 23 1 21 24
M  V30 24 1 19 25
M  V30 25 2 25 26
M  V30 26 1 13 27
M  V30 27 1 27 28
M  V30 28 2 9 29
M  V30 29 1 29 30
M  V30 30 2 30 31
M  V30 31 1 31 32
M  V30 32 1 32 33
M  V30 33 1 31 3
M  V30 34 1 29 5
M  V30 35 1 28 10
M  V30 36 1 26 16
M  V30 37 1 1 34
M  V30 38 1 1 35
M  V30 39 1 1 36
M  V30 40 1 4 37
M  V30 41 1 7 38
M  V30 42 1 10 39
M  V30 43 1 11 40
M  V30 44 1 11 41
M  V30 45 1 12 42
M  V30 46 1 12 43
M  V30 47 1 17 44
M  V30 48 1 18 45
M  V30 49 1 26 46
M  V30 50 1 27 47
M  V30 51 1 27 48
M  V30 52 1 28 49
M  V30 53 1 28 50
M  V30 54 1 30 51
M  V30 55 1 33 52
M  V30 56 1 33 53
M  V30 57 1 33 54
M  V30 END BOND
M  V30 END CTAB
M  END
>  <Dataset>  (181) 
ChEMBL_Kinases

>  <Ligand_Instance>  (181) 
nan

>  <PDB_ID>  (181) 
nan

>  <Standardized_SMILES>  (181) 
COc1cc2ncnc(C3CCN(C(=O)c4ccc(OC(F)(F)F)nc4)CC3)c2cc1OC

>  <Name>  (181) 
nan

>  <Pocket>  (181) 
nan

>  <ATP_Site>  (181) 
nan

>  <Peripheral>  (181) 
nan

>  <Num_H_Atoms_ProtBoundConf>  (181) 
nan

>  <Num_Resolved_Atoms>  (181) 
nan

>  <Num_Not_Resolved_Atoms>  (181) 
nan

$$$$
CHEMBL4468246
     RDKit          3D

  0  0  0  0  0  0  0  0  0  0999 V3000
M  V30 BEGIN CTAB
M  V30 COUNTS 48 51 0 0 0
M  V30 BEGIN ATOM
M  V30 1 C 6.074599 -1.980134 -1.537076 0
M  V30 2 C 6.413967 -0.667429 -0.838516 0
M  V30 3 C 5.318622 -0.281110 0.100025 0
M  V30 4 N 5.327733 -0.393914 1.440625 0
M  V30 5 C 4.284873 -0.019912 2.197562 0
M  V30 6 N 4.391758 -0.181384 3.624178 0
M  V30 7 N 3.157321 0.497329 1.628873 0
M  V30 8 C 3.136121 0.614383 0.298450 0
M  V30 9 C 4.184726 0.241331 -0.499098 0
M  V30 10 C 3.809473 0.503166 -1.792438 0
M  V30 11 C 2.535771 1.029713 -1.730850 0
M  V30 12 N 2.120433 1.098033 -0.440049 0
M  V30 13 C 0.821145 1.615109 -0.162231 0
M  V30 14 C 0.472264 2.949048 -0.107024 0
M  V30 15 C -0.837132 3.277206 0.174767 0
M  V30 16 N -1.814491 2.359261 0.403718 0
M  V30 17 C -1.511446 1.025154 0.358720 0
M  V30 18 C -2.520983 0.028219 0.594115 0
M  V30 19 C -3.368983 -0.816229 0.771612 0
M  V30 20 C -4.402015 -1.865033 0.973429 0
M  V30 21 O -4.700544 -2.459567 -0.266590 0
M  V30 22 C -3.973813 -2.874445 1.988474 0
M  V30 23 C -5.090616 -2.960519 2.964897 0
M  V30 24 N -6.122687 -2.128208 2.424985 0
M  V30 25 C -7.512827 -2.360785 2.839964 0
M  V30 26 C -5.559407 -1.177689 1.538860 0
M  V30 27 O -6.094827 -0.027613 1.404509 0
M  V30 28 C -0.209588 0.728860 0.077979 0
M  V30 29 H 4.996989 -2.090796 -1.751431 0
M  V30 30 H 6.366997 -2.839809 -0.898653 0
M  V30 31 H 6.617577 -2.087403 -2.493162 0
M  V30 32 H 7.363270 -0.871235 -0.294347 0
M  V30 33 H 6.566425 0.164738 -1.536018 0
M  V30 34 H 3.786640 -0.672254 4.325541 0
M  V30 35 H 5.207984 0.249493 4.122404 0
M  V30 36 H 4.444352 0.308855 -2.661096 0
M  V30 37 H 2.032081 1.315331 -2.655053 0
M  V30 38 H 1.254068 3.667416 -0.289744 0
M  V30 39 H -1.104097 4.342581 0.216803 0
M  V30 40 H -4.685735 -1.772588 -0.982254 0
M  V30 41 H -3.727139 -3.854267 1.514081 0
M  V30 42 H -3.004224 -2.580328 2.489222 0
M  V30 43 H -5.426535 -4.002788 3.163568 0
M  V30 44 H -4.723102 -2.523721 3.936185 0
M  V30 45 H -7.811752 -3.410479 2.587498 0
M  V30 46 H -8.219074 -1.714339 2.290525 0
M  V30 47 H -7.538971 -2.238787 3.933617 0
M  V30 48 H 0.018823 -0.329674 0.045172 0
M  V30 END ATOM
M  V30 BEGIN BOND
M  V30 1 1 1 2
M  V30 2 1 2 3
M  V30 3 2 3 4
M  V30 4 1 4 5
M  V30 5 1 5 6
M  V30 6 2 5 7
M  V30 7 1 7 8
M  V30 8 2 8 9
M  V30 9 1 9 10
M  V30 10 2 10 11
M  V30 11 1 11 12
M  V30 12 1 12 13
M  V30 13 2 13 14
M  V30 14 1 14 15
M  V30 15 2 15 16
M  V30 16 1 16 17
M  V30 17 1 17 18
M  V30 18 3 18 19
M  V30 19 1 19 20
M  V30 20 1 20 21
M  V30 21 1 20 22
M  V30 22 1 22 23
M  V30 23 1 23 24
M  V30 24 1 24 25
M  V30 25 1 24 26
M  V30 26 2 26 27
M  V30 27 2 17 28
M  V30 28 1 9 3
M  V30 29 1 28 13
M  V30 30 1 12 8
M  V30 31 1 26 20
M  V30 32 1 1 29
M  V30 33 1 1 30
M  V30 34 1 1 31
M  V30 35 1 2 32
M  V30 36 1 2 33
M  V30 37 1 6 34
M  V30 38 1 6 35
M  V30 39 1 10 36
M  V30 40 1 11 37
M  V30 41 1 14 38
M  V30 42 1 15 39
M  V30 43 1 21 40
M  V30 44 1 22 41
M  V30 45 1 22 42
M  V30 46 1 23 43
M  V30 47 1 23 44
M  V30 48 1 25 45
M  V30 49 1 25 46
M  V30 50 1 25 47
M  V30 51 1 28 48
M  V30 END BOND
M  V30 END CTAB
M  END
>  <Dataset>  (182) 
ChEMBL_Kinases

>  <Ligand_Instance>  (182) 
nan

>  <PDB_ID>  (182) 
nan

>  <Standardized_SMILES>  (182) 
CCc1nc(N)nc2c1ccn2-c1ccnc(C#CC2(O)CCN(C)C2=O)c1

>  <Name>  (182) 
nan

>  <Pocket>  (182) 
nan

>  <ATP_Site>  (182) 
nan

>  <Peripheral>  (182) 
nan

>  <Num_H_Atoms_ProtBoundConf>  (182) 
nan

>  <Num_Resolved_Atoms>  (182) 
nan

>  <Num_Not_Resolved_Atoms>  (182) 
nan

$$$$
CHEMBL4468195
     RDKit          3D

  0  0  0  0  0  0  0  0  0  0999 V3000
M  V30 BEGIN CTAB
M  V30 COUNTS 54 57 0 0 0
M  V30 BEGIN ATOM
M  V30 1 C 1.613132 -2.846367 6.138653 0
M  V30 2 N 2.453984 -3.088354 4.957884 0
M  V30 3 C 3.315379 -4.222201 5.229553 0
M  V30 4 C 2.232755 -2.186312 3.856442 0
M  V30 5 C 2.921791 -0.991366 3.875952 0
M  V30 6 C 2.686051 -0.148061 2.785900 0
M  V30 7 C 1.818262 -0.518429 1.779605 0
M  V30 8 C 1.579557 0.389195 0.642711 0
M  V30 9 C 2.199835 1.616261 0.561561 0
M  V30 10 C 1.959390 2.453376 -0.507443 0
M  V30 11 N 2.566970 3.648588 -0.580732 0
M  V30 12 C 2.336947 4.489691 -1.637676 0
M  V30 13 C 1.458581 4.033288 -2.597665 0
M  V30 14 N 0.854786 2.836249 -2.516490 0
M  V30 15 C 1.085004 2.001064 -1.463911 0
M  V30 16 C 0.446701 0.781932 -1.417414 0
M  V30 17 N -0.439878 0.395222 -2.449239 0
M  V30 18 C -1.182855 -0.829866 -2.563348 0
M  V30 19 C -2.127733 -1.026060 -1.376645 0 CFG=1
M  V30 20 C -3.091583 0.106225 -1.303165 0
M  V30 21 N -4.463344 -0.303828 -1.170987 0
M  V30 22 C -4.817823 -1.210553 -2.226327 0
M  V30 23 C -3.892071 -2.398230 -2.319023 0
M  V30 24 N -2.769599 -2.319618 -1.446995 0
M  V30 25 C -2.896787 -2.999763 -0.198741 0
M  V30 26 N 0.735304 0.019723 -0.336888 0
M  V30 27 C 1.154479 -1.729463 1.813192 0
M  V30 28 N 1.370630 -2.571068 2.871331 0
M  V30 29 H 2.307555 -2.588668 6.980503 0
M  V30 30 H 1.059580 -3.752428 6.448034 0
M  V30 31 H 0.944305 -1.994206 6.030146 0
M  V30 32 H 2.655929 -5.074943 5.499814 0
M  V30 33 H 3.990355 -4.455011 4.377465 0
M  V30 34 H 3.939901 -3.960928 6.102475 0
M  V30 35 H 3.587124 -0.766833 4.699237 0
M  V30 36 H 3.232358 0.772143 2.821279 0
M  V30 37 H 2.880907 1.981823 1.299367 0
M  V30 38 H 2.882576 5.420124 -1.585331 0
M  V30 39 H 1.328623 4.750164 -3.398648 0
M  V30 40 H -0.585769 1.082683 -3.244417 0
M  V30 41 H -0.461918 -1.689217 -2.608137 0
M  V30 42 H -1.794004 -0.876322 -3.476578 0
M  V30 43 H -1.490124 -1.024038 -0.473386 0
M  V30 44 H -3.034189 0.678450 -2.263010 0
M  V30 45 H -2.800502 0.796468 -0.472274 0
M  V30 46 H -4.756152 -0.588402 -0.236581 0
M  V30 47 H -5.883866 -1.493302 -2.109358 0
M  V30 48 H -4.781526 -0.622589 -3.182885 0
M  V30 49 H -3.634243 -2.554558 -3.400993 0
M  V30 50 H -4.483855 -3.300203 -2.049608 0
M  V30 51 H -1.998126 -2.843253 0.396075 0
M  V30 52 H -2.956735 -4.092614 -0.434430 0
M  V30 53 H -3.851627 -2.742751 0.291947 0
M  V30 54 H 0.486518 -1.966319 0.997898 0
M  V30 END ATOM
M  V30 BEGIN BOND
M  V30 1 1 1 2
M  V30 2 1 2 3
M  V30 3 1 2 4
M  V30 4 2 4 5
M  V30 5 1 5 6
M  V30 6 2 6 7
M  V30 7 1 7 8
M  V30 8 2 8 9
M  V30 9 1 9 10
M  V30 10 2 10 11
M  V30 11 1 11 12
M  V30 12 2 12 13
M  V30 13 1 13 14
M  V30 14 2 14 15
M  V30 15 1 15 16
M  V30 16 1 16 17
M  V30 17 1 17 18
M  V30 18 1 18 19
M  V30 19 1 19 20
M  V30 20 1 20 21
M  V30 21 1 21 22
M  V30 22 1 22 23
M  V30 23 1 23 24
M  V30 24 1 24 25
M  V30 25 2 16 26
M  V30 26 1 7 27
M  V30 27 2 27 28
M  V30 28 1 28 4
M  V30 29 1 26 8
M  V30 30 1 15 10
M  V30 31 1 24 19
M  V30 32 1 1 29
M  V30 33 1 1 30
M  V30 34 1 1 31
M  V30 35 1 3 32
M  V30 36 1 3 33
M  V30 37 1 3 34
M  V30 38 1 5 35
M  V30 39 1 6 36
M  V30 40 1 9 37
M  V30 41 1 12 38
M  V30 42 1 13 39
M  V30 43 1 17 40
M  V30 44 1 18 41
M  V30 45 1 18 42
M  V30 46 1 19 43 CFG=1
M  V30 47 1 20 44
M  V30 48 1 20 45
M  V30 49 1 21 46
M  V30 50 1 22 47
M  V30 51 1 22 48
M  V30 52 1 23 49
M  V30 53 1 23 50
M  V30 54 1 25 51
M  V30 55 1 25 52
M  V30 56 1 25 53
M  V30 57 1 27 54
M  V30 END BOND
M  V30 END CTAB
M  END
>  <Dataset>  (183) 
ChEMBL_Kinases

>  <Ligand_Instance>  (183) 
nan

>  <PDB_ID>  (183) 
nan

>  <Standardized_SMILES>  (183) 
CN(C)c1ccc(-c2cc3nccnc3c(NC[C@H]3CNCCN3C)n2)cn1

>  <Name>  (183) 
nan

>  <Pocket>  (183) 
nan

>  <ATP_Site>  (183) 
nan

>  <Peripheral>  (183) 
nan

>  <Num_H_Atoms_ProtBoundConf>  (183) 
nan

>  <Num_Resolved_Atoms>  (183) 
nan

>  <Num_Not_Resolved_Atoms>  (183) 
nan

$$$$
CHEMBL4468047
     RDKit          3D

  0  0  0  0  0  0  0  0  0  0999 V3000
M  V30 BEGIN CTAB
M  V30 COUNTS 53 56 0 0 0
M  V30 BEGIN ATOM
M  V30 1 C 5.701775 -3.827254 3.890864 0
M  V30 2 N 4.309847 -3.974142 3.508788 0
M  V30 3 C 3.566269 -5.195598 3.758285 0
M  V30 4 C 3.661456 -2.879835 2.869499 0
M  V30 5 C 4.354917 -1.710145 2.625368 0
M  V30 6 C 3.702072 -0.664547 2.003906 0
M  V30 7 C 2.382078 -0.727230 1.610556 0
M  V30 8 C 1.664048 0.358996 0.952333 0
M  V30 9 C 2.264210 1.565273 0.664166 0
M  V30 10 C 1.570527 2.582958 0.040791 0
M  V30 11 N 2.118915 3.784383 -0.261840 0
M  V30 12 C 1.464675 4.770566 -0.860210 0
M  V30 13 C 0.128605 4.530194 -1.188266 0
M  V30 14 C -0.453409 3.315882 -0.891172 0
M  V30 15 C 0.253923 2.310484 -0.268360 0
M  V30 16 C -0.368793 1.114323 0.008649 0
M  V30 17 N -1.726580 0.829067 -0.308568 0
M  V30 18 C -2.269981 -0.468915 0.034049 0
M  V30 19 C -3.719361 -0.619626 -0.370646 0 CFG=1
M  V30 20 C -3.902816 -0.456331 -1.856016 0
M  V30 21 C -5.396984 -0.545885 -2.148487 0
M  V30 22 C -5.969414 -1.814560 -1.605472 0
M  V30 23 N -4.959727 -2.629589 -0.990317 0
M  V30 24 C -4.289049 -1.938596 0.097343 0
M  V30 25 N 0.385440 0.185068 0.616144 0
M  V30 26 C 1.748472 -1.921932 1.883564 0
M  V30 27 N 2.367314 -2.966162 2.493714 0
M  V30 28 H 6.342470 -3.594747 3.010686 0
M  V30 29 H 5.795464 -3.017707 4.652474 0
M  V30 30 H 6.043649 -4.764992 4.407466 0
M  V30 31 H 3.126290 -5.611976 2.826296 0
M  V30 32 H 2.720971 -5.048479 4.456331 0
M  V30 33 H 4.281656 -5.939784 4.149948 0
M  V30 34 H 5.400868 -1.592812 2.910232 0
M  V30 35 H 4.260148 0.230213 1.825900 0
M  V30 36 H 3.296929 1.762222 0.913303 0
M  V30 37 H 1.939706 5.725369 -1.088301 0
M  V30 38 H -0.445692 5.322450 -1.684404 0
M  V30 39 H -1.472728 3.197802 -1.167323 0
M  V30 40 H -2.394711 1.472428 -0.774968 0
M  V30 41 H -2.159736 -0.717497 1.096892 0
M  V30 42 H -1.727550 -1.295515 -0.511639 0
M  V30 43 H -4.344662 0.191855 0.104341 0
M  V30 44 H -3.346926 -1.271033 -2.372863 0
M  V30 45 H -3.557484 0.545638 -2.164535 0
M  V30 46 H -5.860113 0.313109 -1.603623 0
M  V30 47 H -5.607097 -0.426294 -3.228811 0
M  V30 48 H -6.429673 -2.425623 -2.415377 0
M  V30 49 H -6.784316 -1.621403 -0.859593 0
M  V30 50 H -4.315850 -2.972072 -1.718881 0
M  V30 51 H -5.006375 -1.800716 0.916501 0
M  V30 52 H -3.465370 -2.605390 0.463992 0
M  V30 53 H 0.707769 -2.075877 1.614892 0
M  V30 END ATOM
M  V30 BEGIN BOND
M  V30 1 1 1 2
M  V30 2 1 2 3
M  V30 3 1 2 4
M  V30 4 2 4 5
M  V30 5 1 5 6
M  V30 6 2 6 7
M  V30 7 1 7 8
M  V30 8 2 8 9
M  V30 9 1 9 10
M  V30 10 2 10 11
M  V30 11 1 11 12
M  V30 12 2 12 13
M  V30 13 1 13 14
M  V30 14 2 14 15
M  V30 15 1 15 16
M  V30 16 1 16 17
M  V30 17 1 17 18
M  V30 18 1 18 19
M  V30 19 1 19 20
M  V30 20 1 20 21
M  V30 21 1 21 22
M  V30 22 1 22 23
M  V30 23 1 23 24
M  V30 24 2 16 25
M  V30 25 1 7 26
M  V30 26 2 26 27
M  V30 27 1 27 4
M  V30 28 1 25 8
M  V30 29 1 15 10
M  V30 30 1 24 19
M  V30 31 1 1 28
M  V30 32 1 1 29
M  V30 33 1 1 30
M  V30 34 1 3 31
M  V30 35 1 3 32
M  V30 36 1 3 33
M  V30 37 1 5 34
M  V30 38 1 6 35
M  V30 39 1 9 36
M  V30 40 1 12 37
M  V30 41 1 13 38
M  V30 42 1 14 39
M  V30 43 1 17 40
M  V30 44 1 18 41
M  V30 45 1 18 42
M  V30 46 1 19 43 CFG=1
M  V30 47 1 20 44
M  V30 48 1 20 45
M  V30 49 1 21 46
M  V30 50 1 21 47
M  V30 51 1 22 48
M  V30 52 1 22 49
M  V30 53 1 23 50
M  V30 54 1 24 51
M  V30 55 1 24 52
M  V30 56 1 26 53
M  V30 END BOND
M  V30 END CTAB
M  END
>  <Dataset>  (184) 
ChEMBL_Kinases

>  <Ligand_Instance>  (184) 
nan

>  <PDB_ID>  (184) 
nan

>  <Standardized_SMILES>  (184) 
CN(C)c1ccc(-c2cc3ncccc3c(NC[C@H]3CCCNC3)n2)cn1

>  <Name>  (184) 
nan

>  <Pocket>  (184) 
nan

>  <ATP_Site>  (184) 
nan

>  <Peripheral>  (184) 
nan

>  <Num_H_Atoms_ProtBoundConf>  (184) 
nan

>  <Num_Resolved_Atoms>  (184) 
nan

>  <Num_Not_Resolved_Atoms>  (184) 
nan

$$$$
CHEMBL4468045
     RDKit          3D

  0  0  0  0  0  0  0  0  0  0999 V3000
M  V30 BEGIN CTAB
M  V30 COUNTS 51 54 0 0 0
M  V30 BEGIN ATOM
M  V30 1 C -0.928036 -1.634722 4.095919 0
M  V30 2 O 0.247590 -1.750537 3.522175 0
M  V30 3 C 1.367192 -1.812308 2.920343 0
M  V30 4 C 2.283289 -2.742263 3.438345 0
M  V30 5 C 3.561223 -2.931214 2.889952 0
M  V30 6 C 3.861195 -2.128307 1.791063 0
M  V30 7 N 5.081871 -2.322395 1.303053 0
M  V30 8 C 5.490030 -1.608095 0.257649 0
M  V30 9 N 4.661417 -0.711444 -0.277127 0
M  V30 10 C 3.410704 -0.438674 0.137075 0
M  V30 11 C 2.476409 0.540647 -0.470988 0
M  V30 12 C 2.270075 1.782254 0.271927 0
M  V30 13 C 1.121171 2.602439 -0.227475 0
M  V30 14 N -0.006646 1.705026 -0.345932 0
M  V30 15 C -1.221265 1.591235 0.428786 0
M  V30 16 O -1.582608 2.272871 1.413836 0
M  V30 17 C -2.184497 0.565009 0.062386 0
M  V30 18 C -3.471918 0.860234 -0.385703 0
M  V30 19 C -4.392588 -0.099837 -0.743867 0
M  V30 20 C -4.072997 -1.434466 -0.673418 0
M  V30 21 O -4.823940 -2.568313 -0.974210 0
M  V30 22 C -5.588006 -3.117744 0.110948 0
M  V30 23 F -6.282969 -4.235035 -0.308685 0
M  V30 24 F -6.434176 -2.141041 0.571333 0
M  V30 25 F -4.703326 -3.450935 1.148715 0
M  V30 26 C -2.804555 -1.802303 -0.235352 0
M  V30 27 C -1.918668 -0.806967 0.112098 0
M  V30 28 C 0.196925 0.806465 -1.458693 0
M  V30 29 C 1.387106 -0.087976 -1.260066 0
M  V30 30 C 2.997114 -1.200931 1.242988 0
M  V30 31 C 1.763167 -1.066940 1.826976 0
M  V30 32 H -1.685694 -1.128236 3.414376 0
M  V30 33 H -1.442039 -2.610612 4.357069 0
M  V30 34 H -0.905817 -1.042995 5.073447 0
M  V30 35 H 2.053726 -3.372446 4.300232 0
M  V30 36 H 4.245773 -3.645073 3.301560 0
M  V30 37 H 6.477966 -1.680253 -0.231226 0
M  V30 38 H 3.115768 0.935913 -1.341162 0
M  V30 39 H 2.161140 1.746672 1.366957 0
M  V30 40 H 3.173075 2.463396 0.159874 0
M  V30 41 H 1.394170 3.040798 -1.210785 0
M  V30 42 H 0.891147 3.463581 0.436163 0
M  V30 43 H -3.768104 1.890979 -0.457483 0
M  V30 44 H -5.382563 0.070603 -1.089714 0
M  V30 45 H -2.424916 -2.807639 -0.133485 0
M  V30 46 H -0.926694 -1.047829 0.457467 0
M  V30 47 H 0.401126 1.470640 -2.353817 0
M  V30 48 H -0.724198 0.282829 -1.706292 0
M  V30 49 H 1.700714 -0.376690 -2.305186 0
M  V30 50 H 1.022814 -1.060639 -0.898351 0
M  V30 51 H 1.110025 -0.353441 1.400965 0
M  V30 END ATOM
M  V30 BEGIN BOND
M  V30 1 1 1 2
M  V30 2 1 2 3
M  V30 3 2 3 4
M  V30 4 1 4 5
M  V30 5 2 5 6
M  V30 6 1 6 7
M  V30 7 2 7 8
M  V30 8 1 8 9
M  V30 9 2 9 10
M  V30 10 1 10 11
M  V30 11 1 11 12
M  V30 12 1 12 13
M  V30 13 1 13 14
M  V30 14 1 14 15
M  V30 15 2 15 16
M  V30 16 1 15 17
M  V30 17 2 17 18
M  V30 18 1 18 19
M  V30 19 2 19 20
M  V30 20 1 20 21
M  V30 21 1 21 22
M  V30 22 1 22 23
M  V30 23 1 22 24
M  V30 24 1 22 25
M  V30 25 1 20 26
M  V30 26 2 26 27
M  V30 27 1 14 28
M  V30 28 1 28 29
M  V30 29 1 10 30
M  V30 30 2 30 31
M  V30 31 1 31 3
M  V30 32 1 30 6
M  V30 33 1 29 11
M  V30 34 1 27 17
M  V30 35 1 1 32
M  V30 36 1 1 33
M  V30 37 1 1 34
M  V30 38 1 4 35
M  V30 39 1 5 36
M  V30 40 1 8 37
M  V30 41 1 11 38
M  V30 42 1 12 39
M  V30 43 1 12 40
M  V30 44 1 13 41
M  V30 45 1 13 42
M  V30 46 1 18 43
M  V30 47 1 19 44
M  V30 48 1 26 45
M  V30 49 1 27 46
M  V30 50 1 28 47
M  V30 51 1 28 48
M  V30 52 1 29 49
M  V30 53 1 29 50
M  V30 54 1 31 51
M  V30 END BOND
M  V30 END CTAB
M  END
>  <Dataset>  (185) 
ChEMBL_Kinases

>  <Ligand_Instance>  (185) 
nan

>  <PDB_ID>  (185) 
nan

>  <Standardized_SMILES>  (185) 
COc1ccc2ncnc(C3CCN(C(=O)c4ccc(OC(F)(F)F)cc4)CC3)c2c1

>  <Name>  (185) 
nan

>  <Pocket>  (185) 
nan

>  <ATP_Site>  (185) 
nan

>  <Peripheral>  (185) 
nan

>  <Num_H_Atoms_ProtBoundConf>  (185) 
nan

>  <Num_Resolved_Atoms>  (185) 
nan

>  <Num_Not_Resolved_Atoms>  (185) 
nan

$$$$
CHEMBL4467970
     RDKit          3D

  0  0  0  0  0  0  0  0  0  0999 V3000
M  V30 BEGIN CTAB
M  V30 COUNTS 52 55 0 0 0
M  V30 BEGIN ATOM
M  V30 1 C -7.397744 0.552179 0.052148 0
M  V30 2 C -7.005892 -0.532991 0.602505 0
M  V30 3 C -6.033633 -1.503854 0.879170 0
M  V30 4 C -6.396629 -2.562166 1.671343 0
M  V30 5 N -5.295169 -3.287120 1.753298 0
M  V30 6 N -4.315231 -2.747232 1.077971 0
M  V30 7 C -3.003495 -3.360889 1.017658 0
M  V30 8 C -4.727803 -1.611075 0.501193 0
M  V30 9 C -3.915659 -0.726365 -0.340275 0
M  V30 10 C -4.043682 0.452847 -1.074526 0
M  V30 11 C -2.932365 0.896856 -1.727065 0
M  V30 12 C -1.771233 0.232370 -1.666722 0
M  V30 13 C -0.481962 0.465107 -2.236919 0
M  V30 14 O -0.117361 1.396299 -2.968366 0
M  V30 15 N 0.579264 -0.436414 -1.985918 0
M  V30 16 C 1.885194 -0.255525 -2.528012 0 CFG=2
M  V30 17 C 2.162271 -1.422690 -3.456490 0
M  V30 18 N 2.880799 -2.477759 -2.727091 0
M  V30 19 C 4.260851 -2.071022 -2.462714 0
M  V30 20 C 4.264903 -0.569584 -2.336563 0
M  V30 21 C 3.011430 -0.197811 -1.542333 0 CFG=1
M  V30 22 C 3.249694 1.148568 -0.994870 0
M  V30 23 C 3.337305 1.461032 0.356191 0
M  V30 24 C 3.562151 2.735475 0.830911 0
M  V30 25 C 3.707990 3.755306 -0.085925 0
M  V30 26 C 3.626499 3.481174 -1.450292 0
M  V30 27 F 3.780842 4.543452 -2.305348 0
M  V30 28 C 3.400078 2.190611 -1.883017 0
M  V30 29 S -2.192351 -1.142741 -0.625575 0
M  V30 30 H -7.817876 1.443686 -0.365888 0
M  V30 31 H -7.827421 1.421761 -0.351020 0
M  V30 32 H -8.021717 -0.514500 0.944740 0
M  V30 33 H -7.308109 -2.863454 2.172429 0
M  V30 34 H -3.026453 -4.350585 1.492158 0
M  V30 35 H -2.235344 -2.691319 1.484907 0
M  V30 36 H -2.724422 -3.560407 -0.050066 0
M  V30 37 H -4.988137 0.945007 -1.093257 0
M  V30 38 H -2.946115 1.803599 -2.319023 0
M  V30 39 H 0.494713 -1.307990 -1.383733 0
M  V30 40 H 1.950601 0.664823 -3.177788 0
M  V30 41 H 2.750522 -1.149049 -4.340684 0
M  V30 42 H 1.218083 -1.910874 -3.795418 0
M  V30 43 H 2.368678 -2.668182 -1.824379 0
M  V30 44 H 4.571500 -2.490809 -1.479774 0
M  V30 45 H 4.952143 -2.454812 -3.243475 0
M  V30 46 H 5.195033 -0.227955 -1.847388 0
M  V30 47 H 4.199790 -0.098371 -3.358181 0
M  V30 48 H 2.910953 -0.965715 -0.759741 0
M  V30 49 H 3.212117 0.604866 1.014835 0
M  V30 50 H 3.622196 2.927577 1.891502 0
M  V30 51 H 3.887858 4.784220 0.228990 0
M  V30 52 H 3.360029 2.120132 -2.978222 0
M  V30 END ATOM
M  V30 BEGIN BOND
M  V30 1 2 1 2
M  V30 2 1 2 3
M  V30 3 1 3 4
M  V30 4 2 4 5
M  V30 5 1 5 6
M  V30 6 1 6 7
M  V30 7 1 6 8
M  V30 8 1 8 9
M  V30 9 2 9 10
M  V30 10 1 10 11
M  V30 11 2 11 12
M  V30 12 1 12 13
M  V30 13 2 13 14
M  V30 14 1 13 15
M  V30 15 1 15 16
M  V30 16 1 16 17
M  V30 17 1 17 18
M  V30 18 1 18 19
M  V30 19 1 19 20
M  V30 20 1 20 21
M  V30 21 1 21 22
M  V30 22 2 22 23
M  V30 23 1 23 24
M  V30 24 2 24 25
M  V30 25 1 25 26
M  V30 26 1 26 27
M  V30 27 2 26 28
M  V30 28 1 12 29
M  V30 29 2 8 3
M  V30 30 1 29 9
M  V30 31 1 21 16
M  V30 32 1 28 22
M  V30 33 1 1 30
M  V30 34 1 1 31
M  V30 35 1 2 32
M  V30 36 1 4 33
M  V30 37 1 7 34
M  V30 38 1 7 35
M  V30 39 1 7 36
M  V30 40 1 10 37
M  V30 41 1 11 38
M  V30 42 1 15 39
M  V30 43 1 16 40 CFG=3
M  V30 44 1 17 41
M  V30 45 1 17 42
M  V30 46 1 18 43
M  V30 47 1 19 44
M  V30 48 1 19 45
M  V30 49 1 20 46
M  V30 50 1 20 47
M  V30 51 1 21 48 CFG=1
M  V30 52 1 23 49
M  V30 53 1 24 50
M  V30 54 1 25 51
M  V30 55 1 28 52
M  V30 END BOND
M  V30 END CTAB
M  END
>  <Dataset>  (186) 
ChEMBL_Kinases

>  <Ligand_Instance>  (186) 
nan

>  <PDB_ID>  (186) 
nan

>  <Standardized_SMILES>  (186) 
C=Cc1cnn(C)c1-c1ccc(C(=O)N[C@@H]2CNCC[C@H]2c2cccc(F)c2)s1

>  <Name>  (186) 
nan

>  <Pocket>  (186) 
nan

>  <ATP_Site>  (186) 
nan

>  <Peripheral>  (186) 
nan

>  <Num_H_Atoms_ProtBoundConf>  (186) 
nan

>  <Num_Resolved_Atoms>  (186) 
nan

>  <Num_Not_Resolved_Atoms>  (186) 
nan

$$$$
CHEMBL4467968
     RDKit          3D

  0  0  0  0  0  0  0  0  0  0999 V3000
M  V30 BEGIN CTAB
M  V30 COUNTS 41 43 0 0 0
M  V30 BEGIN ATOM
M  V30 1 C -0.876674 -4.630256 1.195632 0
M  V30 2 C 0.328428 -3.689078 1.333613 0
M  V30 3 C 0.815128 -3.943018 2.778706 0
M  V30 4 C 1.390755 -4.369892 0.441886 0
M  V30 5 N 0.050067 -2.348045 1.021080 0
M  V30 6 C -0.228725 -1.004326 0.707954 0
M  V30 7 C 0.661470 0.045469 0.752340 0
M  V30 8 C 0.384618 1.347149 0.450539 0
M  V30 9 C 1.351181 2.425055 0.510999 0
M  V30 10 C 0.881480 3.670942 0.169499 0
M  V30 11 C 1.631572 4.820879 0.163454 0
M  V30 12 N 2.932074 4.698268 0.524682 0
M  V30 13 C 3.386533 3.459627 0.860826 0
M  V30 14 N 4.756311 3.440536 1.222268 0
M  V30 15 C 2.669321 2.306107 0.876062 0
M  V30 16 N -0.875284 1.558734 0.087366 0
M  V30 17 C -1.822034 0.621682 0.008345 0
M  V30 18 C -3.074819 1.092121 -0.398919 0
M  V30 19 N -4.059882 0.158467 -0.488554 0
M  V30 20 C -3.833400 -1.131626 -0.201766 0
M  V30 21 C -2.576049 -1.512826 0.190900 0
M  V30 22 C -1.506731 -0.678568 0.319943 0
M  V30 23 H -1.249031 -4.678675 0.154100 0
M  V30 24 H -0.588416 -5.655146 1.490392 0
M  V30 25 H -1.714405 -4.338768 1.840052 0
M  V30 26 H 1.043695 -5.038163 2.806190 0
M  V30 27 H 1.697858 -3.341027 3.000763 0
M  V30 28 H -0.031919 -3.784601 3.471291 0
M  V30 29 H 2.309823 -3.761316 0.411623 0
M  V30 30 H 1.624904 -5.325490 0.954543 0
M  V30 31 H 0.933367 -4.553163 -0.553364 0
M  V30 32 H 1.060902 -2.291109 1.265856 0
M  V30 33 H 1.701593 -0.141645 1.054551 0
M  V30 34 H -0.146560 3.831075 -0.127023 0
M  V30 35 H 1.241853 5.788576 -0.108306 0
M  V30 36 H 4.739739 3.370600 2.283146 0
M  V30 37 H 5.769602 3.430710 1.424058 0
M  V30 38 H 3.059011 1.341330 1.147312 0
M  V30 39 H -3.242271 2.134229 -0.626489 0
M  V30 40 H -4.621564 -1.877713 -0.273595 0
M  V30 41 H -2.420685 -2.543154 0.413126 0
M  V30 END ATOM
M  V30 BEGIN BOND
M  V30 1 1 1 2
M  V30 2 1 2 3
M  V30 3 1 2 4
M  V30 4 1 2 5
M  V30 5 1 5 6
M  V30 6 2 6 7
M  V30 7 1 7 8
M  V30 8 1 8 9
M  V30 9 2 9 10
M  V30 10 1 10 11
M  V30 11 2 11 12
M  V30 12 1 12 13
M  V30 13 1 13 14
M  V30 14 2 13 15
M  V30 15 2 8 16
M  V30 16 1 16 17
M  V30 17 2 17 18
M  V30 18 1 18 19
M  V30 19 2 19 20
M  V30 20 1 20 21
M  V30 21 2 21 22
M  V30 22 1 22 6
M  V30 23 1 15 9
M  V30 24 1 22 17
M  V30 25 1 1 23
M  V30 26 1 1 24
M  V30 27 1 1 25
M  V30 28 1 3 26
M  V30 29 1 3 27
M  V30 30 1 3 28
M  V30 31 1 4 29
M  V30 32 1 4 30
M  V30 33 1 4 31
M  V30 34 1 5 32
M  V30 35 1 7 33
M  V30 36 1 10 34
M  V30 37 1 11 35
M  V30 38 1 14 36
M  V30 39 1 14 37
M  V30 40 1 15 38
M  V30 41 1 18 39
M  V30 42 1 20 40
M  V30 43 1 21 41
M  V30 END BOND
M  V30 END CTAB
M  END
>  <Dataset>  (187) 
ChEMBL_Kinases

>  <Ligand_Instance>  (187) 
nan

>  <PDB_ID>  (187) 
nan

>  <Standardized_SMILES>  (187) 
CC(C)(C)Nc1cc(-c2ccnc(N)c2)nc2cnccc12

>  <Name>  (187) 
nan

>  <Pocket>  (187) 
nan

>  <ATP_Site>  (187) 
nan

>  <Peripheral>  (187) 
nan

>  <Num_H_Atoms_ProtBoundConf>  (187) 
nan

>  <Num_Resolved_Atoms>  (187) 
nan

>  <Num_Not_Resolved_Atoms>  (187) 
nan

$$$$
CHEMBL4467842
     RDKit          3D

  0  0  0  0  0  0  0  0  0  0999 V3000
M  V30 BEGIN CTAB
M  V30 COUNTS 32 33 0 0 0
M  V30 BEGIN ATOM
M  V30 1 C -2.653782 -2.017311 2.015702 0
M  V30 2 C -2.086166 -3.007644 1.023909 0
M  V30 3 C -2.539794 -4.403552 1.434773 0
M  V30 4 N -0.642473 -2.917182 1.080429 0
M  V30 5 C 0.173987 -1.887609 0.641397 0
M  V30 6 S 0.385728 -0.237572 1.335315 0
M  V30 7 C 1.634411 0.290378 0.131296 0
M  V30 8 C 2.321367 1.602841 0.197390 0
M  V30 9 O 3.419768 1.559081 -0.438845 0
M  V30 10 C 1.785959 2.731350 0.900226 0
M  V30 11 C 1.970366 3.856635 1.601804 0
M  V30 12 C 0.833390 4.623164 1.901377 0
M  V30 13 N -0.108518 3.877646 1.324056 0
M  V30 14 N 0.393955 2.786935 0.740958 0
M  V30 15 C 1.854969 -0.829873 -0.781783 0
M  V30 16 N 2.759831 -0.658548 -1.847171 0
M  V30 17 C 1.034244 -1.863070 -0.386784 0
M  V30 18 C 1.133076 -3.066780 -1.237415 0
M  V30 19 N 1.222782 -4.053925 -1.910969 0
M  V30 20 H -2.655679 -0.986133 1.606191 0
M  V30 21 H -3.684743 -2.296787 2.326079 0
M  V30 22 H -1.962883 -1.992287 2.911681 0
M  V30 23 H -2.424753 -2.749673 -0.023158 0
M  V30 24 H -1.710704 -5.163389 1.294553 0
M  V30 25 H -2.775225 -4.417472 2.505392 0
M  V30 26 H -3.376851 -4.768217 0.844694 0
M  V30 27 H -0.109982 -3.724658 1.503266 0
M  V30 28 H 3.055745 3.954848 1.816650 0
M  V30 29 H 1.111265 5.498170 2.454470 0
M  V30 30 H -0.373039 2.221132 0.294750 0
M  V30 31 H 2.115285 -0.261020 -2.576111 0
M  V30 32 H 3.596348 -1.043778 -1.276748 0
M  V30 END ATOM
M  V30 BEGIN BOND
M  V30 1 1 1 2
M  V30 2 1 2 3
M  V30 3 1 2 4
M  V30 4 1 4 5
M  V30 5 1 5 6
M  V30 6 1 6 7
M  V30 7 1 7 8
M  V30 8 2 8 9
M  V30 9 1 8 10
M  V30 10 2 10 11
M  V30 11 1 11 12
M  V30 12 2 12 13
M  V30 13 1 13 14
M  V30 14 2 7 15
M  V30 15 1 15 16
M  V30 16 1 15 17
M  V30 17 1 17 18
M  V30 18 3 18 19
M  V30 19 2 17 5
M  V30 20 1 14 10
M  V30 21 1 1 20
M  V30 22 1 1 21
M  V30 23 1 1 22
M  V30 24 1 2 23
M  V30 25 1 3 24
M  V30 26 1 3 25
M  V30 27 1 3 26
M  V30 28 1 4 27
M  V30 29 1 11 28
M  V30 30 1 12 29
M  V30 31 1 14 30
M  V30 32 1 16 31
M  V30 33 1 16 32
M  V30 END BOND
M  V30 END CTAB
M  END
>  <Dataset>  (188) 
ChEMBL_Kinases

>  <Ligand_Instance>  (188) 
nan

>  <PDB_ID>  (188) 
nan

>  <Standardized_SMILES>  (188) 
CC(C)Nc1sc(C(=O)c2ccn[nH]2)c(N)c1C#N

>  <Name>  (188) 
nan

>  <Pocket>  (188) 
nan

>  <ATP_Site>  (188) 
nan

>  <Peripheral>  (188) 
nan

>  <Num_H_Atoms_ProtBoundConf>  (188) 
nan

>  <Num_Resolved_Atoms>  (188) 
nan

>  <Num_Not_Resolved_Atoms>  (188) 
nan

$$$$
CHEMBL4467820
     RDKit          3D

  0  0  0  0  0  0  0  0  0  0999 V3000
M  V30 BEGIN CTAB
M  V30 COUNTS 49 52 0 0 0
M  V30 BEGIN ATOM
M  V30 1 C 4.138049 -4.951219 2.798926 0
M  V30 2 C 5.341343 -4.694504 1.945982 0
M  V30 3 C 6.294184 -5.858747 1.955709 0
M  V30 4 S 4.903052 -4.207795 0.296866 0
M  V30 5 O 6.128813 -3.886825 -0.506491 0
M  V30 6 O 4.206283 -5.357910 -0.358054 0
M  V30 7 C 3.882629 -2.812858 0.270103 0
M  V30 8 C 4.435554 -1.540694 0.211214 0
M  V30 9 C 3.597136 -0.439378 0.190778 0
M  V30 10 C 2.224481 -0.567491 0.227253 0
M  V30 11 C 1.279147 0.545497 0.208875 0
M  V30 12 C 1.688088 1.861207 0.151723 0
M  V30 13 N 0.799542 2.890218 0.135061 0
M  V30 14 C -0.532407 2.651104 0.174628 0
M  V30 15 N -1.529533 3.665893 0.160999 0
M  V30 16 C -0.945837 1.335776 0.231877 0
M  V30 17 C -2.367337 0.926746 0.279785 0
M  V30 18 N -2.906786 -0.302923 0.336879 0
M  V30 19 N -4.224398 -0.191876 0.363536 0
M  V30 20 C -4.521663 1.101569 0.323613 0
M  V30 21 C -5.866876 1.707622 0.332985 0
M  V30 22 C -5.967354 3.082893 0.285516 0
M  V30 23 C -7.213518 3.672212 0.293183 0
M  V30 24 C -8.328088 2.859534 0.348564 0
M  V30 25 C -8.257014 1.485481 0.396673 0
M  V30 26 C -6.982386 0.930932 0.387082 0
M  V30 27 O -3.387287 1.750283 0.273707 0
M  V30 28 N -0.049564 0.332671 0.247418 0
M  V30 29 C 1.726831 -1.853099 0.285351 0
M  V30 30 C 2.501759 -2.994729 0.308716 0
M  V30 31 H 4.508927 -5.356721 3.766548 0
M  V30 32 H 3.461396 -5.724018 2.398076 0
M  V30 33 H 3.615581 -3.996013 3.011639 0
M  V30 34 H 5.878206 -3.822096 2.387433 0
M  V30 35 H 6.967532 -5.845993 2.853277 0
M  V30 36 H 5.764328 -6.832001 1.928580 0
M  V30 37 H 6.925048 -5.815219 1.053639 0
M  V30 38 H 5.508593 -1.414211 0.181753 0
M  V30 39 H 4.013706 0.550832 0.145257 0
M  V30 40 H 2.721080 2.120319 0.118376 0
M  V30 41 H -2.326423 3.867901 -0.474422 0
M  V30 42 H -1.484790 4.373769 0.934252 0
M  V30 43 H -5.057503 3.696859 0.242099 0
M  V30 44 H -7.271238 4.736540 0.255980 0
M  V30 45 H -9.274586 3.403805 0.350881 0
M  V30 46 H -9.176608 0.908149 0.438992 0
M  V30 47 H -6.919501 -0.145916 0.424615 0
M  V30 48 H 0.644433 -1.989730 0.315390 0
M  V30 49 H 2.027877 -3.963297 0.354776 0
M  V30 END ATOM
M  V30 BEGIN BOND
M  V30 1 1 1 2
M  V30 2 1 2 3
M  V30 3 1 2 4
M  V30 4 2 4 5
M  V30 5 2 4 6
M  V30 6 1 4 7
M  V30 7 2 7 8
M  V30 8 1 8 9
M  V30 9 2 9 10
M  V30 10 1 10 11
M  V30 11 2 11 12
M  V30 12 1 12 13
M  V30 13 2 13 14
M  V30 14 1 14 15
M  V30 15 1 14 16
M  V30 16 1 16 17
M  V30 17 2 17 18
M  V30 18 1 18 19
M  V30 19 2 19 20
M  V30 20 1 20 21
M  V30 21 2 21 22
M  V30 22 1 22 23
M  V30 23 2 23 24
M  V30 24 1 24 25
M  V30 25 2 25 26
M  V30 26 1 20 27
M  V30 27 2 16 28
M  V30 28 1 10 29
M  V30 29 2 29 30
M  V30 30 1 30 7
M  V30 31 1 28 11
M  V30 32 1 27 17
M  V30 33 1 26 21
M  V30 34 1 1 31
M  V30 35 1 1 32
M  V30 36 1 1 33
M  V30 37 1 2 34
M  V30 38 1 3 35
M  V30 39 1 3 36
M  V30 40 1 3 37
M  V30 41 1 8 38
M  V30 42 1 9 39
M  V30 43 1 12 40
M  V30 44 1 15 41
M  V30 45 1 15 42
M  V30 46 1 22 43
M  V30 47 1 23 44
M  V30 48 1 24 45
M  V30 49 1 25 46
M  V30 50 1 26 47
M  V30 51 1 29 48
M  V30 52 1 30 49
M  V30 END BOND
M  V30 END CTAB
M  END
>  <Dataset>  (189) 
ChEMBL_Kinases

>  <Ligand_Instance>  (189) 
nan

>  <PDB_ID>  (189) 
nan

>  <Standardized_SMILES>  (189) 
CC(C)S(=O)(=O)c1ccc(-c2cnc(N)c(-c3nnc(-c4ccccc4)o3)n2)cc1

>  <Name>  (189) 
nan

>  <Pocket>  (189) 
nan

>  <ATP_Site>  (189) 
nan

>  <Peripheral>  (189) 
nan

>  <Num_H_Atoms_ProtBoundConf>  (189) 
nan

>  <Num_Resolved_Atoms>  (189) 
nan

>  <Num_Not_Resolved_Atoms>  (189) 
nan

$$$$
CHEMBL4467582
     RDKit          3D

  0  0  0  0  0  0  0  0  0  0999 V3000
M  V30 BEGIN CTAB
M  V30 COUNTS 67 71 0 0 0
M  V30 BEGIN ATOM
M  V30 1 C 5.063538 -2.949237 6.837352 0
M  V30 2 O 5.358731 -2.228998 5.654982 0
M  V30 3 C 4.552565 -2.323410 4.517893 0
M  V30 4 C 3.448875 -3.147566 4.581557 0
M  V30 5 C 2.688397 -3.205406 3.437347 0
M  V30 6 C 2.949444 -2.519309 2.277761 0
M  V30 7 O 2.294777 -2.485919 1.099491 0
M  V30 8 C 1.335423 -1.660459 0.611232 0
M  V30 9 N 0.931086 -1.977362 -0.628112 0
M  V30 10 C -0.004566 -1.308274 -1.319088 0
M  V30 11 N -0.358879 -1.737094 -2.634622 0
M  V30 12 C -1.309328 -1.176245 -3.521733 0
M  V30 13 C -1.513529 -1.765691 -4.773886 0
M  V30 14 C -2.427231 -1.249567 -5.661267 0
M  V30 15 C -3.181775 -0.136444 -5.366693 0
M  V30 16 N -4.131677 0.398749 -6.283306 0
M  V30 17 C -4.940645 1.574670 -6.138026 0
M  V30 18 C -6.416281 1.154639 -6.067875 0
M  V30 19 O -6.734647 0.793327 -7.376155 0
M  V30 20 C -6.004006 -0.315193 -7.702031 0
M  V30 21 C -4.512508 -0.115600 -7.579827 0
M  V30 22 C -3.019815 0.482384 -4.147489 0
M  V30 23 C -2.092311 -0.068044 -3.286452 0
M  V30 24 N -0.538855 -0.260211 -0.680099 0
M  V30 25 C -0.217702 0.150612 0.551390 0
M  V30 26 C 0.739202 -0.571110 1.200659 0
M  V30 27 N 1.150002 -0.205603 2.508690 0
M  V30 28 C 0.485440 -0.684003 3.687676 0
M  V30 29 O -0.479304 -1.442717 3.509351 0
M  V30 30 C 0.886522 -0.325041 5.044552 0
M  V30 31 C 0.127138 -0.878937 6.056466 0
M  V30 32 C 0.413004 -0.610720 7.399554 0
M  V30 33 C 1.471924 0.221104 7.700805 0
M  V30 34 C 2.235489 0.777898 6.677753 0
M  V30 35 C 3.389923 1.683972 6.995926 0
M  V30 36 F 4.373556 1.589308 6.012588 0
M  V30 37 F 3.870330 1.255795 8.209527 0
M  V30 38 F 2.919217 2.965770 7.140367 0
M  V30 39 C 1.932775 0.497026 5.349010 0
M  V30 40 C 4.084911 -1.705539 2.291515 0
M  V30 41 C 4.908702 -1.590327 3.408703 0
M  V30 42 H 5.084272 -4.056379 6.654670 0
M  V30 43 H 5.901619 -2.726408 7.546792 0
M  V30 44 H 4.094249 -2.642550 7.293781 0
M  V30 45 H 3.168007 -3.724800 5.454472 0
M  V30 46 H 1.785922 -3.828336 3.370044 0
M  V30 47 H 0.156735 -2.577619 -2.981942 0
M  V30 48 H -0.933211 -2.648631 -5.041027 0
M  V30 49 H -2.509535 -1.775918 -6.598740 0
M  V30 50 H -4.807583 2.325234 -6.960315 0
M  V30 51 H -4.783341 2.146086 -5.208344 0
M  V30 52 H -6.456063 0.317368 -5.351575 0
M  V30 53 H -6.983750 2.009213 -5.688731 0
M  V30 54 H -6.257649 -1.100958 -6.942838 0
M  V30 55 H -6.300749 -0.691779 -8.680147 0
M  V30 56 H -4.223263 0.618030 -8.368406 0
M  V30 57 H -3.958498 -1.051236 -7.769749 0
M  V30 58 H -3.568260 1.363614 -3.824404 0
M  V30 59 H -1.985987 0.436883 -2.338290 0
M  V30 60 H -0.688677 1.011127 1.015929 0
M  V30 61 H 1.976705 0.444285 2.631286 0
M  V30 62 H -0.709404 -1.532192 5.921097 0
M  V30 63 H -0.145004 -1.015017 8.224212 0
M  V30 64 H 1.700188 0.434845 8.747945 0
M  V30 65 H 2.515245 0.920906 4.539655 0
M  V30 66 H 4.424398 -1.097350 1.447207 0
M  V30 67 H 5.786484 -0.959863 3.416708 0
M  V30 END ATOM
M  V30 BEGIN BOND
M  V30 1 1 1 2
M  V30 2 1 2 3
M  V30 3 2 3 4
M  V30 4 1 4 5
M  V30 5 2 5 6
M  V30 6 1 6 7
M  V30 7 1 7 8
M  V30 8 2 8 9
M  V30 9 1 9 10
M  V30 10 1 10 11
M  V30 11 1 11 12
M  V30 12 2 12 13
M  V30 13 1 13 14
M  V30 14 2 14 15
M  V30 15 1 15 16
M  V30 16 1 16 17
M  V30 17 1 17 18
M  V30 18 1 18 19
M  V30 19 1 19 20
M  V30 20 1 20 21
M  V30 21 1 15 22
M  V30 22 2 22 23
M  V30 23 2 10 24
M  V30 24 1 24 25
M  V30 25 2 25 26
M  V30 26 1 26 27
M  V30 27 1 27 28
M  V30 28 2 28 29
M  V30 29 1 28 30
M  V30 30 2 30 31
M  V30 31 1 31 32
M  V30 32 2 32 33
M  V30 33 1 33 34
M  V30 34 1 34 35
M  V30 35 1 35 36
M  V30 36 1 35 37
M  V30 37 1 35 38
M  V30 38 2 34 39
M  V30 39 1 6 40
M  V30 40 2 40 41
M  V30 41 1 41 3
M  V30 42 1 26 8
M  V30 43 1 39 30
M  V30 44 1 23 12
M  V30 45 1 21 16
M  V30 46 1 1 42
M  V30 47 1 1 43
M  V30 48 1 1 44
M  V30 49 1 4 45
M  V30 50 1 5 46
M  V30 51 1 11 47
M  V30 52 1 13 48
M  V30 53 1 14 49
M  V30 54 1 17 50
M  V30 55 1 17 51
M  V30 56 1 18 52
M  V30 57 1 18 53
M  V30 58 1 20 54
M  V30 59 1 20 55
M  V30 60 1 21 56
M  V30 61 1 21 57
M  V30 62 1 22 58
M  V30 63 1 23 59
M  V30 64 1 25 60
M  V30 65 1 27 61
M  V30 66 1 31 62
M  V30 67 1 32 63
M  V30 68 1 33 64
M  V30 69 1 39 65
M  V30 70 1 40 66
M  V30 71 1 41 67
M  V30 END BOND
M  V30 END CTAB
M  END
>  <Dataset>  (190) 
ChEMBL_Kinases

>  <Ligand_Instance>  (190) 
nan

>  <PDB_ID>  (190) 
nan

>  <Standardized_SMILES>  (190) 
COc1ccc(Oc2nc(Nc3ccc(N4CCOCC4)cc3)ncc2NC(=O)c2cccc(C(F)(F)F)c2)cc1

>  <Name>  (190) 
nan

>  <Pocket>  (190) 
nan

>  <ATP_Site>  (190) 
nan

>  <Peripheral>  (190) 
nan

>  <Num_H_Atoms_ProtBoundConf>  (190) 
nan

>  <Num_Resolved_Atoms>  (190) 
nan

>  <Num_Not_Resolved_Atoms>  (190) 
nan

$$$$
CHEMBL4467745
     RDKit          3D

  0  0  0  0  0  0  0  0  0  0999 V3000
M  V30 BEGIN CTAB
M  V30 COUNTS 52 55 0 0 0
M  V30 BEGIN ATOM
M  V30 1 C -1.404442 -1.679450 0.023052 0
M  V30 2 O -0.783803 -2.929573 0.248591 0
M  V30 3 C 0.492106 -3.047336 0.783563 0
M  V30 4 N 1.245048 -2.020452 1.131226 0
M  V30 5 C 2.461206 -2.008833 1.644756 0
M  V30 6 N 3.224039 -0.849468 2.000481 0
M  V30 7 C 2.879509 0.502741 1.895612 0
M  V30 8 C 3.811008 1.464358 2.312952 0
M  V30 9 N 3.544294 2.777942 2.239641 0
M  V30 10 C 2.381772 3.251798 1.767457 0
M  V30 11 C 2.154062 4.642699 1.712596 0
M  V30 12 N 1.989133 5.764667 1.675783 0
M  V30 13 C 1.384688 2.421467 1.326505 0
M  V30 14 O 0.179327 2.611405 0.828146 0
M  V30 15 C -0.663951 3.626018 0.505292 0
M  V30 16 C -1.967131 3.611380 1.310522 0
M  V30 17 C -2.751781 2.347511 1.106673 0
M  V30 18 C -2.427876 1.793403 -0.264708 0
M  V30 19 N -2.222173 2.825819 -1.238258 0
M  V30 20 C -1.061835 3.642113 -0.971624 0
M  V30 21 C 1.697139 1.061456 1.417588 0
M  V30 22 N 2.979164 -3.233169 1.827651 0
M  V30 23 C 2.309310 -4.344641 1.512582 0
M  V30 24 C 1.055090 -4.287058 0.985000 0
M  V30 25 C 0.315397 -5.494655 0.637511 0
M  V30 26 C 0.110182 -6.698290 1.297562 0
M  V30 27 N -0.660494 -7.476472 0.517048 0
M  V30 28 N -0.957309 -6.827586 -0.609730 0
M  V30 29 C -1.774629 -7.325837 -1.722362 0
M  V30 30 C -0.378279 -5.625180 -0.561353 0
M  V30 31 H -2.249700 -1.840975 -0.685923 0
M  V30 32 H -0.685317 -0.987754 -0.497424 0
M  V30 33 H -1.793475 -1.288963 0.962249 0
M  V30 34 H 4.173471 -1.059859 2.394089 0
M  V30 35 H 4.786972 1.221055 2.713841 0
M  V30 36 H -0.221834 4.613534 0.719831 0
M  V30 37 H -1.740231 3.724648 2.378846 0
M  V30 38 H -2.543165 4.478420 0.936522 0
M  V30 39 H -2.460454 1.623040 1.902619 0
M  V30 40 H -3.827821 2.509033 1.195950 0
M  V30 41 H -3.244630 1.147522 -0.589468 0
M  V30 42 H -1.464810 1.257431 -0.164726 0
M  V30 43 H -3.074468 3.372391 -1.470869 0
M  V30 44 H -1.276315 4.682812 -1.270571 0
M  V30 45 H -0.212771 3.238968 -1.535789 0
M  V30 46 H 1.004102 0.275251 1.105056 0
M  V30 47 H 2.778243 -5.326113 1.681877 0
M  V30 48 H 0.555911 -6.844040 2.267940 0
M  V30 49 H -2.419990 -8.145175 -1.387382 0
M  V30 50 H -1.066261 -7.665201 -2.525289 0
M  V30 51 H -2.361346 -6.493056 -2.145869 0
M  V30 52 H -0.450540 -4.886289 -1.341580 0
M  V30 END ATOM
M  V30 BEGIN BOND
M  V30 1 1 1 2
M  V30 2 1 2 3
M  V30 3 2 3 4
M  V30 4 1 4 5
M  V30 5 1 5 6
M  V30 6 1 6 7
M  V30 7 2 7 8
M  V30 8 1 8 9
M  V30 9 2 9 10
M  V30 10 1 10 11
M  V30 11 3 11 12
M  V30 12 1 10 13
M  V30 13 1 13 14
M  V30 14 1 14 15
M  V30 15 1 15 16
M  V30 16 1 16 17
M  V30 17 1 17 18
M  V30 18 1 18 19
M  V30 19 1 19 20
M  V30 20 2 13 21
M  V30 21 2 5 22
M  V30 22 1 22 23
M  V30 23 2 23 24
M  V30 24 1 24 25
M  V30 25 1 25 26
M  V30 26 2 26 27
M  V30 27 1 27 28
M  V30 28 1 28 29
M  V30 29 1 28 30
M  V30 30 1 24 3
M  V30 31 2 30 25
M  V30 32 1 21 7
M  V30 33 1 20 15
M  V30 34 1 1 31
M  V30 35 1 1 32
M  V30 36 1 1 33
M  V30 37 1 6 34
M  V30 38 1 8 35
M  V30 39 1 15 36
M  V30 40 1 16 37
M  V30 41 1 16 38
M  V30 42 1 17 39
M  V30 43 1 17 40
M  V30 44 1 18 41
M  V30 45 1 18 42
M  V30 46 1 19 43
M  V30 47 1 20 44
M  V30 48 1 20 45
M  V30 49 1 21 46
M  V30 50 1 23 47
M  V30 51 1 26 48
M  V30 52 1 29 49
M  V30 53 1 29 50
M  V30 54 1 29 51
M  V30 55 1 30 52
M  V30 END BOND
M  V30 END CTAB
M  END
>  <Dataset>  (191) 
ChEMBL_Kinases

>  <Ligand_Instance>  (191) 
nan

>  <PDB_ID>  (191) 
nan

>  <Standardized_SMILES>  (191) 
COc1nc(Nc2cnc(C#N)c(OC3CCCNC3)c2)ncc1-c1cnn(C)c1

>  <Name>  (191) 
nan

>  <Pocket>  (191) 
nan

>  <ATP_Site>  (191) 
nan

>  <Peripheral>  (191) 
nan

>  <Num_H_Atoms_ProtBoundConf>  (191) 
nan

>  <Num_Resolved_Atoms>  (191) 
nan

>  <Num_Not_Resolved_Atoms>  (191) 
nan

$$$$
CHEMBL4467722
     RDKit          3D

  0  0  0  0  0  0  0  0  0  0999 V3000
M  V30 BEGIN CTAB
M  V30 COUNTS 53 57 0 0 0
M  V30 BEGIN ATOM
M  V30 1 C 1.780790 -1.957747 1.702547 0
M  V30 2 O 1.679393 -0.593868 1.374509 0
M  V30 3 C 2.749782 0.170062 1.004050 0
M  V30 4 C 4.002451 -0.386215 0.934575 0
M  V30 5 C 5.068728 0.398824 0.559533 0
M  V30 6 F 6.308790 -0.171177 0.496349 0
M  V30 7 C 4.913758 1.716730 0.254136 0
M  V30 8 C 3.621540 2.223805 0.342434 0
M  V30 9 C 2.480525 1.500959 0.714909 0
M  V30 10 N 1.234778 2.185351 0.760115 0
M  V30 11 C 0.612036 2.166903 2.034549 0
M  V30 12 N 1.276243 2.947991 2.885609 0
M  V30 13 C 0.954664 3.147006 4.170787 0
M  V30 14 N -0.133696 2.483102 4.587908 0
M  V30 15 C -0.814727 1.699612 3.765455 0
M  V30 16 S -2.277836 0.701581 3.976430 0
M  V30 17 C -2.377429 0.079336 2.341737 0
M  V30 18 C -1.283947 0.652466 1.670127 0
M  V30 19 C -0.508081 1.477522 2.442357 0
M  V30 20 C -1.221373 0.238535 0.241865 0
M  V30 21 C -2.693025 0.197774 -0.224857 0
M  V30 22 N -3.408631 -0.849476 0.359262 0
M  V30 23 S -3.760279 -2.278731 -0.418054 0
M  V30 24 O -4.663114 -3.099150 0.510585 0
M  V30 25 O -4.671445 -2.045920 -1.632727 0
M  V30 26 C -2.448274 -3.270896 -0.938215 0
M  V30 27 C -2.176133 -4.445957 -0.232764 0
M  V30 28 C -1.131340 -5.309958 -0.484636 0
M  V30 29 C -0.265739 -5.005582 -1.520663 0
M  V30 30 C -0.478631 -3.858434 -2.259257 0
M  V30 31 C -1.555596 -3.038161 -1.944956 0
M  V30 32 N -1.713077 -1.933242 -2.784568 0 CHG=1 VAL=4
M  V30 33 O -2.713627 -1.343156 -3.232607 0
M  V30 34 O -0.826951 -1.129400 -3.457372 0 CHG=-1 VAL=1
M  V30 35 C -3.386119 -0.836751 1.782838 0
M  V30 36 H 0.804880 -2.403670 1.972249 0
M  V30 37 H 2.437211 -2.142951 2.578797 0
M  V30 38 H 2.223213 -2.493252 0.833080 0
M  V30 39 H 4.100467 -1.443530 1.183174 0
M  V30 40 H 5.727647 2.362433 -0.043249 0
M  V30 41 H 3.520330 3.289259 0.092588 0
M  V30 42 H 1.062820 2.563227 -0.209467 0
M  V30 43 H 1.462141 3.767679 4.889734 0
M  V30 44 H -0.702748 0.951624 -0.398166 0
M  V30 45 H -0.793505 -0.789406 0.202448 0
M  V30 46 H -3.100092 1.164553 0.255317 0
M  V30 47 H -2.821618 0.376580 -1.279284 0
M  V30 48 H -2.788370 -4.792235 0.608097 0
M  V30 49 H -0.934299 -6.213908 0.069689 0
M  V30 50 H 0.571735 -5.636785 -1.770087 0
M  V30 51 H 0.203372 -3.644071 -3.056016 0
M  V30 52 H -4.380157 -0.510415 2.201462 0
M  V30 53 H -3.181368 -1.852854 2.155249 0
M  V30 END ATOM
M  V30 BEGIN BOND
M  V30 1 1 1 2
M  V30 2 1 2 3
M  V30 3 2 3 4
M  V30 4 1 4 5
M  V30 5 1 5 6
M  V30 6 2 5 7
M  V30 7 1 7 8
M  V30 8 2 8 9
M  V30 9 1 9 10
M  V30 10 1 10 11
M  V30 11 2 11 12
M  V30 12 1 12 13
M  V30 13 2 13 14
M  V30 14 1 14 15
M  V30 15 1 15 16
M  V30 16 1 16 17
M  V30 17 2 17 18
M  V30 18 1 18 19
M  V30 19 1 18 20
M  V30 20 1 20 21
M  V30 21 1 21 22
M  V30 22 1 22 23
M  V30 23 2 23 24
M  V30 24 2 23 25
M  V30 25 1 23 26
M  V30 26 2 26 27
M  V30 27 1 27 28
M  V30 28 2 28 29
M  V30 29 1 29 30
M  V30 30 2 30 31
M  V30 31 1 31 32
M  V30 32 2 32 33
M  V30 33 1 32 34
M  V30 34 1 22 35
M  V30 35 1 9 3
M  V30 36 1 19 11
M  V30 37 1 31 26
M  V30 38 2 19 15
M  V30 39 1 35 17
M  V30 40 1 1 36
M  V30 41 1 1 37
M  V30 42 1 1 38
M  V30 43 1 4 39
M  V30 44 1 7 40
M  V30 45 1 8 41
M  V30 46 1 10 42
M  V30 47 1 13 43
M  V30 48 1 20 44
M  V30 49 1 20 45
M  V30 50 1 21 46
M  V30 51 1 21 47
M  V30 52 1 27 48
M  V30 53 1 28 49
M  V30 54 1 29 50
M  V30 55 1 30 51
M  V30 56 1 35 52
M  V30 57 1 35 53
M  V30 END BOND
M  V30 END CTAB
M  END
>  <Dataset>  (192) 
ChEMBL_Kinases

>  <Ligand_Instance>  (192) 
nan

>  <PDB_ID>  (192) 
nan

>  <Standardized_SMILES>  (192) 
COc1cc(F)ccc1Nc1ncnc2sc3c(c12)CCN(S(=O)(=O)c1ccccc1[N+](=O)[O-])C3

>  <Name>  (192) 
nan

>  <Pocket>  (192) 
nan

>  <ATP_Site>  (192) 
nan

>  <Peripheral>  (192) 
nan

>  <Num_H_Atoms_ProtBoundConf>  (192) 
nan

>  <Num_Resolved_Atoms>  (192) 
nan

>  <Num_Not_Resolved_Atoms>  (192) 
nan

$$$$
CHEMBL4467668
     RDKit          3D

  0  0  0  0  0  0  0  0  0  0999 V3000
M  V30 BEGIN CTAB
M  V30 COUNTS 36 38 0 0 0
M  V30 BEGIN ATOM
M  V30 1 N 1.017040 -3.049413 3.264519 0
M  V30 2 C 1.733882 -3.743512 2.243695 0
M  V30 3 N 2.025893 -5.028400 2.545244 0
M  V30 4 C 2.702160 -5.821812 1.681389 0
M  V30 5 C 3.086002 -5.276632 0.478419 0
M  V30 6 C 2.801500 -3.964994 0.141827 0
M  V30 7 C 2.110041 -3.169970 1.036686 0
M  V30 8 N 1.724150 -1.809166 0.879496 0
M  V30 9 C 2.502678 -0.876837 0.489842 0
M  V30 10 C 1.986904 0.491858 0.366227 0
M  V30 11 C 2.786441 1.542852 -0.051837 0
M  V30 12 C 2.185338 2.795973 -0.130257 0
M  V30 13 N 0.896682 3.024170 0.174114 0
M  V30 14 C 0.082971 2.013694 0.588220 0
M  V30 15 N -1.291056 2.152002 0.932899 0
M  V30 16 C -2.127443 1.961074 -0.196128 0
M  V30 17 O -1.638339 1.703062 -1.334787 0
M  V30 18 C -3.622310 2.046415 -0.138161 0
M  V30 19 C -4.369141 2.304617 -1.369384 0
M  V30 20 C -4.306568 0.872795 -0.888802 0
M  V30 21 C 0.675893 0.771637 0.666727 0
M  V30 22 H 1.251739 -2.526254 4.153702 0
M  V30 23 H 0.059287 -2.769650 3.572605 0
M  V30 24 H 2.945021 -6.851935 1.904617 0
M  V30 25 H 3.621329 -5.866552 -0.232742 0
M  V30 26 H 3.069809 -3.469638 -0.780815 0
M  V30 27 H 3.511191 -1.110024 0.262018 0
M  V30 28 H 3.825739 1.369169 -0.299303 0
M  V30 29 H 2.805682 3.626902 -0.457577 0
M  V30 30 H -1.742220 2.366581 1.869388 0
M  V30 31 H -4.077996 2.274289 0.861887 0
M  V30 32 H -3.815869 2.593929 -2.281045 0
M  V30 33 H -5.392223 2.761572 -1.273568 0
M  V30 34 H -3.681586 0.179489 -1.454812 0
M  V30 35 H -5.198933 0.421420 -0.420707 0
M  V30 36 H 0.069978 -0.065583 0.991389 0
M  V30 END ATOM
M  V30 BEGIN BOND
M  V30 1 1 1 2
M  V30 2 2 2 3
M  V30 3 1 3 4
M  V30 4 2 4 5
M  V30 5 1 5 6
M  V30 6 2 6 7
M  V30 7 1 7 8
M  V30 8 2 8 9
M  V30 9 1 9 10
M  V30 10 2 10 11
M  V30 11 1 11 12
M  V30 12 2 12 13
M  V30 13 1 13 14
M  V30 14 1 14 15
M  V30 15 1 15 16
M  V30 16 2 16 17
M  V30 17 1 16 18
M  V30 18 1 18 19
M  V30 19 1 19 20
M  V30 20 2 14 21
M  V30 21 1 7 2
M  V30 22 1 21 10
M  V30 23 1 20 18
M  V30 24 1 1 22
M  V30 25 1 1 23
M  V30 26 1 4 24
M  V30 27 1 5 25
M  V30 28 1 6 26
M  V30 29 1 9 27
M  V30 30 1 11 28
M  V30 31 1 12 29
M  V30 32 1 15 30
M  V30 33 1 18 31
M  V30 34 1 19 32
M  V30 35 1 19 33
M  V30 36 1 20 34
M  V30 37 1 20 35
M  V30 38 1 21 36
M  V30 END BOND
M  V30 END CTAB
M  END
>  <Dataset>  (193) 
ChEMBL_Kinases

>  <Ligand_Instance>  (193) 
nan

>  <PDB_ID>  (193) 
nan

>  <Standardized_SMILES>  (193) 
Nc1ncccc1/N=C/c1ccnc(NC(=O)C2CC2)c1

>  <Name>  (193) 
nan

>  <Pocket>  (193) 
nan

>  <ATP_Site>  (193) 
nan

>  <Peripheral>  (193) 
nan

>  <Num_H_Atoms_ProtBoundConf>  (193) 
nan

>  <Num_Resolved_Atoms>  (193) 
nan

>  <Num_Not_Resolved_Atoms>  (193) 
nan

$$$$
CHEMBL471146
     RDKit          3D

  0  0  0  0  0  0  0  0  0  0999 V3000
M  V30 BEGIN CTAB
M  V30 COUNTS 52 54 0 0 0
M  V30 BEGIN ATOM
M  V30 1 C -0.823620 -5.161641 2.368762 0
M  V30 2 C -0.328965 -3.776388 1.985131 0
M  V30 3 C 1.087785 -3.888793 1.464373 0
M  V30 4 C 1.648795 -2.559366 1.062662 0
M  V30 5 O 2.136794 -2.298586 -0.052835 0
M  V30 6 O 1.540639 -1.693327 2.096943 0
M  V30 7 C 1.894434 -0.363082 2.213975 0
M  V30 8 C 1.081055 0.538828 1.365794 0
M  V30 9 C 1.342685 0.593319 -0.086490 0
M  V30 10 O 2.712996 0.722701 -0.322710 0
M  V30 11 C 1.241993 2.007266 1.872040 0
M  V30 12 C 0.020211 2.612082 1.291177 0
M  V30 13 C -0.378504 3.777874 0.811040 0
M  V30 14 C -1.647354 4.219168 0.258130 0
M  V30 15 C -2.345551 3.565998 -0.735307 0
M  V30 16 C -3.578384 4.079943 -1.150871 0
M  V30 17 C -4.112024 5.239649 -0.579019 0
M  V30 18 F -5.319044 5.732442 -0.993568 0
M  V30 19 C -3.399099 5.890899 0.421685 0
M  V30 20 C -2.166213 5.371396 0.833060 0
M  V30 21 C -0.937307 1.522451 1.380853 0
M  V30 22 O -2.183982 1.533370 1.190289 0
M  V30 23 O -0.281322 0.359671 1.731678 0
M  V30 24 C 1.163937 -4.863163 0.374334 0
M  V30 25 C 0.520465 -4.465247 -0.796133 0
M  V30 26 C 0.544549 -5.337634 -1.879522 0
M  V30 27 C 1.191674 -6.563140 -1.787023 0
M  V30 28 C 1.825655 -6.943338 -0.617507 0
M  V30 29 C 1.807507 -6.085726 0.462299 0
M  V30 30 H 0.015721 -5.892368 2.407782 0
M  V30 31 H -1.566961 -5.560477 1.628790 0
M  V30 32 H -1.315663 -5.180229 3.358171 0
M  V30 33 H -1.012737 -3.242929 1.296766 0
M  V30 34 H -0.326634 -3.177399 2.930593 0
M  V30 35 H 1.684339 -4.267353 2.330286 0
M  V30 36 H 2.974412 -0.200261 1.878537 0
M  V30 37 H 1.858737 -0.073968 3.288243 0
M  V30 38 H 0.944191 1.621351 -0.434689 0
M  V30 39 H 0.842588 -0.148961 -0.720824 0
M  V30 40 H 2.943125 0.612216 -1.279285 0
M  V30 41 H 2.165537 2.454353 1.470477 0
M  V30 42 H 1.174042 2.047108 2.963223 0
M  V30 43 H 0.439222 4.522832 0.860941 0
M  V30 44 H -1.933321 2.675932 -1.199492 0
M  V30 45 H -4.143277 3.564494 -1.944573 0
M  V30 46 H -3.867964 6.779665 0.820640 0
M  V30 47 H -1.719625 5.966679 1.611019 0
M  V30 48 H -0.003052 -3.548849 -0.965141 0
M  V30 49 H 0.078177 -5.147269 -2.857275 0
M  V30 50 H 1.236302 -7.282082 -2.613344 0
M  V30 51 H 2.353945 -7.880678 -0.454487 0
M  V30 52 H 2.283434 -6.305972 1.424088 0
M  V30 END ATOM
M  V30 BEGIN BOND
M  V30 1 1 1 2
M  V30 2 1 2 3
M  V30 3 1 3 4
M  V30 4 2 4 5
M  V30 5 1 4 6
M  V30 6 1 6 7
M  V30 7 1 7 8
M  V30 8 1 8 9
M  V30 9 1 9 10
M  V30 10 1 8 11
M  V30 11 1 11 12
M  V30 12 2 12 13
M  V30 13 1 13 14
M  V30 14 2 14 15
M  V30 15 1 15 16
M  V30 16 2 16 17
M  V30 17 1 17 18
M  V30 18 1 17 19
M  V30 19 2 19 20
M  V30 20 1 12 21
M  V30 21 2 21 22
M  V30 22 1 21 23
M  V30 23 1 3 24
M  V30 24 2 24 25
M  V30 25 1 25 26
M  V30 26 2 26 27
M  V30 27 1 27 28
M  V30 28 2 28 29
M  V30 29 1 23 8
M  V30 30 1 29 24
M  V30 31 1 20 14
M  V30 32 1 1 30
M  V30 33 1 1 31
M  V30 34 1 1 32
M  V30 35 1 2 33
M  V30 36 1 2 34
M  V30 37 1 3 35
M  V30 38 1 7 36
M  V30 39 1 7 37
M  V30 40 1 9 38
M  V30 41 1 9 39
M  V30 42 1 10 40
M  V30 43 1 11 41
M  V30 44 1 11 42
M  V30 45 1 13 43
M  V30 46 1 15 44
M  V30 47 1 16 45
M  V30 48 1 19 46
M  V30 49 1 20 47
M  V30 50 1 25 48
M  V30 51 1 26 49
M  V30 52 1 27 50
M  V30 53 1 28 51
M  V30 54 1 29 52
M  V30 END BOND
M  V30 END CTAB
M  END
>  <Dataset>  (194) 
ChEMBL_Kinases

>  <Ligand_Instance>  (194) 
nan

>  <PDB_ID>  (194) 
nan

>  <Standardized_SMILES>  (194) 
CCC(C(=O)OCC1(CO)C/C(=C/c2ccc(F)cc2)C(=O)O1)c1ccccc1

>  <Name>  (194) 
nan

>  <Pocket>  (194) 
nan

>  <ATP_Site>  (194) 
nan

>  <Peripheral>  (194) 
nan

>  <Num_H_Atoms_ProtBoundConf>  (194) 
nan

>  <Num_Resolved_Atoms>  (194) 
nan

>  <Num_Not_Resolved_Atoms>  (194) 
nan

$$$$
CHEMBL471151
     RDKit          3D

  0  0  0  0  0  0  0  0  0  0999 V3000
M  V30 BEGIN CTAB
M  V30 COUNTS 57 58 0 0 0
M  V30 BEGIN ATOM
M  V30 1 C 1.090727 -2.902811 3.031105 0
M  V30 2 C 2.348011 -2.224074 3.447682 0
M  V30 3 C 3.009227 -1.431412 2.364195 0
M  V30 4 C 3.388689 -2.331618 1.161872 0
M  V30 5 C 4.040686 -1.554244 0.091307 0
M  V30 6 C 3.383033 -0.438658 -0.567090 0
M  V30 7 C 2.142779 -0.298501 -1.076011 0
M  V30 8 C 1.307158 0.733769 -1.758852 0
M  V30 9 C -0.101053 0.352862 -1.345265 0
M  V30 10 C -1.017616 0.378207 -2.543054 0
M  V30 11 O -0.569882 -0.497449 -3.531497 0
M  V30 12 C -0.671447 1.283816 -0.295234 0
M  V30 13 O -1.947050 0.796550 0.017358 0
M  V30 14 C -2.833876 1.323740 0.920721 0
M  V30 15 O -2.501714 2.352486 1.553799 0
M  V30 16 C -4.141655 0.656684 1.108512 0
M  V30 17 C -4.460628 -0.492131 0.373121 0
M  V30 18 C -5.679371 -1.124540 0.539611 0
M  V30 19 C -6.605949 -0.619882 1.446865 0
M  V30 20 C -7.887093 -1.360883 1.561496 0
M  V30 21 F -8.837505 -0.889193 0.677632 0
M  V30 22 F -8.438241 -1.285889 2.813569 0
M  V30 23 F -7.687152 -2.691074 1.237710 0
M  V30 24 C -6.286970 0.515776 2.171827 0
M  V30 25 C -5.063603 1.156683 2.009538 0
M  V30 26 O -0.041915 -0.950166 -0.785631 0
M  V30 27 C 1.223521 -1.467013 -1.128021 0
M  V30 28 O 1.731669 -2.592687 -1.446522 0
M  V30 29 C 5.203873 -2.195481 -0.632727 0
M  V30 30 C 5.779429 -1.294636 -1.700938 0
M  V30 31 H 0.532197 -2.347790 2.265050 0
M  V30 32 H 1.286491 -3.959379 2.742240 0
M  V30 33 H 0.419464 -2.962928 3.920228 0
M  V30 34 H 3.055449 -2.946769 3.902301 0
M  V30 35 H 2.106532 -1.506018 4.258168 0
M  V30 36 H 2.345636 -0.637773 1.969417 0
M  V30 37 H 3.899933 -0.927884 2.786546 0
M  V30 38 H 2.546619 -2.913050 0.852192 0
M  V30 39 H 4.114328 -3.033436 1.682635 0
M  V30 40 H 4.727795 -0.879526 0.819504 0
M  V30 41 H 3.895924 0.545508 -0.750197 0
M  V30 42 H 1.432115 0.727454 -2.842546 0
M  V30 43 H 1.534312 1.720199 -1.327261 0
M  V30 44 H -1.038861 1.428531 -2.918146 0
M  V30 45 H -2.037364 0.094388 -2.239813 0
M  V30 46 H -1.332755 -0.605981 -4.170044 0
M  V30 47 H 0.017639 1.267396 0.590571 0
M  V30 48 H -0.632817 2.312821 -0.667177 0
M  V30 49 H -3.721785 -0.860713 -0.323520 0
M  V30 50 H -5.883168 -2.016379 -0.055286 0
M  V30 51 H -7.019036 0.880493 2.861684 0
M  V30 52 H -4.845218 2.050952 2.598370 0
M  V30 53 H 4.910973 -3.198492 -1.063624 0
M  V30 54 H 6.044830 -2.478646 0.031154 0
M  V30 55 H 5.648235 -0.223350 -1.447291 0
M  V30 56 H 5.306707 -1.519541 -2.675772 0
M  V30 57 H 6.871762 -1.432073 -1.825371 0
M  V30 END ATOM
M  V30 BEGIN BOND
M  V30 1 1 1 2
M  V30 2 1 2 3
M  V30 3 1 3 4
M  V30 4 1 4 5
M  V30 5 1 5 6
M  V30 6 2 6 7
M  V30 7 1 7 8
M  V30 8 1 8 9
M  V30 9 1 9 10
M  V30 10 1 10 11
M  V30 11 1 9 12
M  V30 12 1 12 13
M  V30 13 1 13 14
M  V30 14 2 14 15
M  V30 15 1 14 16
M  V30 16 2 16 17
M  V30 17 1 17 18
M  V30 18 2 18 19
M  V30 19 1 19 20
M  V30 20 1 20 21
M  V30 21 1 20 22
M  V30 22 1 20 23
M  V30 23 1 19 24
M  V30 24 2 24 25
M  V30 25 1 9 26
M  V30 26 1 26 27
M  V30 27 2 27 28
M  V30 28 1 5 29
M  V30 29 1 29 30
M  V30 30 1 27 7
M  V30 31 1 25 16
M  V30 32 1 1 31
M  V30 33 1 1 32
M  V30 34 1 1 33
M  V30 35 1 2 34
M  V30 36 1 2 35
M  V30 37 1 3 36
M  V30 38 1 3 37
M  V30 39 1 4 38
M  V30 40 1 4 39
M  V30 41 1 5 40
M  V30 42 1 6 41
M  V30 43 1 8 42
M  V30 44 1 8 43
M  V30 45 1 10 44
M  V30 46 1 10 45
M  V30 47 1 11 46
M  V30 48 1 12 47
M  V30 49 1 12 48
M  V30 50 1 17 49
M  V30 51 1 18 50
M  V30 52 1 24 51
M  V30 53 1 25 52
M  V30 54 1 29 53
M  V30 55 1 29 54
M  V30 56 1 30 55
M  V30 57 1 30 56
M  V30 58 1 30 57
M  V30 END BOND
M  V30 END CTAB
M  END
>  <Dataset>  (195) 
ChEMBL_Kinases

>  <Ligand_Instance>  (195) 
nan

>  <PDB_ID>  (195) 
nan

>  <Standardized_SMILES>  (195) 
CCCCC(/C=C1/CC(CO)(COC(=O)c2ccc(C(F)(F)F)cc2)OC1=O)CC

>  <Name>  (195) 
nan

>  <Pocket>  (195) 
nan

>  <ATP_Site>  (195) 
nan

>  <Peripheral>  (195) 
nan

>  <Num_H_Atoms_ProtBoundConf>  (195) 
nan

>  <Num_Resolved_Atoms>  (195) 
nan

>  <Num_Not_Resolved_Atoms>  (195) 
nan

$$$$
CHEMBL471152
     RDKit          3D

  0  0  0  0  0  0  0  0  0  0999 V3000
M  V30 BEGIN CTAB
M  V30 COUNTS 49 51 0 0 0
M  V30 BEGIN ATOM
M  V30 1 O 0.251924 -3.875862 2.051878 0
M  V30 2 C 0.929532 -2.804993 2.272967 0
M  V30 3 O 2.254740 -2.338204 2.220158 0
M  V30 4 C 2.469272 -1.321181 3.155402 0
M  V30 5 C 3.346261 -1.773161 4.303025 0
M  V30 6 O 4.600782 -2.185517 3.862528 0
M  V30 7 C 3.105630 -0.071877 2.570128 0
M  V30 8 O 2.245670 0.440271 1.575793 0
M  V30 9 C 2.464114 1.558606 0.819325 0
M  V30 10 O 3.515498 2.226776 0.982351 0
M  V30 11 C 1.469173 1.975306 -0.179824 0
M  V30 12 C 1.659803 3.096855 -0.964338 0
M  V30 13 C 0.692051 3.474289 -1.903492 0
M  V30 14 C -0.457489 2.716159 -2.039803 0
M  V30 15 C -1.572137 2.990414 -2.986517 0
M  V30 16 F -2.672220 3.527799 -2.298938 0
M  V30 17 F -1.220913 3.901190 -3.952180 0
M  V30 18 F -2.026658 1.796971 -3.505080 0
M  V30 19 C -0.655614 1.591114 -1.258217 0
M  V30 20 C 0.312432 1.241641 -0.342490 0
M  V30 21 C 1.087824 -0.958685 3.717851 0
M  V30 22 C 0.176000 -1.617850 2.737125 0
M  V30 23 C -1.050806 -1.257486 2.322422 0
M  V30 24 C -1.816045 -1.998751 1.338737 0
M  V30 25 C -3.166405 -2.312484 1.427770 0
M  V30 26 C -3.826261 -3.007991 0.435265 0
M  V30 27 C -3.156219 -3.423734 -0.698972 0
M  V30 28 C -3.866775 -4.184268 -1.773838 0
M  V30 29 F -4.143864 -3.386349 -2.856357 0
M  V30 30 F -3.112831 -5.266261 -2.192301 0
M  V30 31 F -5.028664 -4.690715 -1.232017 0
M  V30 32 C -1.814081 -3.128682 -0.820055 0
M  V30 33 C -1.170619 -2.432777 0.180292 0
M  V30 34 H 2.884975 -2.609356 4.871221 0
M  V30 35 H 3.512891 -0.937777 5.010910 0
M  V30 36 H 4.552541 -2.202911 2.857802 0
M  V30 37 H 3.240298 0.621359 3.428729 0
M  V30 38 H 4.123442 -0.280370 2.193296 0
M  V30 39 H 2.550821 3.695693 -0.868320 0
M  V30 40 H 0.778205 4.327714 -2.544412 0
M  V30 41 H -1.536167 0.930373 -1.300929 0
M  V30 42 H 0.199259 0.376160 0.286329 0
M  V30 43 H 1.009698 0.125212 3.743938 0
M  V30 44 H 0.952728 -1.375279 4.732507 0
M  V30 45 H -1.492371 -0.347497 2.758488 0
M  V30 46 H -3.654886 -1.969477 2.332401 0
M  V30 47 H -4.885598 -3.219974 0.569365 0
M  V30 48 H -1.343593 -3.478136 -1.726978 0
M  V30 49 H -0.122447 -2.263747 -0.067349 0
M  V30 END ATOM
M  V30 BEGIN BOND
M  V30 1 2 1 2
M  V30 2 1 2 3
M  V30 3 1 3 4
M  V30 4 1 4 5
M  V30 5 1 5 6
M  V30 6 1 4 7
M  V30 7 1 7 8
M  V30 8 1 8 9
M  V30 9 2 9 10
M  V30 10 1 9 11
M  V30 11 2 11 12
M  V30 12 1 12 13
M  V30 13 2 13 14
M  V30 14 1 14 15
M  V30 15 1 15 16
M  V30 16 1 15 17
M  V30 17 1 15 18
M  V30 18 1 14 19
M  V30 19 2 19 20
M  V30 20 1 4 21
M  V30 21 1 21 22
M  V30 22 2 22 23
M  V30 23 1 23 24
M  V30 24 2 24 25
M  V30 25 1 25 26
M  V30 26 2 26 27
M  V30 27 1 27 28
M  V30 28 1 28 29
M  V30 29 1 28 30
M  V30 30 1 28 31
M  V30 31 1 27 32
M  V30 32 2 32 33
M  V30 33 1 22 2
M  V30 34 1 33 24
M  V30 35 1 20 11
M  V30 36 1 5 34
M  V30 37 1 5 35
M  V30 38 1 6 36
M  V30 39 1 7 37
M  V30 40 1 7 38
M  V30 41 1 12 39
M  V30 42 1 13 40
M  V30 43 1 19 41
M  V30 44 1 20 42
M  V30 45 1 21 43
M  V30 46 1 21 44
M  V30 47 1 23 45
M  V30 48 1 25 46
M  V30 49 1 26 47
M  V30 50 1 32 48
M  V30 51 1 33 49
M  V30 END BOND
M  V30 END CTAB
M  END
>  <Dataset>  (196) 
ChEMBL_Kinases

>  <Ligand_Instance>  (196) 
nan

>  <PDB_ID>  (196) 
nan

>  <Standardized_SMILES>  (196) 
O=C1OC(CO)(COC(=O)c2ccc(C(F)(F)F)cc2)C/C1=C/c1ccc(C(F)(F)F)cc1

>  <Name>  (196) 
nan

>  <Pocket>  (196) 
nan

>  <ATP_Site>  (196) 
nan

>  <Peripheral>  (196) 
nan

>  <Num_H_Atoms_ProtBoundConf>  (196) 
nan

>  <Num_Resolved_Atoms>  (196) 
nan

>  <Num_Not_Resolved_Atoms>  (196) 
nan

$$$$
CHEMBL471153
     RDKit          3D

  0  0  0  0  0  0  0  0  0  0999 V3000
M  V30 BEGIN CTAB
M  V30 COUNTS 53 55 0 0 0
M  V30 BEGIN ATOM
M  V30 1 C 3.140084 -2.915214 5.429515 0
M  V30 2 N 2.668047 -2.700824 4.062774 0
M  V30 3 C 2.372916 -3.804072 3.173253 0
M  V30 4 C 2.521884 -1.365062 3.675800 0
M  V30 5 C 2.796966 -0.305796 4.550182 0
M  V30 6 C 2.639709 1.006022 4.126470 0
M  V30 7 C 2.214298 1.298352 2.850819 0
M  V30 8 C 1.924447 0.294345 1.933217 0
M  V30 9 C 1.462115 0.631432 0.580841 0
M  V30 10 O 1.284094 -0.383340 -0.103791 0
M  V30 11 O 1.295214 1.931862 0.270244 0
M  V30 12 C 0.860863 2.523484 -0.889637 0
M  V30 13 C -0.569581 2.300152 -1.202564 0
M  V30 14 C -1.464856 2.877934 -0.127309 0
M  V30 15 O -2.806059 2.662465 -0.430848 0
M  V30 16 C -0.868380 0.901354 -1.581858 0
M  V30 17 C -2.107103 1.040308 -2.429344 0
M  V30 18 C -2.878819 -0.037680 -2.649285 0
M  V30 19 C -2.709928 -1.382915 -2.184239 0
M  V30 20 C -1.549204 -2.120836 -2.147874 0
M  V30 21 C -1.369271 -3.401692 -1.679807 0
M  V30 22 C -2.484472 -4.039036 -1.182229 0
M  V30 23 N -2.333178 -5.360742 -0.683591 0 CHG=1 VAL=4
M  V30 24 O -1.220530 -5.938619 -0.702796 0
M  V30 25 O -3.312867 -6.154256 -0.137811 0 CHG=-1 VAL=1
M  V30 26 C -3.703641 -3.398133 -1.168689 0
M  V30 27 C -3.803113 -2.089689 -1.664575 0
M  V30 28 C -2.148078 2.438860 -2.810624 0
M  V30 29 O -3.193526 2.874882 -3.392966 0
M  V30 30 O -0.946256 2.988121 -2.414129 0
M  V30 31 C 2.102574 -0.982794 2.422140 0
M  V30 32 H 3.072536 -3.964236 5.702840 0
M  V30 33 H 4.177812 -2.525903 5.523889 0
M  V30 34 H 2.452960 -2.342475 6.107924 0
M  V30 35 H 2.262264 -4.772300 3.731675 0
M  V30 36 H 1.345166 -3.573650 2.763028 0
M  V30 37 H 3.095697 -3.928665 2.347142 0
M  V30 38 H 3.139673 -0.501634 5.563651 0
M  V30 39 H 2.878728 1.777071 4.864998 0
M  V30 40 H 2.109239 2.336480 2.579308 0
M  V30 41 H 1.479277 2.158600 -1.789597 0
M  V30 42 H 1.024472 3.639636 -0.815885 0
M  V30 43 H -1.275547 2.495781 0.877554 0
M  V30 44 H -1.298456 3.963392 -0.134732 0
M  V30 45 H -3.321375 2.822176 0.409438 0
M  V30 46 H -0.056654 0.557364 -2.241539 0
M  V30 47 H -1.088291 0.203985 -0.744764 0
M  V30 48 H -3.744008 0.221966 -3.280794 0
M  V30 49 H -0.650181 -1.660102 -2.539797 0
M  V30 50 H -0.392967 -3.885721 -1.702982 0
M  V30 51 H -4.506699 -3.968594 -0.763542 0
M  V30 52 H -4.814198 -1.664922 -1.610991 0
M  V30 53 H 1.882269 -1.791103 1.729488 0
M  V30 END ATOM
M  V30 BEGIN BOND
M  V30 1 1 1 2
M  V30 2 1 2 3
M  V30 3 1 2 4
M  V30 4 2 4 5
M  V30 5 1 5 6
M  V30 6 2 6 7
M  V30 7 1 7 8
M  V30 8 1 8 9
M  V30 9 2 9 10
M  V30 10 1 9 11
M  V30 11 1 11 12
M  V30 12 1 12 13
M  V30 13 1 13 14
M  V30 14 1 14 15
M  V30 15 1 13 16
M  V30 16 1 16 17
M  V30 17 2 17 18
M  V30 18 1 18 19
M  V30 19 2 19 20
M  V30 20 1 20 21
M  V30 21 2 21 22
M  V30 22 1 22 23
M  V30 23 2 23 24
M  V30 24 1 23 25
M  V30 25 1 22 26
M  V30 26 2 26 27
M  V30 27 1 17 28
M  V30 28 2 28 29
M  V30 29 1 28 30
M  V30 30 2 8 31
M  V30 31 1 31 4
M  V30 32 1 30 13
M  V30 33 1 27 19
M  V30 34 1 1 32
M  V30 35 1 1 33
M  V30 36 1 1 34
M  V30 37 1 3 35
M  V30 38 1 3 36
M  V30 39 1 3 37
M  V30 40 1 5 38
M  V30 41 1 6 39
M  V30 42 1 7 40
M  V30 43 1 12 41
M  V30 44 1 12 42
M  V30 45 1 14 43
M  V30 46 1 14 44
M  V30 47 1 15 45
M  V30 48 1 16 46
M  V30 49 1 16 47
M  V30 50 1 18 48
M  V30 51 1 20 49
M  V30 52 1 21 50
M  V30 53 1 26 51
M  V30 54 1 27 52
M  V30 55 1 31 53
M  V30 END BOND
M  V30 END CTAB
M  END
>  <Dataset>  (197) 
ChEMBL_Kinases

>  <Ligand_Instance>  (197) 
nan

>  <PDB_ID>  (197) 
nan

>  <Standardized_SMILES>  (197) 
CN(C)c1cccc(C(=O)OCC2(CO)C/C(=C\c3ccc([N+](=O)[O-])cc3)C(=O)O2)c1

>  <Name>  (197) 
nan

>  <Pocket>  (197) 
nan

>  <ATP_Site>  (197) 
nan

>  <Peripheral>  (197) 
nan

>  <Num_H_Atoms_ProtBoundConf>  (197) 
nan

>  <Num_Resolved_Atoms>  (197) 
nan

>  <Num_Not_Resolved_Atoms>  (197) 
nan

$$$$
CHEMBL471156
     RDKit          3D

  0  0  0  0  0  0  0  0  0  0999 V3000
M  V30 BEGIN CTAB
M  V30 COUNTS 44 48 0 0 0
M  V30 BEGIN ATOM
M  V30 1 O 1.094114 2.969356 3.628467 0
M  V30 2 C 0.743341 1.766895 3.542862 0
M  V30 3 N 0.445991 0.878724 4.641479 0
M  V30 4 C 0.094281 -0.374290 4.088552 0
M  V30 5 O -0.194923 -1.266349 4.897508 0
M  V30 6 C 0.150682 -0.339841 2.655107 0
M  V30 7 C 0.538873 0.942496 2.358274 0
M  V30 8 C 0.697439 1.354474 1.051505 0
M  V30 9 C 1.117655 2.638825 0.525024 0
M  V30 10 C 0.310295 3.223993 -0.458370 0
M  V30 11 C 0.543362 4.428529 -1.088137 0
M  V30 12 C 1.681910 5.102425 -0.698574 0
M  V30 13 C 2.524830 4.587254 0.264115 0
M  V30 14 C 2.233979 3.376563 0.855149 0
M  V30 15 C 0.454313 0.440082 0.018684 0
M  V30 16 C 0.060328 -0.860016 0.324430 0
M  V30 17 C -0.081245 -1.215801 1.645657 0
M  V30 18 C -0.468766 -2.518909 1.691294 0
M  V30 19 C -0.777897 -3.477873 2.606811 0
M  V30 20 C -1.150885 -4.764633 2.300064 0
M  V30 21 O -1.463850 -5.733642 3.246679 0
M  V30 22 C -1.230078 -5.155023 0.960196 0
M  V30 23 C -0.924245 -4.211121 0.002395 0
M  V30 24 C -0.553177 -2.924402 0.379075 0
M  V30 25 N -0.234798 -1.928369 -0.467057 0
M  V30 26 C -0.200069 -1.945267 -1.922758 0
M  V30 27 C 1.188379 -2.359031 -2.356704 0
M  V30 28 O 1.479967 -3.635976 -1.855047 0
M  V30 29 H 0.516915 1.226739 5.625187 0
M  V30 30 H -0.598027 2.691147 -0.772334 0
M  V30 31 H -0.145664 4.791429 -1.836596 0
M  V30 32 H 1.902305 6.056783 -1.170986 0
M  V30 33 H 3.420625 5.110057 0.575533 0
M  V30 34 H 2.878738 2.944689 1.603326 0
M  V30 35 H 0.544681 0.647737 -1.038976 0
M  V30 36 H -0.750785 -3.292933 3.633248 0
M  V30 37 H -2.304029 -5.683984 3.829914 0
M  V30 38 H -1.517744 -6.152835 0.664883 0
M  V30 39 H -0.988639 -4.522506 -1.021305 0
M  V30 40 H -0.902622 -2.712892 -2.279223 0
M  V30 41 H -0.384486 -0.938039 -2.336909 0
M  V30 42 H 1.266629 -2.382050 -3.461839 0
M  V30 43 H 1.951778 -1.607427 -2.010676 0
M  V30 44 H 2.428405 -3.845810 -1.962339 0
M  V30 END ATOM
M  V30 BEGIN BOND
M  V30 1 2 1 2
M  V30 2 1 2 3
M  V30 3 1 3 4
M  V30 4 2 4 5
M  V30 5 1 4 6
M  V30 6 2 6 7
M  V30 7 1 7 8
M  V30 8 1 8 9
M  V30 9 2 9 10
M  V30 10 1 10 11
M  V30 11 2 11 12
M  V30 12 1 12 13
M  V30 13 2 13 14
M  V30 14 2 8 15
M  V30 15 1 15 16
M  V30 16 2 16 17
M  V30 17 1 17 18
M  V30 18 2 18 19
M  V30 19 1 19 20
M  V30 20 1 20 21
M  V30 21 2 20 22
M  V30 22 1 22 23
M  V30 23 2 23 24
M  V30 24 1 24 25
M  V30 25 1 25 26
M  V30 26 1 26 27
M  V30 27 1 27 28
M  V30 28 1 7 2
M  V30 29 1 14 9
M  V30 30 1 25 16
M  V30 31 1 17 6
M  V30 32 1 24 18
M  V30 33 1 3 29
M  V30 34 1 10 30
M  V30 35 1 11 31
M  V30 36 1 12 32
M  V30 37 1 13 33
M  V30 38 1 14 34
M  V30 39 1 15 35
M  V30 40 1 19 36
M  V30 41 1 21 37
M  V30 42 1 22 38
M  V30 43 1 23 39
M  V30 44 1 26 40
M  V30 45 1 26 41
M  V30 46 1 27 42
M  V30 47 1 27 43
M  V30 48 1 28 44
M  V30 END BOND
M  V30 END CTAB
M  END
>  <Dataset>  (198) 
ChEMBL_Kinases

>  <Ligand_Instance>  (198) 
nan

>  <PDB_ID>  (198) 
nan

>  <Standardized_SMILES>  (198) 
O=C1NC(=O)c2c1c(-c1ccccc1)cc1c2c2cc(O)ccc2n1CCO

>  <Name>  (198) 
nan

>  <Pocket>  (198) 
nan

>  <ATP_Site>  (198) 
nan

>  <Peripheral>  (198) 
nan

>  <Num_H_Atoms_ProtBoundConf>  (198) 
nan

>  <Num_Resolved_Atoms>  (198) 
nan

>  <Num_Not_Resolved_Atoms>  (198) 
nan

$$$$
CHEMBL471157
     RDKit          3D

  0  0  0  0  0  0  0  0  0  0999 V3000
M  V30 BEGIN CTAB
M  V30 COUNTS 44 48 0 0 0
M  V30 BEGIN ATOM
M  V30 1 O 1.005683 2.161226 4.255751 0
M  V30 2 C 0.484519 1.083087 3.870161 0
M  V30 3 N -0.335423 0.167185 4.620673 0
M  V30 4 C -0.696605 -0.911574 3.776765 0
M  V30 5 O -1.407072 -1.775592 4.304633 0
M  V30 6 C -0.127651 -0.723694 2.477407 0
M  V30 7 C 0.558953 0.450466 2.557154 0
M  V30 8 C 1.253483 0.957740 1.454394 0
M  V30 9 C 1.991865 2.190773 1.488544 0
M  V30 10 C 1.217303 3.297645 1.132818 0
M  V30 11 Cl -0.487305 3.197153 0.688016 0
M  V30 12 C 1.754528 4.575457 1.106911 0
M  V30 13 C 3.086314 4.684736 1.450324 0
M  V30 14 C 3.888985 3.620536 1.807918 0
M  V30 15 C 3.319743 2.355935 1.823458 0
M  V30 16 Cl 4.199809 0.914953 2.252076 0
M  V30 17 C 1.223297 0.234050 0.282022 0
M  V30 18 C 0.523488 -0.952360 0.218709 0
M  V30 19 C -0.150372 -1.428579 1.316404 0
M  V30 20 C -0.759562 -2.604267 1.012759 0
M  V30 21 C -1.537345 -3.557656 1.577602 0
M  V30 22 C -1.999279 -4.684438 0.938170 0
M  V30 23 O -2.802669 -5.647360 1.559622 0
M  V30 24 C -1.668156 -4.899441 -0.382133 0
M  V30 25 C -0.875975 -3.955050 -1.003770 0
M  V30 26 C -0.442298 -2.841016 -0.305745 0
M  V30 27 N 0.339968 -1.823084 -0.771130 0
M  V30 28 C 0.898091 -1.668858 -2.098109 0
M  V30 29 C -0.038848 -0.907875 -3.014016 0
M  V30 30 O -1.258725 -1.563300 -3.151008 0
M  V30 31 H -0.549294 0.399797 5.636502 0
M  V30 32 H 1.182433 5.436701 0.838343 0
M  V30 33 H 3.544212 5.681260 1.440585 0
M  V30 34 H 4.932144 3.728643 2.073904 0
M  V30 35 H 1.747166 0.591039 -0.594362 0
M  V30 36 H -1.845004 -3.480910 2.590385 0
M  V30 37 H -3.714585 -5.418734 1.949584 0
M  V30 38 H -1.973464 -5.745943 -0.981763 0
M  V30 39 H -0.595308 -4.087753 -2.036724 0
M  V30 40 H 1.060606 -2.673655 -2.524752 0
M  V30 41 H 1.860600 -1.146897 -2.072736 0
M  V30 42 H 0.416614 -0.905518 -4.024588 0
M  V30 43 H -0.131290 0.154416 -2.718582 0
M  V30 44 H -1.695688 -1.150061 -3.944590 0
M  V30 END ATOM
M  V30 BEGIN BOND
M  V30 1 2 1 2
M  V30 2 1 2 3
M  V30 3 1 3 4
M  V30 4 2 4 5
M  V30 5 1 4 6
M  V30 6 2 6 7
M  V30 7 1 7 8
M  V30 8 1 8 9
M  V30 9 2 9 10
M  V30 10 1 10 11
M  V30 11 1 10 12
M  V30 12 2 12 13
M  V30 13 1 13 14
M  V30 14 2 14 15
M  V30 15 1 15 16
M  V30 16 2 8 17
M  V30 17 1 17 18
M  V30 18 2 18 19
M  V30 19 1 19 20
M  V30 20 2 20 21
M  V30 21 1 21 22
M  V30 22 1 22 23
M  V30 23 2 22 24
M  V30 24 1 24 25
M  V30 25 2 25 26
M  V30 26 1 26 27
M  V30 27 1 27 28
M  V30 28 1 28 29
M  V30 29 1 29 30
M  V30 30 1 7 2
M  V30 31 1 15 9
M  V30 32 1 27 18
M  V30 33 1 19 6
M  V30 34 1 26 20
M  V30 35 1 3 31
M  V30 36 1 12 32
M  V30 37 1 13 33
M  V30 38 1 14 34
M  V30 39 1 17 35
M  V30 40 1 21 36
M  V30 41 1 23 37
M  V30 42 1 24 38
M  V30 43 1 25 39
M  V30 44 1 28 40
M  V30 45 1 28 41
M  V30 46 1 29 42
M  V30 47 1 29 43
M  V30 48 1 30 44
M  V30 END BOND
M  V30 END CTAB
M  END
>  <Dataset>  (199) 
ChEMBL_Kinases

>  <Ligand_Instance>  (199) 
nan

>  <PDB_ID>  (199) 
nan

>  <Standardized_SMILES>  (199) 
O=C1NC(=O)c2c1c(-c1c(Cl)cccc1Cl)cc1c2c2cc(O)ccc2n1CCO

>  <Name>  (199) 
nan

>  <Pocket>  (199) 
nan

>  <ATP_Site>  (199) 
nan

>  <Peripheral>  (199) 
nan

>  <Num_H_Atoms_ProtBoundConf>  (199) 
nan

>  <Num_Resolved_Atoms>  (199) 
nan

>  <Num_Not_Resolved_Atoms>  (199) 
nan

$$$$
CHEMBL471163
     RDKit          3D

  0  0  0  0  0  0  0  0  0  0999 V3000
M  V30 BEGIN CTAB
M  V30 COUNTS 47 51 0 0 0
M  V30 BEGIN ATOM
M  V30 1 O 3.413042 2.305271 2.602706 0
M  V30 2 C 2.684608 1.338801 2.872789 0
M  V30 3 N 2.465949 0.680205 4.134300 0
M  V30 4 C 1.544329 -0.379523 3.953670 0
M  V30 5 O 1.278414 -1.020617 4.975805 0
M  V30 6 C 1.134720 -0.448736 2.586287 0
M  V30 7 C 1.813760 0.568030 1.963457 0
M  V30 8 C 1.657329 0.804921 0.597919 0
M  V30 9 C 2.352148 1.861855 -0.092623 0
M  V30 10 C 1.638656 3.064450 -0.100920 0
M  V30 11 Cl 0.079970 3.287929 0.634640 0
M  V30 12 C 2.170280 4.182923 -0.726389 0
M  V30 13 C 3.410145 4.064463 -1.330087 0
M  V30 14 C 4.109522 2.873077 -1.318011 0
M  V30 15 C 3.590075 1.753194 -0.698390 0
M  V30 16 Cl 4.385371 0.192290 -0.620049 0
M  V30 17 C 0.813114 -0.001333 -0.094188 0
M  V30 18 C 0.127051 -1.025427 0.524861 0
M  V30 19 C 0.294886 -1.243094 1.873029 0
M  V30 20 C -0.468585 -2.294465 2.278922 0
M  V30 21 C -0.768051 -3.007670 3.398905 0
M  V30 22 C -1.632970 -4.075052 3.459881 0
M  V30 23 O -1.907673 -4.769195 4.614952 0
M  V30 24 C -2.274845 -4.494213 2.312436 0
M  V30 25 C -2.002791 -3.796811 1.136786 0
M  V30 26 C -1.115490 -2.723145 1.142635 0
M  V30 27 N -0.761244 -1.960421 0.074154 0
M  V30 28 C -1.154401 -1.997507 -1.322058 0
M  V30 29 C -2.373506 -1.120241 -1.587734 0
M  V30 30 C -3.558328 -1.577619 -0.768570 0
M  V30 31 O -4.607077 -0.690221 -1.106269 0
M  V30 32 H 2.991700 1.052923 4.979936 0
M  V30 33 H 1.651059 5.137979 -0.757468 0
M  V30 34 H 3.876764 4.902488 -1.834038 0
M  V30 35 H 5.088897 2.723295 -1.777248 0
M  V30 36 H 0.678548 0.167641 -1.157328 0
M  V30 37 H -0.325088 -2.762329 4.331139 0
M  V30 38 H -2.317114 -4.366551 5.446129 0
M  V30 39 H -2.959552 -5.314249 2.280877 0
M  V30 40 H -2.496170 -4.118651 0.251515 0
M  V30 41 H -1.499511 -3.034990 -1.604963 0
M  V30 42 H -0.311803 -1.706895 -1.957192 0
M  V30 43 H -2.554438 -1.102215 -2.662109 0
M  V30 44 H -2.106332 -0.104116 -1.177836 0
M  V30 45 H -3.873366 -2.608541 -1.000969 0
M  V30 46 H -3.353060 -1.376239 0.293549 0
M  V30 47 H -4.238856 0.214056 -0.905242 0
M  V30 END ATOM
M  V30 BEGIN BOND
M  V30 1 2 1 2
M  V30 2 1 2 3
M  V30 3 1 3 4
M  V30 4 2 4 5
M  V30 5 1 4 6
M  V30 6 2 6 7
M  V30 7 1 7 8
M  V30 8 1 8 9
M  V30 9 2 9 10
M  V30 10 1 10 11
M  V30 11 1 10 12
M  V30 12 2 12 13
M  V30 13 1 13 14
M  V30 14 2 14 15
M  V30 15 1 15 16
M  V30 16 2 8 17
M  V30 17 1 17 18
M  V30 18 2 18 19
M  V30 19 1 19 20
M  V30 20 2 20 21
M  V30 21 1 21 22
M  V30 22 1 22 23
M  V30 23 2 22 24
M  V30 24 1 24 25
M  V30 25 2 25 26
M  V30 26 1 26 27
M  V30 27 1 27 28
M  V30 28 1 28 29
M  V30 29 1 29 30
M  V30 30 1 30 31
M  V30 31 1 7 2
M  V30 32 1 15 9
M  V30 33 1 27 18
M  V30 34 1 19 6
M  V30 35 1 26 20
M  V30 36 1 3 32
M  V30 37 1 12 33
M  V30 38 1 13 34
M  V30 39 1 14 35
M  V30 40 1 17 36
M  V30 41 1 21 37
M  V30 42 1 23 38
M  V30 43 1 24 39
M  V30 44 1 25 40
M  V30 45 1 28 41
M  V30 46 1 28 42
M  V30 47 1 29 43
M  V30 48 1 29 44
M  V30 49 1 30 45
M  V30 50 1 30 46
M  V30 51 1 31 47
M  V30 END BOND
M  V30 END CTAB
M  END
>  <Dataset>  (200) 
ChEMBL_Kinases

>  <Ligand_Instance>  (200) 
nan

>  <PDB_ID>  (200) 
nan

>  <Standardized_SMILES>  (200) 
O=C1NC(=O)c2c1c(-c1c(Cl)cccc1Cl)cc1c2c2cc(O)ccc2n1CCCO

>  <Name>  (200) 
nan

>  <Pocket>  (200) 
nan

>  <ATP_Site>  (200) 
nan

>  <Peripheral>  (200) 
nan

>  <Num_H_Atoms_ProtBoundConf>  (200) 
nan

>  <Num_Resolved_Atoms>  (200) 
nan

>  <Num_Not_Resolved_Atoms>  (200) 
nan

$$$$
CHEMBL471225
     RDKit          3D

  0  0  0  0  0  0  0  0  0  0999 V3000
M  V30 BEGIN CTAB
M  V30 COUNTS 47 50 0 0 0
M  V30 BEGIN ATOM
M  V30 1 N 0.808058 -3.353996 3.376174 0
M  V30 2 C 0.488034 -2.227018 2.542165 0
M  V30 3 C 1.400303 -1.285126 2.145467 0
M  V30 4 S 3.016493 -1.562826 2.742322 0
M  V30 5 O 2.954905 -1.378566 4.247465 0
M  V30 6 O 3.556475 -2.899683 2.376015 0
M  V30 7 O 3.999298 -0.328283 2.168172 0
M  V30 8 C 1.068193 -0.225745 1.353514 0
M  V30 9 C -0.234805 -0.098127 0.935949 0
M  V30 10 N -0.558004 0.999600 0.103526 0
M  V30 11 C 0.372415 1.956230 -0.386693 0
M  V30 12 C 0.333796 3.356767 -0.357357 0
M  V30 13 C 1.311730 4.153224 -0.905506 0
M  V30 14 C 2.402928 3.583804 -1.525135 0
M  V30 15 C 2.484377 2.207808 -1.578958 0
M  V30 16 S 3.914970 1.609908 -2.390504 0
M  V30 17 N 5.153112 1.428150 -1.182914 0
M  V30 18 O 4.359777 2.530733 -3.458762 0
M  V30 19 O 3.591947 0.235166 -2.904040 0
M  V30 20 C 1.496257 1.421562 -1.025171 0
M  V30 21 C -1.156433 -1.034802 1.327073 0
M  V30 22 C -0.830202 -2.109125 2.127831 0
M  V30 23 C -1.832395 -3.089359 2.527426 0
M  V30 24 O -1.464400 -4.055018 3.266251 0
M  V30 25 C -3.224426 -2.996198 2.110663 0
M  V30 26 C -4.085578 -3.978056 2.547271 0
M  V30 27 C -5.411037 -3.858950 2.130129 0
M  V30 28 C -5.790520 -2.805167 1.329505 0
M  V30 29 C -4.885777 -1.853308 0.924041 0
M  V30 30 C -3.545700 -1.916161 1.307324 0
M  V30 31 C -2.534222 -0.949964 0.919471 0
M  V30 32 O -2.984584 -0.036456 0.194434 0
M  V30 33 H 1.273577 -4.141636 2.840613 0
M  V30 34 H 0.589661 -3.359743 4.397927 0
M  V30 35 H 4.210842 -0.415680 1.208061 0
M  V30 36 H 1.911036 0.416946 1.153081 0
M  V30 37 H -1.391255 1.410970 -0.350087 0
M  V30 38 H -0.574356 3.708838 0.157527 0
M  V30 39 H 1.102458 5.210033 -0.781480 0
M  V30 40 H 3.090883 4.323555 -1.909543 0
M  V30 41 H 5.452271 0.422785 -1.078869 0
M  V30 42 H 4.868912 1.827351 -0.261552 0
M  V30 43 H 1.743489 0.367612 -1.183356 0
M  V30 44 H -3.739587 -4.782407 3.172734 0
M  V30 45 H -6.118739 -4.611374 2.452538 0
M  V30 46 H -6.842737 -2.745844 1.021895 0
M  V30 47 H -5.161349 -1.016696 0.294959 0
M  V30 END ATOM
M  V30 BEGIN BOND
M  V30 1 1 1 2
M  V30 2 2 2 3
M  V30 3 1 3 4
M  V30 4 2 4 5
M  V30 5 2 4 6
M  V30 6 1 4 7
M  V30 7 1 3 8
M  V30 8 2 8 9
M  V30 9 1 9 10
M  V30 10 1 10 11
M  V30 11 2 11 12
M  V30 12 1 12 13
M  V30 13 2 13 14
M  V30 14 1 14 15
M  V30 15 1 15 16
M  V30 16 1 16 17
M  V30 17 2 16 18
M  V30 18 2 16 19
M  V30 19 2 15 20
M  V30 20 1 9 21
M  V30 21 2 21 22
M  V30 22 1 22 23
M  V30 23 2 23 24
M  V30 24 1 23 25
M  V30 25 2 25 26
M  V30 26 1 26 27
M  V30 27 2 27 28
M  V30 28 1 28 29
M  V30 29 2 29 30
M  V30 30 1 30 31
M  V30 31 2 31 32
M  V30 32 1 22 2
M  V30 33 1 30 25
M  V30 34 1 20 11
M  V30 35 1 31 21
M  V30 36 1 1 33
M  V30 37 1 1 34
M  V30 38 1 7 35
M  V30 39 1 8 36
M  V30 40 1 10 37
M  V30 41 1 12 38
M  V30 42 1 13 39
M  V30 43 1 14 40
M  V30 44 1 17 41
M  V30 45 1 17 42
M  V30 46 1 20 43
M  V30 47 1 26 44
M  V30 48 1 27 45
M  V30 49 1 28 46
M  V30 50 1 29 47
M  V30 END BOND
M  V30 END CTAB
M  END
>  <Dataset>  (201) 
ChEMBL_Kinases

>  <Ligand_Instance>  (201) 
nan

>  <PDB_ID>  (201) 
nan

>  <Standardized_SMILES>  (201) 
Nc1c(S(=O)(=O)O)cc(Nc2cccc(S(N)(=O)=O)c2)c2c1C(=O)c1ccccc1C2=O

>  <Name>  (201) 
nan

>  <Pocket>  (201) 
nan

>  <ATP_Site>  (201) 
nan

>  <Peripheral>  (201) 
nan

>  <Num_H_Atoms_ProtBoundConf>  (201) 
nan

>  <Num_Resolved_Atoms>  (201) 
nan

>  <Num_Not_Resolved_Atoms>  (201) 
nan

$$$$
CHEMBL446759
     RDKit          3D

  0  0  0  0  0  0  0  0  0  0999 V3000
M  V30 BEGIN CTAB
M  V30 COUNTS 33 34 0 0 0
M  V30 BEGIN ATOM
M  V30 1 C -0.467399 -3.783396 2.454119 0
M  V30 2 C -1.026764 -2.508987 3.096444 0 CFG=2
M  V30 3 N -2.418733 -2.404084 2.704293 0
M  V30 4 C -0.223833 -1.376923 2.560357 0
M  V30 5 C 0.699815 -0.689431 3.353555 0
M  V30 6 C 1.417842 0.353584 2.803879 0
M  V30 7 C 1.244482 0.732965 1.489060 0
M  V30 8 C 0.345010 0.085722 0.665600 0
M  V30 9 N 0.177089 0.479831 -0.668927 0
M  V30 10 C -0.725532 -0.105882 -1.641901 0
M  V30 11 C 0.160148 -0.409131 -2.857048 0
M  V30 12 O 0.394130 0.797317 -3.458434 0
M  V30 13 C 0.798729 1.808997 -2.652237 0
M  V30 14 C 0.929467 1.556692 -1.207606 0
M  V30 15 C -0.342218 -0.946586 1.269744 0
M  V30 16 H 0.624844 -3.780067 2.672244 0
M  V30 17 H -0.581955 -3.649634 1.355263 0
M  V30 18 H -0.966766 -4.683326 2.849184 0
M  V30 19 H -0.928933 -2.544353 4.183910 0
M  V30 20 H -2.651376 -2.953789 1.851833 0
M  V30 21 H -2.745287 -1.411058 2.680288 0
M  V30 22 H 0.812184 -1.012278 4.382246 0
M  V30 23 H 2.138710 0.892709 3.417073 0
M  V30 24 H 1.832132 1.564150 1.090599 0
M  V30 25 H -1.251279 -0.992745 -1.293792 0
M  V30 26 H -1.413604 0.726166 -1.935798 0
M  V30 27 H 1.069524 -0.892424 -2.431334 0
M  V30 28 H -0.386788 -1.072018 -3.529919 0
M  V30 29 H 0.059348 2.648092 -2.778976 0
M  V30 30 H 1.742697 2.239346 -3.094646 0
M  V30 31 H 2.015535 1.379593 -0.977727 0
M  V30 32 H 0.676624 2.466342 -0.590101 0
M  V30 33 H -1.066861 -1.497466 0.673867 0
M  V30 END ATOM
M  V30 BEGIN BOND
M  V30 1 1 1 2
M  V30 2 1 2 3
M  V30 3 1 2 4
M  V30 4 2 4 5
M  V30 5 1 5 6
M  V30 6 2 6 7
M  V30 7 1 7 8
M  V30 8 1 8 9
M  V30 9 1 9 10
M  V30 10 1 10 11
M  V30 11 1 11 12
M  V30 12 1 12 13
M  V30 13 1 13 14
M  V30 14 2 8 15
M  V30 15 1 15 4
M  V30 16 1 14 9
M  V30 17 1 1 16
M  V30 18 1 1 17
M  V30 19 1 1 18
M  V30 20 1 2 19 CFG=1
M  V30 21 1 3 20
M  V30 22 1 3 21
M  V30 23 1 5 22
M  V30 24 1 6 23
M  V30 25 1 7 24
M  V30 26 1 10 25
M  V30 27 1 10 26
M  V30 28 1 11 27
M  V30 29 1 11 28
M  V30 30 1 13 29
M  V30 31 1 13 30
M  V30 32 1 14 31
M  V30 33 1 14 32
M  V30 34 1 15 33
M  V30 END BOND
M  V30 END CTAB
M  END
>  <Dataset>  (202) 
ChEMBL_Kinases

>  <Ligand_Instance>  (202) 
nan

>  <PDB_ID>  (202) 
nan

>  <Standardized_SMILES>  (202) 
C[C@H](N)c1cccc(N2CCOCC2)c1

>  <Name>  (202) 
nan

>  <Pocket>  (202) 
nan

>  <ATP_Site>  (202) 
nan

>  <Peripheral>  (202) 
nan

>  <Num_H_Atoms_ProtBoundConf>  (202) 
nan

>  <Num_Resolved_Atoms>  (202) 
nan

>  <Num_Not_Resolved_Atoms>  (202) 
nan

$$$$
CHEMBL471143
     RDKit          3D

  0  0  0  0  0  0  0  0  0  0999 V3000
M  V30 BEGIN CTAB
M  V30 COUNTS 65 65 0 0 0
M  V30 BEGIN ATOM
M  V30 1 C 1.641790 -4.168247 6.590927 0
M  V30 2 C 2.030287 -3.198013 5.455164 0
M  V30 3 C 1.508018 -3.696295 4.154457 0
M  V30 4 C 1.838388 -2.832324 2.942541 0
M  V30 5 C 1.318371 -1.522788 3.036725 0
M  V30 6 C 1.303413 -0.355303 2.264392 0
M  V30 7 C 1.714542 0.052913 1.059123 0
M  V30 8 C 1.622168 1.359451 0.361590 0
M  V30 9 C 2.168921 1.008295 -0.998642 0
M  V30 10 C 3.553732 1.583281 -1.205836 0
M  V30 11 O 3.517523 2.979950 -1.156202 0
M  V30 12 C 1.222016 1.535433 -2.046093 0
M  V30 13 O -0.065748 1.011218 -1.939810 0
M  V30 14 C -1.002443 1.444251 -2.863036 0
M  V30 15 O -0.334683 2.259869 -3.585727 0
M  V30 16 C -2.410860 0.983520 -2.885072 0
M  V30 17 C -3.188066 1.659391 -4.006387 0
M  V30 18 C -4.621487 1.231648 -4.077860 0
M  V30 19 C -2.576937 -0.487265 -3.077307 0
M  V30 20 C -1.947550 -1.347974 -2.034482 0
M  V30 21 C -2.547765 -1.022461 -0.679438 0
M  V30 22 C -4.038754 -1.252527 -0.632728 0
M  V30 23 O 2.312716 -0.398624 -1.066183 0
M  V30 24 C 2.403820 -0.919588 0.216904 0
M  V30 25 O 2.953115 -1.976153 0.550655 0
M  V30 26 C -0.200422 -1.773619 3.272768 0
M  V30 27 C -0.953875 -0.442825 3.392562 0
M  V30 28 H 2.115245 -3.800192 7.522760 0
M  V30 29 H 0.546695 -4.223886 6.643983 0
M  V30 30 H 2.029080 -5.173051 6.395246 0
M  V30 31 H 3.138729 -3.165315 5.506497 0
M  V30 32 H 1.701844 -2.182466 5.756597 0
M  V30 33 H 2.073156 -4.671487 3.978325 0
M  V30 34 H 0.465736 -4.053392 4.191574 0
M  V30 35 H 1.423757 -3.477236 2.116572 0
M  V30 36 H 2.967945 -2.943414 3.035063 0
M  V30 37 H 1.634168 -1.162294 4.083499 0
M  V30 38 H 0.808888 0.516192 2.767892 0
M  V30 39 H 2.320593 2.113107 0.813859 0
M  V30 40 H 0.584408 1.740667 0.322208 0
M  V30 41 H 4.216889 1.191185 -0.421968 0
M  V30 42 H 3.897467 1.194912 -2.181728 0
M  V30 43 H 4.410014 3.328290 -1.349774 0
M  V30 44 H 1.155980 2.635258 -1.917257 0
M  V30 45 H 1.680401 1.359815 -3.040323 0
M  V30 46 H -2.880079 1.363710 -1.944144 0
M  V30 47 H -2.728330 1.414137 -5.002773 0
M  V30 48 H -3.157576 2.763708 -3.907004 0
M  V30 49 H -4.773447 0.329440 -4.720670 0
M  V30 50 H -5.198057 2.061813 -4.559954 0
M  V30 51 H -5.038491 1.102029 -3.070441 0
M  V30 52 H -2.217475 -0.730905 -4.100754 0
M  V30 53 H -3.679584 -0.686018 -3.029535 0
M  V30 54 H -2.156156 -2.409628 -2.293792 0
M  V30 55 H -0.869298 -1.171192 -1.962932 0
M  V30 56 H -2.352560 0.046621 -0.486854 0
M  V30 57 H -2.028703 -1.579945 0.133944 0
M  V30 58 H -4.430527 -1.803373 -1.496933 0
M  V30 59 H -4.584836 -0.298230 -0.478036 0
M  V30 60 H -4.260189 -1.875018 0.273211 0
M  V30 61 H -0.361648 -2.249220 4.241046 0
M  V30 62 H -0.642889 -2.266506 2.394418 0
M  V30 63 H -1.980567 -0.784594 3.721781 0
M  V30 64 H -1.135154 0.035718 2.424970 0
M  V30 65 H -0.596722 0.187739 4.203216 0
M  V30 END ATOM
M  V30 BEGIN BOND
M  V30 1 1 1 2
M  V30 2 1 2 3
M  V30 3 1 3 4
M  V30 4 1 4 5
M  V30 5 1 5 6
M  V30 6 2 6 7
M  V30 7 1 7 8
M  V30 8 1 8 9
M  V30 9 1 9 10
M  V30 10 1 10 11
M  V30 11 1 9 12
M  V30 12 1 12 13
M  V30 13 1 13 14
M  V30 14 2 14 15
M  V30 15 1 14 16
M  V30 16 1 16 17
M  V30 17 1 17 18
M  V30 18 1 16 19
M  V30 19 1 19 20
M  V30 20 1 20 21
M  V30 21 1 21 22
M  V30 22 1 9 23
M  V30 23 1 23 24
M  V30 24 2 24 25
M  V30 25 1 5 26
M  V30 26 1 26 27
M  V30 27 1 24 7
M  V30 28 1 1 28
M  V30 29 1 1 29
M  V30 30 1 1 30
M  V30 31 1 2 31
M  V30 32 1 2 32
M  V30 33 1 3 33
M  V30 34 1 3 34
M  V30 35 1 4 35
M  V30 36 1 4 36
M  V30 37 1 5 37
M  V30 38 1 6 38
M  V30 39 1 8 39
M  V30 40 1 8 40
M  V30 41 1 10 41
M  V30 42 1 10 42
M  V30 43 1 11 43
M  V30 44 1 12 44
M  V30 45 1 12 45
M  V30 46 1 16 46
M  V30 47 1 17 47
M  V30 48 1 17 48
M  V30 49 1 18 49
M  V30 50 1 18 50
M  V30 51 1 18 51
M  V30 52 1 19 52
M  V30 53 1 19 53
M  V30 54 1 20 54
M  V30 55 1 20 55
M  V30 56 1 21 56
M  V30 57 1 21 57
M  V30 58 1 22 58
M  V30 59 1 22 59
M  V30 60 1 22 60
M  V30 61 1 26 61
M  V30 62 1 26 62
M  V30 63 1 27 63
M  V30 64 1 27 64
M  V30 65 1 27 65
M  V30 END BOND
M  V30 END CTAB
M  END
>  <Dataset>  (203) 
ChEMBL_Kinases

>  <Ligand_Instance>  (203) 
nan

>  <PDB_ID>  (203) 
nan

>  <Standardized_SMILES>  (203) 
CCCCC(/C=C1/CC(CO)(COC(=O)C(CC)CCCC)OC1=O)CC

>  <Name>  (203) 
nan

>  <Pocket>  (203) 
nan

>  <ATP_Site>  (203) 
nan

>  <Peripheral>  (203) 
nan

>  <Num_H_Atoms_ProtBoundConf>  (203) 
nan

>  <Num_Resolved_Atoms>  (203) 
nan

>  <Num_Not_Resolved_Atoms>  (203) 
nan

$$$$
CHEMBL472356
     RDKit          3D

  0  0  0  0  0  0  0  0  0  0999 V3000
M  V30 BEGIN CTAB
M  V30 COUNTS 62 63 0 0 0
M  V30 BEGIN ATOM
M  V30 1 C 2.441131 -4.672575 7.292812 0
M  V30 2 C 1.961227 -3.391274 6.542348 0
M  V30 3 C 3.067524 -3.028269 5.646333 0
M  V30 4 C 3.043921 -1.831541 4.805432 0
M  V30 5 C 1.995513 -1.588381 3.802206 0
M  V30 6 C 2.290939 -0.289351 3.035467 0
M  V30 7 C 2.407397 -0.078602 1.753868 0
M  V30 8 C 2.685596 1.102679 0.876518 0
M  V30 9 C 1.838807 0.747496 -0.326382 0
M  V30 10 C 2.374705 1.401017 -1.586894 0
M  V30 11 O 2.400799 2.786944 -1.479568 0
M  V30 12 C 0.395712 1.207452 -0.080786 0
M  V30 13 O -0.427585 0.795833 -1.131820 0
M  V30 14 C -1.788718 1.050317 -1.217780 0
M  V30 15 O -2.244908 1.699446 -0.250582 0
M  V30 16 C -2.595538 0.593529 -2.342106 0
M  V30 17 C -3.942000 0.894909 -2.339851 0
M  V30 18 C -4.683717 0.444995 -3.426266 0
M  V30 19 C -4.115331 -0.275408 -4.474691 0
M  V30 20 N -4.872792 -0.735880 -5.585904 0
M  V30 21 C -4.205780 -1.485526 -6.646791 0
M  V30 22 C -6.293797 -0.458142 -5.655167 0
M  V30 23 C -2.763348 -0.532591 -4.396705 0
M  V30 24 C -1.962675 -0.114268 -3.342887 0
M  V30 25 O 1.800237 -0.655309 -0.405823 0
M  V30 26 C 2.265915 -1.176077 0.805625 0
M  V30 27 O 2.524170 -2.401795 1.043304 0
M  V30 28 C 0.694505 -1.167948 4.525674 0
M  V30 29 C -0.384288 -0.915290 3.470288 0
M  V30 30 H 3.348675 -4.452306 7.866199 0
M  V30 31 H 1.581105 -5.018156 7.905009 0
M  V30 32 H 2.573771 -5.429102 6.491475 0
M  V30 33 H 1.064300 -3.828736 5.999079 0
M  V30 34 H 1.723983 -2.638188 7.277124 0
M  V30 35 H 3.358004 -3.964523 5.072929 0
M  V30 36 H 3.984522 -2.909555 6.325567 0
M  V30 37 H 3.149721 -0.873630 5.427084 0
M  V30 38 H 4.050435 -1.815660 4.255766 0
M  V30 39 H 1.704075 -2.375438 3.136681 0
M  V30 40 H 2.428795 0.615907 3.649167 0
M  V30 41 H 2.284028 2.045747 1.290411 0
M  V30 42 H 3.748354 1.201402 0.634279 0
M  V30 43 H 3.431872 1.078909 -1.697851 0
M  V30 44 H 1.829033 1.094398 -2.481789 0
M  V30 45 H 1.645449 3.235098 -1.895216 0
M  V30 46 H 0.054258 0.942119 0.920272 0
M  V30 47 H 0.429905 2.333558 -0.106171 0
M  V30 48 H -4.403018 1.451409 -1.538636 0
M  V30 49 H -5.740620 0.670727 -3.443655 0
M  V30 50 H -3.563267 -2.250039 -6.196074 0
M  V30 51 H -3.617258 -0.785890 -7.288977 0
M  V30 52 H -4.921515 -1.997606 -7.300021 0
M  V30 53 H -6.870956 -1.089679 -4.955348 0
M  V30 54 H -6.437423 0.601575 -5.359940 0
M  V30 55 H -6.673962 -0.534011 -6.697982 0
M  V30 56 H -2.237166 -1.087612 -5.169717 0
M  V30 57 H -0.897467 -0.321859 -3.290264 0
M  V30 58 H 0.874994 -0.212108 5.077636 0
M  V30 59 H 0.327801 -1.905744 5.212265 0
M  V30 60 H -1.361213 -1.313753 3.834613 0
M  V30 61 H -0.083015 -1.387279 2.510927 0
M  V30 62 H -0.494999 0.171395 3.308995 0
M  V30 END ATOM
M  V30 BEGIN BOND
M  V30 1 1 1 2
M  V30 2 1 2 3
M  V30 3 1 3 4
M  V30 4 1 4 5
M  V30 5 1 5 6
M  V30 6 2 6 7
M  V30 7 1 7 8
M  V30 8 1 8 9
M  V30 9 1 9 10
M  V30 10 1 10 11
M  V30 11 1 9 12
M  V30 12 1 12 13
M  V30 13 1 13 14
M  V30 14 2 14 15
M  V30 15 1 14 16
M  V30 16 2 16 17
M  V30 17 1 17 18
M  V30 18 2 18 19
M  V30 19 1 19 20
M  V30 20 1 20 21
M  V30 21 1 20 22
M  V30 22 1 19 23
M  V30 23 2 23 24
M  V30 24 1 9 25
M  V30 25 1 25 26
M  V30 26 2 26 27
M  V30 27 1 5 28
M  V30 28 1 28 29
M  V30 29 1 26 7
M  V30 30 1 24 16
M  V30 31 1 1 30
M  V30 32 1 1 31
M  V30 33 1 1 32
M  V30 34 1 2 33
M  V30 35 1 2 34
M  V30 36 1 3 35
M  V30 37 1 3 36
M  V30 38 1 4 37
M  V30 39 1 4 38
M  V30 40 1 5 39
M  V30 41 1 6 40
M  V30 42 1 8 41
M  V30 43 1 8 42
M  V30 44 1 10 43
M  V30 45 1 10 44
M  V30 46 1 11 45
M  V30 47 1 12 46
M  V30 48 1 12 47
M  V30 49 1 17 48
M  V30 50 1 18 49
M  V30 51 1 21 50
M  V30 52 1 21 51
M  V30 53 1 21 52
M  V30 54 1 22 53
M  V30 55 1 22 54
M  V30 56 1 22 55
M  V30 57 1 23 56
M  V30 58 1 24 57
M  V30 59 1 28 58
M  V30 60 1 28 59
M  V30 61 1 29 60
M  V30 62 1 29 61
M  V30 63 1 29 62
M  V30 END BOND
M  V30 END CTAB
M  END
>  <Dataset>  (204) 
ChEMBL_Kinases

>  <Ligand_Instance>  (204) 
nan

>  <PDB_ID>  (204) 
nan

>  <Standardized_SMILES>  (204) 
CCCCC(/C=C1/CC(CO)(COC(=O)c2ccc(N(C)C)cc2)OC1=O)CC

>  <Name>  (204) 
nan

>  <Pocket>  (204) 
nan

>  <ATP_Site>  (204) 
nan

>  <Peripheral>  (204) 
nan

>  <Num_H_Atoms_ProtBoundConf>  (204) 
nan

>  <Num_Resolved_Atoms>  (204) 
nan

>  <Num_Not_Resolved_Atoms>  (204) 
nan

$$$$
CHEMBL472361
     RDKit          3D

  0  0  0  0  0  0  0  0  0  0999 V3000
M  V30 BEGIN CTAB
M  V30 COUNTS 54 55 0 0 0
M  V30 BEGIN ATOM
M  V30 1 C 1.269965 -0.116355 5.644760 0
M  V30 2 C 1.781599 -1.034476 4.562470 0
M  V30 3 C 2.348531 -0.239824 3.403616 0
M  V30 4 C 2.853536 -1.195007 2.323152 0
M  V30 5 C 3.408944 -0.362624 1.188486 0
M  V30 6 C 3.907733 -1.274299 0.112395 0
M  V30 7 C 2.775480 -2.132359 -0.399605 0
M  V30 8 C 2.508344 0.690759 0.728586 0
M  V30 9 O 2.645499 1.945331 0.697296 0
M  V30 10 O 1.245316 0.648589 0.192870 0
M  V30 11 C 0.577648 1.865512 -0.174503 0
M  V30 12 C -0.777036 1.481261 -0.726430 0
M  V30 13 C -1.654859 2.691096 -0.942239 0
M  V30 14 O -1.691803 3.396819 0.276533 0
M  V30 15 C -1.443654 0.638656 0.341996 0
M  V30 16 C -1.998514 -0.504279 -0.470889 0
M  V30 17 C -3.050629 -1.301732 -0.272630 0
M  V30 18 C -3.471952 -2.375622 -1.159680 0
M  V30 19 C -3.554587 -2.211441 -2.532518 0
M  V30 20 C -3.939408 -3.229298 -3.412266 0
M  V30 21 C -4.241154 -4.438639 -2.821151 0
M  V30 22 F -4.615368 -5.424950 -3.690153 0
M  V30 23 C -4.193450 -4.712423 -1.469235 0
M  V30 24 Cl -4.591314 -6.275989 -0.800844 0
M  V30 25 C -3.801794 -3.635166 -0.706519 0
M  V30 26 C -1.078711 -0.622123 -1.604101 0
M  V30 27 O -0.844038 -1.770192 -2.128797 0
M  V30 28 O -0.638455 0.667741 -1.860449 0
M  V30 29 H 2.086709 0.362780 6.203016 0
M  V30 30 H 0.689354 -0.747575 6.367835 0
M  V30 31 H 0.612342 0.703604 5.245789 0
M  V30 32 H 2.596144 -1.635456 5.020775 0
M  V30 33 H 0.965649 -1.699330 4.225632 0
M  V30 34 H 1.592605 0.454010 3.003675 0
M  V30 35 H 3.208568 0.360186 3.750207 0
M  V30 36 H 2.087476 -1.914264 2.031999 0
M  V30 37 H 3.698454 -1.762743 2.780379 0
M  V30 38 H 4.327315 0.151734 1.602327 0
M  V30 39 H 4.656462 -1.955962 0.585819 0
M  V30 40 H 4.440175 -0.740139 -0.692732 0
M  V30 41 H 1.873032 -1.553980 -0.641450 0
M  V30 42 H 2.592939 -2.950469 0.346649 0
M  V30 43 H 3.164490 -2.626359 -1.336202 0
M  V30 44 H 0.450531 2.436788 0.765926 0
M  V30 45 H 1.157180 2.442410 -0.930246 0
M  V30 46 H -2.682138 2.309500 -1.185568 0
M  V30 47 H -1.269571 3.329427 -1.772587 0
M  V30 48 H -2.396382 4.100075 0.251768 0
M  V30 49 H -2.265811 1.179295 0.852036 0
M  V30 50 H -0.737263 0.262608 1.105077 0
M  V30 51 H -3.632715 -1.115771 0.639197 0
M  V30 52 H -3.329621 -1.250492 -3.012852 0
M  V30 53 H -3.996887 -3.074877 -4.480628 0
M  V30 54 H -3.733946 -3.757421 0.382706 0
M  V30 END ATOM
M  V30 BEGIN BOND
M  V30 1 1 1 2
M  V30 2 1 2 3
M  V30 3 1 3 4
M  V30 4 1 4 5
M  V30 5 1 5 6
M  V30 6 1 6 7
M  V30 7 1 5 8
M  V30 8 2 8 9
M  V30 9 1 8 10
M  V30 10 1 10 11
M  V30 11 1 11 12
M  V30 12 1 12 13
M  V30 13 1 13 14
M  V30 14 1 12 15
M  V30 15 1 15 16
M  V30 16 2 16 17
M  V30 17 1 17 18
M  V30 18 2 18 19
M  V30 19 1 19 20
M  V30 20 2 20 21
M  V30 21 1 21 22
M  V30 22 1 21 23
M  V30 23 1 23 24
M  V30 24 2 23 25
M  V30 25 1 16 26
M  V30 26 2 26 27
M  V30 27 1 26 28
M  V30 28 1 28 12
M  V30 29 1 25 18
M  V30 30 1 1 29
M  V30 31 1 1 30
M  V30 32 1 1 31
M  V30 33 1 2 32
M  V30 34 1 2 33
M  V30 35 1 3 34
M  V30 36 1 3 35
M  V30 37 1 4 36
M  V30 38 1 4 37
M  V30 39 1 5 38
M  V30 40 1 6 39
M  V30 41 1 6 40
M  V30 42 1 7 41
M  V30 43 1 7 42
M  V30 44 1 7 43
M  V30 45 1 11 44
M  V30 46 1 11 45
M  V30 47 1 13 46
M  V30 48 1 13 47
M  V30 49 1 14 48
M  V30 50 1 15 49
M  V30 51 1 15 50
M  V30 52 1 17 51
M  V30 53 1 19 52
M  V30 54 1 20 53
M  V30 55 1 25 54
M  V30 END BOND
M  V30 END CTAB
M  END
>  <Dataset>  (205) 
ChEMBL_Kinases

>  <Ligand_Instance>  (205) 
nan

>  <PDB_ID>  (205) 
nan

>  <Standardized_SMILES>  (205) 
CCCCC(CC)C(=O)OCC1(CO)C/C(=C/c2ccc(F)c(Cl)c2)C(=O)O1

>  <Name>  (205) 
nan

>  <Pocket>  (205) 
nan

>  <ATP_Site>  (205) 
nan

>  <Peripheral>  (205) 
nan

>  <Num_H_Atoms_ProtBoundConf>  (205) 
nan

>  <Num_Resolved_Atoms>  (205) 
nan

>  <Num_Not_Resolved_Atoms>  (205) 
nan

$$$$
CHEMBL4466788
     RDKit          3D

  0  0  0  0  0  0  0  0  0  0999 V3000
M  V30 BEGIN CTAB
M  V30 COUNTS 47 51 0 0 0
M  V30 BEGIN ATOM
M  V30 1 O 2.451479 1.917388 4.085149 0
M  V30 2 S 2.206920 1.287794 2.721281 0
M  V30 3 O 1.675004 -0.106955 2.985132 0
M  V30 4 C 3.728059 1.149304 1.924309 0
M  V30 5 C 4.865512 1.754897 2.483572 0
M  V30 6 C 6.146527 1.773937 1.976903 0
M  V30 7 C 6.334561 1.120901 0.778280 0
M  V30 8 F 7.581476 1.121455 0.252924 0
M  V30 9 C 5.283714 0.493071 0.145672 0
M  V30 10 C 4.044328 0.533960 0.738687 0
M  V30 11 F 3.060247 -0.119260 0.106750 0
M  V30 12 N 1.123008 2.254115 1.889036 0
M  V30 13 C 0.687771 1.921834 0.602967 0
M  V30 14 C -0.195519 0.753016 0.444507 0
M  V30 15 C -1.158157 0.605709 1.602963 0
M  V30 16 C -0.989978 1.534904 2.554324 0
M  V30 17 S -2.228833 1.128758 3.755699 0
M  V30 18 C -2.844605 -0.239187 2.866641 0
M  V30 19 N -3.873885 -1.087910 3.214082 0
M  V30 20 C -4.224500 -2.096643 2.416052 0
M  V30 21 N -3.505811 -2.192374 1.297061 0
M  V30 22 C -2.504467 -1.374891 0.948673 0
M  V30 23 N -1.909955 -1.708792 -0.297345 0
M  V30 24 C -2.364974 -2.806643 -1.077197 0
M  V30 25 C -2.883095 -2.886154 -2.352468 0
M  V30 26 C -3.257705 -4.108602 -2.879541 0
M  V30 27 C -3.123279 -5.269574 -2.148408 0
M  V30 28 F -3.509720 -6.437720 -2.723606 0
M  V30 29 C -2.605012 -5.222057 -0.862242 0
M  V30 30 C -2.227075 -3.982847 -0.332358 0
M  V30 31 F -1.741402 -4.114260 0.932063 0
M  V30 32 C -2.115131 -0.320983 1.750104 0
M  V30 33 C -0.024389 2.677967 2.677918 0
M  V30 34 H 4.751774 2.286659 3.442834 0
M  V30 35 H 6.944681 2.271094 2.493155 0
M  V30 36 H 5.431876 -0.018857 -0.794279 0
M  V30 37 H 0.052317 2.819888 0.259800 0
M  V30 38 H 1.517598 1.946562 -0.116879 0
M  V30 39 H 0.404444 -0.157917 0.286423 0
M  V30 40 H -0.873569 0.858388 -0.441634 0
M  V30 41 H -5.021384 -2.778079 2.653817 0
M  V30 42 H -1.164426 -1.430232 -0.962769 0
M  V30 43 H -2.929582 -1.904275 -2.802180 0
M  V30 44 H -3.654708 -4.050255 -3.896990 0
M  V30 45 H -2.531640 -6.161259 -0.359889 0
M  V30 46 H -0.480568 3.532888 2.170016 0
M  V30 47 H 0.242158 2.886970 3.712585 0
M  V30 END ATOM
M  V30 BEGIN BOND
M  V30 1 2 1 2
M  V30 2 2 2 3
M  V30 3 1 2 4
M  V30 4 2 4 5
M  V30 5 1 5 6
M  V30 6 2 6 7
M  V30 7 1 7 8
M  V30 8 1 7 9
M  V30 9 2 9 10
M  V30 10 1 10 11
M  V30 11 1 2 12
M  V30 12 1 12 13
M  V30 13 1 13 14
M  V30 14 1 14 15
M  V30 15 2 15 16
M  V30 16 1 16 17
M  V30 17 1 17 18
M  V30 18 2 18 19
M  V30 19 1 19 20
M  V30 20 2 20 21
M  V30 21 1 21 22
M  V30 22 1 22 23
M  V30 23 1 23 24
M  V30 24 2 24 25
M  V30 25 1 25 26
M  V30 26 2 26 27
M  V30 27 1 27 28
M  V30 28 1 27 29
M  V30 29 2 29 30
M  V30 30 1 30 31
M  V30 31 2 22 32
M  V30 32 1 16 33
M  V30 33 1 10 4
M  V30 34 1 33 12
M  V30 35 1 32 15
M  V30 36 1 32 18
M  V30 37 1 30 24
M  V30 38 1 5 34
M  V30 39 1 6 35
M  V30 40 1 9 36
M  V30 41 1 13 37
M  V30 42 1 13 38
M  V30 43 1 14 39
M  V30 44 1 14 40
M  V30 45 1 20 41
M  V30 46 1 23 42
M  V30 47 1 25 43
M  V30 48 1 26 44
M  V30 49 1 29 45
M  V30 50 1 33 46
M  V30 51 1 33 47
M  V30 END BOND
M  V30 END CTAB
M  END
>  <Dataset>  (206) 
ChEMBL_Kinases

>  <Ligand_Instance>  (206) 
nan

>  <PDB_ID>  (206) 
nan

>  <Standardized_SMILES>  (206) 
O=S(=O)(c1ccc(F)cc1F)N1CCc2c(sc3ncnc(Nc4ccc(F)cc4F)c23)C1

>  <Name>  (206) 
nan

>  <Pocket>  (206) 
nan

>  <ATP_Site>  (206) 
nan

>  <Peripheral>  (206) 
nan

>  <Num_H_Atoms_ProtBoundConf>  (206) 
nan

>  <Num_Resolved_Atoms>  (206) 
nan

>  <Num_Not_Resolved_Atoms>  (206) 
nan

$$$$
CHEMBL4466775
     RDKit          3D

  0  0  0  0  0  0  0  0  0  0999 V3000
M  V30 BEGIN CTAB
M  V30 COUNTS 81 86 0 0 0
M  V30 BEGIN ATOM
M  V30 1 C 3.053874 -0.614916 4.356741 0
M  V30 2 S 2.189595 -2.065031 3.751061 0
M  V30 3 C 1.136209 -2.824104 4.974121 0
M  V30 4 C 1.814436 -3.790449 5.721864 0
M  V30 5 C 1.166443 -4.499568 6.726919 0
M  V30 6 C -0.162071 -4.221950 6.964019 0
M  V30 7 C -0.842896 -3.272959 6.235525 0
M  V30 8 C -0.213291 -2.567251 5.241049 0
M  V30 9 C -0.738609 -1.515321 4.339977 0
M  V30 10 N -0.252111 -0.216503 4.799767 0
M  V30 11 C -0.583774 1.009117 4.109633 0
M  V30 12 N -0.094324 2.185033 4.590829 0
M  V30 13 C -0.399473 3.325125 3.946375 0
M  V30 14 C -1.196057 3.211936 2.831989 0
M  V30 15 C -1.510010 4.447786 2.157283 0
M  V30 16 N -1.759842 5.441383 1.595926 0
M  V30 17 C -1.693789 1.993331 2.346853 0
M  V30 18 N -2.523914 1.975625 1.194419 0
M  V30 19 C -3.150242 0.940231 0.486000 0
M  V30 20 C -2.374391 -0.013510 -0.321671 0
M  V30 21 C -3.410924 -0.982855 -0.929630 0
M  V30 22 C -2.835950 -1.880147 -1.964542 0
M  V30 23 C -1.785083 -2.746885 -1.290510 0
M  V30 24 C -0.785369 -1.813247 -0.693922 0
M  V30 25 C -1.361574 -0.864656 0.333939 0
M  V30 26 C -0.091752 -1.098788 -1.848496 0
M  V30 27 N 1.017095 -0.377837 -1.357603 0
M  V30 28 C 1.916574 0.247000 -2.245213 0
M  V30 29 C 2.837636 -0.554847 -3.059494 0 CFG=1
M  V30 30 C 2.346328 -1.543331 -4.034073 0
M  V30 31 C 1.393599 -1.021958 -5.079206 0
M  V30 32 C 1.841771 0.343006 -5.524193 0 CFG=2
M  V30 33 O 1.709452 0.360098 -6.935884 0
M  V30 34 C 3.278516 0.618423 -5.256673 0
M  V30 35 C 3.714660 0.435356 -3.850628 0
M  V30 36 C -1.152265 -0.213759 -2.481850 0
M  V30 37 C -2.184205 -1.132834 -3.100222 0
M  V30 38 C -1.791831 0.731154 -1.517272 0
M  V30 39 N -1.361321 0.882286 3.025126 0
M  V30 40 H 2.449582 0.320010 4.315867 0
M  V30 41 H 3.523599 -0.789524 5.346131 0
M  V30 42 H 3.900078 -0.424640 3.642839 0
M  V30 43 H 2.850388 -4.074195 5.608936 0
M  V30 44 H 1.659534 -5.255292 7.326881 0
M  V30 45 H -0.732562 -4.748071 7.745221 0
M  V30 46 H -1.874418 -2.988053 6.346068 0
M  V30 47 H -1.846917 -1.594105 4.386369 0
M  V30 48 H -0.453803 -1.709788 3.281351 0
M  V30 49 H 0.357400 -0.162701 5.657049 0
M  V30 50 H -0.040218 4.281171 4.283315 0
M  V30 51 H -2.711925 2.942058 0.774866 0
M  V30 52 H -3.998979 1.330849 -0.148433 0
M  V30 53 H -3.724362 0.327627 1.264485 0
M  V30 54 H -3.767540 -1.600768 -0.083887 0
M  V30 55 H -4.235466 -0.395536 -1.389649 0
M  V30 56 H -3.641148 -2.491857 -2.368442 0
M  V30 57 H -2.251700 -3.347160 -0.490628 0
M  V30 58 H -1.248596 -3.386109 -2.007564 0
M  V30 59 H 0.036761 -2.415121 -0.207575 0
M  V30 60 H -1.871333 -1.495093 1.090933 0
M  V30 61 H -0.495307 -0.370047 0.781611 0
M  V30 62 H 0.103009 -1.890436 -2.586113 0
M  V30 63 H 0.636222 0.354725 -0.688401 0
M  V30 64 H 1.326466 1.000410 -2.829060 0
M  V30 65 H 2.575578 0.922206 -1.600790 0
M  V30 66 H 3.507331 -1.110305 -2.335729 0
M  V30 67 H 2.069063 -2.544207 -3.628926 0
M  V30 68 H 3.281108 -1.814977 -4.655503 0
M  V30 69 H 0.337306 -1.063810 -4.801487 0
M  V30 70 H 1.473096 -1.763408 -5.939822 0
M  V30 71 H 1.157565 1.169063 -5.203516 0
M  V30 72 H 0.731964 0.332033 -7.104210 0
M  V30 73 H 3.877611 0.016596 -5.983700 0
M  V30 74 H 3.458034 1.690464 -5.529394 0
M  V30 75 H 4.722202 -0.041442 -3.883489 0
M  V30 76 H 3.856739 1.375731 -3.267852 0
M  V30 77 H -0.753427 0.414436 -3.309985 0
M  V30 78 H -2.933642 -0.567005 -3.684894 0
M  V30 79 H -1.637471 -1.873752 -3.713245 0
M  V30 80 H -2.635067 1.227331 -2.003091 0
M  V30 81 H -1.037396 1.471575 -1.213694 0
M  V30 END ATOM
M  V30 BEGIN BOND
M  V30 1 1 1 2
M  V30 2 1 2 3
M  V30 3 2 3 4
M  V30 4 1 4 5
M  V30 5 2 5 6
M  V30 6 1 6 7
M  V30 7 2 7 8
M  V30 8 1 8 9
M  V30 9 1 9 10
M  V30 10 1 10 11
M  V30 11 2 11 12
M  V30 12 1 12 13
M  V30 13 2 13 14
M  V30 14 1 14 15
M  V30 15 3 15 16
M  V30 16 1 14 17
M  V30 17 1 17 18
M  V30 18 1 18 19
M  V30 19 1 19 20
M  V30 20 1 20 21
M  V30 21 1 21 22
M  V30 22 1 22 23
M  V30 23 1 23 24
M  V30 24 1 24 25
M  V30 25 1 24 26
M  V30 26 1 26 27
M  V30 27 1 27 28
M  V30 28 1 28 29
M  V30 29 1 29 30
M  V30 30 1 30 31
M  V30 31 1 31 32
M  V30 32 1 32 33
M  V30 33 1 32 34
M  V30 34 1 34 35
M  V30 35 1 26 36
M  V30 36 1 36 37
M  V30 37 1 36 38
M  V30 38 2 17 39
M  V30 39 1 8 3
M  V30 40 1 39 11
M  V30 41 1 25 20
M  V30 42 1 35 29
M  V30 43 1 38 20
M  V30 44 1 37 22
M  V30 45 1 1 40
M  V30 46 1 1 41
M  V30 47 1 1 42
M  V30 48 1 4 43
M  V30 49 1 5 44
M  V30 50 1 6 45
M  V30 51 1 7 46
M  V30 52 1 9 47
M  V30 53 1 9 48
M  V30 54 1 10 49
M  V30 55 1 13 50
M  V30 56 1 18 51
M  V30 57 1 19 52
M  V30 58 1 19 53
M  V30 59 1 21 54
M  V30 60 1 21 55
M  V30 61 1 22 56
M  V30 62 1 23 57
M  V30 63 1 23 58
M  V30 64 1 24 59
M  V30 65 1 25 60
M  V30 66 1 25 61
M  V30 67 1 26 62
M  V30 68 1 27 63
M  V30 69 1 28 64
M  V30 70 1 28 65
M  V30 71 1 29 66 CFG=1
M  V30 72 1 30 67
M  V30 73 1 30 68
M  V30 74 1 31 69
M  V30 75 1 31 70
M  V30 76 1 32 71 CFG=1
M  V30 77 1 33 72
M  V30 78 1 34 73
M  V30 79 1 34 74
M  V30 80 1 35 75
M  V30 81 1 35 76
M  V30 82 1 36 77
M  V30 83 1 37 78
M  V30 84 1 37 79
M  V30 85 1 38 80
M  V30 86 1 38 81
M  V30 END BOND
M  V30 END CTAB
M  END
>  <Dataset>  (207) 
ChEMBL_Kinases

>  <Ligand_Instance>  (207) 
nan

>  <PDB_ID>  (207) 
nan

>  <Standardized_SMILES>  (207) 
CSc1ccccc1CNc1ncc(C#N)c(NCC23CC4CC(C2)C(NC[C@H]2CC[C@H](O)CC2)C(C4)C3)n1

>  <Name>  (207) 
nan

>  <Pocket>  (207) 
nan

>  <ATP_Site>  (207) 
nan

>  <Peripheral>  (207) 
nan

>  <Num_H_Atoms_ProtBoundConf>  (207) 
nan

>  <Num_Resolved_Atoms>  (207) 
nan

>  <Num_Not_Resolved_Atoms>  (207) 
nan

$$$$
CHEMBL472362
     RDKit          3D

  0  0  0  0  0  0  0  0  0  0999 V3000
M  V30 BEGIN CTAB
M  V30 COUNTS 54 55 0 0 0
M  V30 BEGIN ATOM
M  V30 1 C 3.644258 -2.487705 4.435639 0
M  V30 2 C 4.305354 -2.554463 3.095837 0
M  V30 3 C 4.471233 -1.233949 2.407621 0
M  V30 4 C 3.139603 -0.594758 2.174870 0
M  V30 5 C 3.255007 0.748524 1.483252 0
M  V30 6 C 3.915762 0.641875 0.138228 0
M  V30 7 C 3.142906 -0.262429 -0.771047 0
M  V30 8 C 1.998195 1.509433 1.475755 0
M  V30 9 O 1.735594 2.646697 1.996421 0
M  V30 10 O 0.789714 1.553549 1.101518 0
M  V30 11 C -0.472597 1.643541 0.734330 0
M  V30 12 C -0.901711 0.444195 -0.086176 0
M  V30 13 C -0.835231 -0.774417 0.763890 0
M  V30 14 O -1.718523 -0.558492 1.840525 0
M  V30 15 C -2.311169 0.592698 -0.607723 0
M  V30 16 C -2.225846 -0.320821 -1.801305 0
M  V30 17 C -3.033069 -1.235172 -2.305172 0
M  V30 18 C -4.320427 -1.599726 -1.751850 0
M  V30 19 C -5.344947 -1.715893 -2.674591 0
M  V30 20 C -6.621498 -2.077837 -2.272327 0
M  V30 21 C -6.907629 -2.331691 -0.949953 0
M  V30 22 Cl -8.520540 -2.794529 -0.382337 0
M  V30 23 C -5.911250 -2.229923 0.021620 0
M  V30 24 F -6.074203 -2.457480 1.356326 0
M  V30 25 C -4.689401 -1.870834 -0.454667 0
M  V30 26 C -0.904715 0.033635 -2.327472 0
M  V30 27 O -0.541006 0.010406 -3.551344 0
M  V30 28 O -0.072894 0.414881 -1.241017 0
M  V30 29 H 4.233194 -2.004884 5.226906 0
M  V30 30 H 3.450066 -3.558102 4.734031 0
M  V30 31 H 2.660114 -1.997971 4.425615 0
M  V30 32 H 5.277939 -3.071286 3.238664 0
M  V30 33 H 3.640830 -3.191873 2.440926 0
M  V30 34 H 5.071236 -0.546843 3.054814 0
M  V30 35 H 5.027570 -1.421432 1.465081 0
M  V30 36 H 2.662412 -0.406638 3.155063 0
M  V30 37 H 2.477803 -1.310482 1.652060 0
M  V30 38 H 3.969769 1.334788 2.122310 0
M  V30 39 H 4.951447 0.259879 0.217246 0
M  V30 40 H 3.928311 1.670137 -0.287035 0
M  V30 41 H 2.943237 0.240619 -1.731690 0
M  V30 42 H 2.239482 -0.645012 -0.254914 0
M  V30 43 H 3.752515 -1.164911 -1.027947 0
M  V30 44 H -1.220903 1.745494 1.600419 0
M  V30 45 H -0.653986 2.584285 0.120858 0
M  V30 46 H -1.181295 -1.666003 0.236711 0
M  V30 47 H 0.154097 -0.915274 1.255789 0
M  V30 48 H -1.667467 -1.291369 2.509252 0
M  V30 49 H -3.095729 0.376738 0.088347 0
M  V30 50 H -2.382599 1.617591 -1.068394 0
M  V30 51 H -2.710661 -1.765299 -3.216283 0
M  V30 52 H -5.258775 -1.548777 -3.720419 0
M  V30 53 H -7.487912 -2.190115 -2.944314 0
M  V30 54 H -3.880709 -1.796025 0.266750 0
M  V30 END ATOM
M  V30 BEGIN BOND
M  V30 1 1 1 2
M  V30 2 1 2 3
M  V30 3 1 3 4
M  V30 4 1 4 5
M  V30 5 1 5 6
M  V30 6 1 6 7
M  V30 7 1 5 8
M  V30 8 2 8 9
M  V30 9 1 8 10
M  V30 10 1 10 11
M  V30 11 1 11 12
M  V30 12 1 12 13
M  V30 13 1 13 14
M  V30 14 1 12 15
M  V30 15 1 15 16
M  V30 16 2 16 17
M  V30 17 1 17 18
M  V30 18 2 18 19
M  V30 19 1 19 20
M  V30 20 2 20 21
M  V30 21 1 21 22
M  V30 22 1 21 23
M  V30 23 1 23 24
M  V30 24 2 23 25
M  V30 25 1 16 26
M  V30 26 2 26 27
M  V30 27 1 26 28
M  V30 28 1 28 12
M  V30 29 1 25 18
M  V30 30 1 1 29
M  V30 31 1 1 30
M  V30 32 1 1 31
M  V30 33 1 2 32
M  V30 34 1 2 33
M  V30 35 1 3 34
M  V30 36 1 3 35
M  V30 37 1 4 36
M  V30 38 1 4 37
M  V30 39 1 5 38
M  V30 40 1 6 39
M  V30 41 1 6 40
M  V30 42 1 7 41
M  V30 43 1 7 42
M  V30 44 1 7 43
M  V30 45 1 11 44
M  V30 46 1 11 45
M  V30 47 1 13 46
M  V30 48 1 13 47
M  V30 49 1 14 48
M  V30 50 1 15 49
M  V30 51 1 15 50
M  V30 52 1 17 51
M  V30 53 1 19 52
M  V30 54 1 20 53
M  V30 55 1 25 54
M  V30 END BOND
M  V30 END CTAB
M  END
>  <Dataset>  (208) 
ChEMBL_Kinases

>  <Ligand_Instance>  (208) 
nan

>  <PDB_ID>  (208) 
nan

>  <Standardized_SMILES>  (208) 
CCCCC(CC)C(=O)OCC1(CO)C/C(=C\c2ccc(Cl)c(F)c2)C(=O)O1

>  <Name>  (208) 
nan

>  <Pocket>  (208) 
nan

>  <ATP_Site>  (208) 
nan

>  <Peripheral>  (208) 
nan

>  <Num_H_Atoms_ProtBoundConf>  (208) 
nan

>  <Num_Resolved_Atoms>  (208) 
nan

>  <Num_Not_Resolved_Atoms>  (208) 
nan

$$$$
CHEMBL472519
     RDKit          3D

  0  0  0  0  0  0  0  0  0  0999 V3000
M  V30 BEGIN CTAB
M  V30 COUNTS 60 61 0 0 0
M  V30 BEGIN ATOM
M  V30 1 C 1.197741 -2.007671 5.849559 0
M  V30 2 C 1.384817 -1.637251 4.399251 0
M  V30 3 C 2.809218 -1.221555 4.100652 0
M  V30 4 C 3.012806 -0.846777 2.648475 0
M  V30 5 C 4.456362 -0.431993 2.374559 0
M  V30 6 C 4.585767 -0.067231 0.886520 0
M  V30 7 C 3.678875 1.035101 0.595417 0
M  V30 8 C 2.652675 1.187192 -0.222983 0
M  V30 9 C 1.729302 2.314644 -0.517389 0
M  V30 10 C 0.605694 1.564194 -1.197271 0
M  V30 11 C -0.238836 2.463905 -2.056667 0
M  V30 12 O -0.906592 3.396749 -1.251305 0
M  V30 13 C -0.192881 0.854745 -0.141817 0
M  V30 14 O -1.125488 -0.063989 -0.623087 0
M  V30 15 C -1.976236 -0.838017 0.153960 0
M  V30 16 O -1.779602 -0.586188 1.358020 0
M  V30 17 C -2.822568 -1.693971 -0.704351 0
M  V30 18 C -2.262445 -2.931210 -0.977893 0
M  V30 19 C -0.942122 -3.358044 -0.460794 0
M  V30 20 C -2.985057 -3.798268 -1.774510 0
M  V30 21 C -4.218902 -3.424743 -2.269502 0
M  V30 22 C -5.060781 -4.303489 -3.136406 0
M  V30 23 C -4.756643 -2.169489 -1.975405 0
M  V30 24 C -4.054272 -1.284921 -1.181595 0
M  V30 25 C -4.561346 0.066351 -0.825934 0
M  V30 26 O 1.315138 0.588857 -1.940943 0
M  V30 27 C 2.271195 0.052457 -1.056841 0
M  V30 28 O 2.666457 -1.142619 -1.038507 0
M  V30 29 H 1.770938 -1.359702 6.527856 0
M  V30 30 H 1.455270 -3.077208 6.029272 0
M  V30 31 H 0.103881 -1.894096 6.068031 0
M  V30 32 H 1.032145 -2.430857 3.740872 0
M  V30 33 H 0.739193 -0.732475 4.235870 0
M  V30 34 H 3.467998 -2.059806 4.380179 0
M  V30 35 H 3.067452 -0.330951 4.707166 0
M  V30 36 H 2.346730 -0.021686 2.338025 0
M  V30 37 H 2.809905 -1.743447 2.033762 0
M  V30 38 H 4.670147 0.468920 2.979538 0
M  V30 39 H 5.161709 -1.226244 2.641833 0
M  V30 40 H 4.436619 -1.006708 0.351792 0
M  V30 41 H 5.660566 0.198272 0.770211 0
M  V30 42 H 3.926200 1.919855 1.203999 0
M  V30 43 H 1.412656 2.879355 0.377122 0
M  V30 44 H 2.167798 2.998482 -1.293987 0
M  V30 45 H 0.344078 3.021586 -2.800175 0
M  V30 46 H -1.008821 1.883744 -2.593691 0
M  V30 47 H -1.660878 2.908137 -0.841687 0
M  V30 48 H 0.447657 0.347982 0.607233 0
M  V30 49 H -0.769792 1.612651 0.459787 0
M  V30 50 H -0.310750 -2.500293 -0.146657 0
M  V30 51 H -1.083362 -4.012989 0.435808 0
M  V30 52 H -0.400374 -3.967235 -1.228578 0
M  V30 53 H -2.598938 -4.786696 -2.026365 0
M  V30 54 H -5.813064 -4.788148 -2.489600 0
M  V30 55 H -5.637809 -3.663881 -3.865516 0
M  V30 56 H -4.448766 -5.010896 -3.729787 0
M  V30 57 H -5.721203 -1.880246 -2.363672 0
M  V30 58 H -5.056237 0.017774 0.163218 0
M  V30 59 H -5.300030 0.373896 -1.602527 0
M  V30 60 H -3.736516 0.801180 -0.817673 0
M  V30 END ATOM
M  V30 BEGIN BOND
M  V30 1 1 1 2
M  V30 2 1 2 3
M  V30 3 1 3 4
M  V30 4 1 4 5
M  V30 5 1 5 6
M  V30 6 1 6 7
M  V30 7 2 7 8
M  V30 8 1 8 9
M  V30 9 1 9 10
M  V30 10 1 10 11
M  V30 11 1 11 12
M  V30 12 1 10 13
M  V30 13 1 13 14
M  V30 14 1 14 15
M  V30 15 2 15 16
M  V30 16 1 15 17
M  V30 17 2 17 18
M  V30 18 1 18 19
M  V30 19 1 18 20
M  V30 20 2 20 21
M  V30 21 1 21 22
M  V30 22 1 21 23
M  V30 23 2 23 24
M  V30 24 1 24 25
M  V30 25 1 10 26
M  V30 26 1 26 27
M  V30 27 2 27 28
M  V30 28 1 27 8
M  V30 29 1 24 17
M  V30 30 1 1 29
M  V30 31 1 1 30
M  V30 32 1 1 31
M  V30 33 1 2 32
M  V30 34 1 2 33
M  V30 35 1 3 34
M  V30 36 1 3 35
M  V30 37 1 4 36
M  V30 38 1 4 37
M  V30 39 1 5 38
M  V30 40 1 5 39
M  V30 41 1 6 40
M  V30 42 1 6 41
M  V30 43 1 7 42
M  V30 44 1 9 43
M  V30 45 1 9 44
M  V30 46 1 11 45
M  V30 47 1 11 46
M  V30 48 1 12 47
M  V30 49 1 13 48
M  V30 50 1 13 49
M  V30 51 1 19 50
M  V30 52 1 19 51
M  V30 53 1 19 52
M  V30 54 1 20 53
M  V30 55 1 22 54
M  V30 56 1 22 55
M  V30 57 1 22 56
M  V30 58 1 23 57
M  V30 59 1 25 58
M  V30 60 1 25 59
M  V30 61 1 25 60
M  V30 END BOND
M  V30 END CTAB
M  END
>  <Dataset>  (209) 
ChEMBL_Kinases

>  <Ligand_Instance>  (209) 
nan

>  <PDB_ID>  (209) 
nan

>  <Standardized_SMILES>  (209) 
CCCCCC/C=C1/CC(CO)(COC(=O)c2c(C)cc(C)cc2C)OC1=O

>  <Name>  (209) 
nan

>  <Pocket>  (209) 
nan

>  <ATP_Site>  (209) 
nan

>  <Peripheral>  (209) 
nan

>  <Num_H_Atoms_ProtBoundConf>  (209) 
nan

>  <Num_Resolved_Atoms>  (209) 
nan

>  <Num_Not_Resolved_Atoms>  (209) 
nan

$$$$
CHEMBL472520
     RDKit          3D

  0  0  0  0  0  0  0  0  0  0999 V3000
M  V30 BEGIN CTAB
M  V30 COUNTS 78 79 0 0 0
M  V30 BEGIN ATOM
M  V30 1 C 0.755371 -0.744106 5.908021 0
M  V30 2 C -0.175390 -0.019755 4.965579 0
M  V30 3 C 0.405595 0.092695 3.576600 0
M  V30 4 C 1.695786 0.832462 3.522760 0
M  V30 5 C 1.674225 2.234492 3.997633 0
M  V30 6 C 0.763313 3.172811 3.248970 0
M  V30 7 C 1.096297 3.294763 1.834952 0
M  V30 8 C 0.402653 3.113564 0.738553 0
M  V30 9 C 0.677378 3.218403 -0.740288 0
M  V30 10 C -0.583908 2.849635 -1.413616 0
M  V30 11 C -1.127758 4.159940 -2.098165 0
M  V30 12 O -1.219210 5.124248 -1.121187 0
M  V30 13 C -0.477453 1.802657 -2.467079 0
M  V30 14 O -0.304679 0.509048 -2.151211 0
M  V30 15 C 0.454459 -0.373313 -1.548023 0
M  V30 16 O 1.489985 0.007377 -0.977209 0
M  V30 17 C 0.115428 -1.800532 -1.526458 0
M  V30 18 C -0.682960 -2.322359 -0.522300 0
M  V30 19 C -1.236248 -1.435287 0.537004 0
M  V30 20 C -2.600532 -0.932210 0.043640 0
M  V30 21 C -1.545478 -2.178345 1.820714 0
M  V30 22 C -1.006213 -3.661574 -0.455767 0
M  V30 23 C -0.519962 -4.502739 -1.417169 0
M  V30 24 C -0.815700 -5.959228 -1.426386 0
M  V30 25 C -0.327568 -6.544569 -0.122811 0
M  V30 26 C -2.333305 -6.100370 -1.496931 0
M  V30 27 C 0.267216 -3.958631 -2.398642 0
M  V30 28 C 0.641865 -2.613331 -2.537940 0
M  V30 29 C 1.493694 -2.184102 -3.643647 0
M  V30 30 C 2.973376 -2.112569 -3.285710 0
M  V30 31 C 1.037738 -0.980970 -4.409342 0
M  V30 32 O -1.591581 2.598791 -0.441841 0
M  V30 33 C -1.002383 2.737782 0.829830 0
M  V30 34 O -1.735938 2.528768 1.825589 0
M  V30 35 H 1.302771 0.027961 6.523306 0
M  V30 36 H 1.545334 -1.325823 5.358669 0
M  V30 37 H 0.216572 -1.436760 6.597524 0
M  V30 38 H -1.082008 -0.680663 4.850219 0
M  V30 39 H -0.512060 0.917031 5.405758 0
M  V30 40 H 0.645777 -0.970622 3.279008 0
M  V30 41 H -0.330067 0.432836 2.845857 0
M  V30 42 H 2.042474 0.809536 2.464167 0
M  V30 43 H 2.459862 0.274556 4.100559 0
M  V30 44 H 2.691688 2.660559 3.954683 0
M  V30 45 H 1.360680 2.309953 5.069915 0
M  V30 46 H -0.267570 2.889007 3.480036 0
M  V30 47 H 0.936520 4.181639 3.732549 0
M  V30 48 H 2.132647 3.598206 1.651303 0
M  V30 49 H 1.567685 2.633482 -0.970956 0
M  V30 50 H 0.991587 4.287600 -0.968843 0
M  V30 51 H -2.146655 3.895535 -2.450943 0
M  V30 52 H -0.494560 4.421505 -2.948511 0
M  V30 53 H -1.930368 5.795525 -1.273926 0
M  V30 54 H -1.463937 1.869672 -3.042244 0
M  V30 55 H 0.259529 2.176020 -3.246972 0
M  V30 56 H -0.630480 -0.527649 0.679086 0
M  V30 57 H -2.829152 -0.035267 0.654319 0
M  V30 58 H -2.526620 -0.618623 -1.002213 0
M  V30 59 H -3.389466 -1.691463 0.216867 0
M  V30 60 H -1.849335 -1.405782 2.559123 0
M  V30 61 H -2.428764 -2.830050 1.646751 0
M  V30 62 H -0.710830 -2.742569 2.232542 0
M  V30 63 H -1.620828 -4.119024 0.301181 0
M  V30 64 H -0.325502 -6.437632 -2.283268 0
M  V30 65 H -0.396891 -5.747230 0.642443 0
M  V30 66 H 0.712901 -6.902613 -0.239822 0
M  V30 67 H -0.989689 -7.402967 0.133437 0
M  V30 68 H -2.610018 -7.027036 -2.044684 0
M  V30 69 H -2.744208 -6.111369 -0.464728 0
M  V30 70 H -2.779623 -5.242134 -2.020196 0
M  V30 71 H 0.648974 -4.644820 -3.160892 0
M  V30 72 H 1.455230 -3.029115 -4.404970 0
M  V30 73 H 3.629956 -2.535044 -4.075353 0
M  V30 74 H 3.301553 -1.046223 -3.202886 0
M  V30 75 H 3.190526 -2.692362 -2.363787 0
M  V30 76 H -0.057263 -0.888623 -4.469054 0
M  V30 77 H 1.546028 -0.047812 -4.071662 0
M  V30 78 H 1.354341 -1.045259 -5.499599 0
M  V30 END ATOM
M  V30 BEGIN BOND
M  V30 1 1 1 2
M  V30 2 1 2 3
M  V30 3 1 3 4
M  V30 4 1 4 5
M  V30 5 1 5 6
M  V30 6 1 6 7
M  V30 7 2 7 8
M  V30 8 1 8 9
M  V30 9 1 9 10
M  V30 10 1 10 11
M  V30 11 1 11 12
M  V30 12 1 10 13
M  V30 13 1 13 14
M  V30 14 1 14 15
M  V30 15 2 15 16
M  V30 16 1 15 17
M  V30 17 2 17 18
M  V30 18 1 18 19
M  V30 19 1 19 20
M  V30 20 1 19 21
M  V30 21 1 18 22
M  V30 22 2 22 23
M  V30 23 1 23 24
M  V30 24 1 24 25
M  V30 25 1 24 26
M  V30 26 1 23 27
M  V30 27 2 27 28
M  V30 28 1 28 29
M  V30 29 1 29 30
M  V30 30 1 29 31
M  V30 31 1 10 32
M  V30 32 1 32 33
M  V30 33 2 33 34
M  V30 34 1 33 8
M  V30 35 1 28 17
M  V30 36 1 1 35
M  V30 37 1 1 36
M  V30 38 1 1 37
M  V30 39 1 2 38
M  V30 40 1 2 39
M  V30 41 1 3 40
M  V30 42 1 3 41
M  V30 43 1 4 42
M  V30 44 1 4 43
M  V30 45 1 5 44
M  V30 46 1 5 45
M  V30 47 1 6 46
M  V30 48 1 6 47
M  V30 49 1 7 48
M  V30 50 1 9 49
M  V30 51 1 9 50
M  V30 52 1 11 51
M  V30 53 1 11 52
M  V30 54 1 12 53
M  V30 55 1 13 54
M  V30 56 1 13 55
M  V30 57 1 19 56
M  V30 58 1 20 57
M  V30 59 1 20 58
M  V30 60 1 20 59
M  V30 61 1 21 60
M  V30 62 1 21 61
M  V30 63 1 21 62
M  V30 64 1 22 63
M  V30 65 1 24 64
M  V30 66 1 25 65
M  V30 67 1 25 66
M  V30 68 1 25 67
M  V30 69 1 26 68
M  V30 70 1 26 69
M  V30 71 1 26 70
M  V30 72 1 27 71
M  V30 73 1 29 72
M  V30 74 1 30 73
M  V30 75 1 30 74
M  V30 76 1 30 75
M  V30 77 1 31 76
M  V30 78 1 31 77
M  V30 79 1 31 78
M  V30 END BOND
M  V30 END CTAB
M  END
>  <Dataset>  (210) 
ChEMBL_Kinases

>  <Ligand_Instance>  (210) 
nan

>  <PDB_ID>  (210) 
nan

>  <Standardized_SMILES>  (210) 
CCCCCC/C=C1/CC(CO)(COC(=O)c2c(C(C)C)cc(C(C)C)cc2C(C)C)OC1=O

>  <Name>  (210) 
nan

>  <Pocket>  (210) 
nan

>  <ATP_Site>  (210) 
nan

>  <Peripheral>  (210) 
nan

>  <Num_H_Atoms_ProtBoundConf>  (210) 
nan

>  <Num_Resolved_Atoms>  (210) 
nan

>  <Num_Not_Resolved_Atoms>  (210) 
nan

$$$$
CHEMBL472522
     RDKit          3D

  0  0  0  0  0  0  0  0  0  0999 V3000
M  V30 BEGIN CTAB
M  V30 COUNTS 53 54 0 0 0
M  V30 BEGIN ATOM
M  V30 1 C 1.650927 -2.657692 4.889900 0
M  V30 2 C 2.202841 -2.182370 3.540816 0
M  V30 3 C 2.245984 -0.681808 3.585347 0
M  V30 4 C 2.768808 -0.042073 2.331145 0
M  V30 5 C 4.156898 -0.436737 1.975811 0
M  V30 6 C 5.203068 -0.106855 3.008941 0
M  V30 7 C 6.530943 -0.596397 2.439958 0
M  V30 8 C 1.876928 -0.245632 1.190923 0
M  V30 9 O 2.301440 -0.863474 0.153797 0
M  V30 10 O 0.577948 0.131380 1.019408 0
M  V30 11 C -0.154720 -0.145628 -0.159941 0
M  V30 12 C -1.568721 0.395706 -0.051441 0
M  V30 13 C -1.563541 1.902966 0.102099 0
M  V30 14 O -0.856211 2.298085 1.221643 0
M  V30 15 C -2.400984 -0.042798 -1.221130 0
M  V30 16 C -3.149952 -1.200086 -0.680070 0
M  V30 17 C -4.185795 -1.823620 -1.232947 0
M  V30 18 C -4.842348 -1.532980 -2.497233 0
M  V30 19 C -4.280430 -1.200313 -3.711447 0
M  V30 20 C -5.058123 -0.939893 -4.818147 0
M  V30 21 C -6.434817 -0.991373 -4.796897 0
M  V30 22 N -7.009570 -1.313739 -3.624813 0
M  V30 23 C -6.244997 -1.566616 -2.548696 0
M  V30 24 C -2.530608 -1.528647 0.600396 0
M  V30 25 O -2.444051 -2.728717 1.036931 0
M  V30 26 O -2.153249 -0.246922 1.049570 0
M  V30 27 H 1.105403 -3.607994 4.795131 0
M  V30 28 H 2.522134 -2.849538 5.559903 0
M  V30 29 H 1.015654 -1.868769 5.357663 0
M  V30 30 H 1.440682 -2.508957 2.801700 0
M  V30 31 H 3.169111 -2.655940 3.366403 0
M  V30 32 H 1.171429 -0.355144 3.677395 0
M  V30 33 H 2.738729 -0.292733 4.496056 0
M  V30 34 H 2.760593 1.066198 2.542792 0
M  V30 35 H 4.436061 0.190322 1.076154 0
M  V30 36 H 4.219296 -1.483301 1.636040 0
M  V30 37 H 5.060462 -0.590989 3.970551 0
M  V30 38 H 5.298765 0.987880 3.140438 0
M  V30 39 H 6.818272 -1.590045 2.850001 0
M  V30 40 H 7.368317 0.085039 2.678160 0
M  V30 41 H 6.487141 -0.722033 1.347423 0
M  V30 42 H -0.235105 -1.246011 -0.265990 0
M  V30 43 H 0.379455 0.234298 -1.048204 0
M  V30 44 H -2.594822 2.275204 0.071376 0
M  V30 45 H -1.035070 2.317350 -0.784895 0
M  V30 46 H 0.044535 2.636768 1.009702 0
M  V30 47 H -3.140367 0.754245 -1.443552 0
M  V30 48 H -1.778438 -0.295568 -2.107402 0
M  V30 49 H -4.653295 -2.681328 -0.725731 0
M  V30 50 H -3.218199 -1.159994 -3.749425 0
M  V30 51 H -4.572259 -0.683042 -5.746710 0
M  V30 52 H -7.088867 -0.802534 -5.612273 0
M  V30 53 H -6.771221 -1.821132 -1.629029 0
M  V30 END ATOM
M  V30 BEGIN BOND
M  V30 1 1 1 2
M  V30 2 1 2 3
M  V30 3 1 3 4
M  V30 4 1 4 5
M  V30 5 1 5 6
M  V30 6 1 6 7
M  V30 7 1 4 8
M  V30 8 2 8 9
M  V30 9 1 8 10
M  V30 10 1 10 11
M  V30 11 1 11 12
M  V30 12 1 12 13
M  V30 13 1 13 14
M  V30 14 1 12 15
M  V30 15 1 15 16
M  V30 16 2 16 17
M  V30 17 1 17 18
M  V30 18 2 18 19
M  V30 19 1 19 20
M  V30 20 2 20 21
M  V30 21 1 21 22
M  V30 22 2 22 23
M  V30 23 1 16 24
M  V30 24 2 24 25
M  V30 25 1 24 26
M  V30 26 1 26 12
M  V30 27 1 23 18
M  V30 28 1 1 27
M  V30 29 1 1 28
M  V30 30 1 1 29
M  V30 31 1 2 30
M  V30 32 1 2 31
M  V30 33 1 3 32
M  V30 34 1 3 33
M  V30 35 1 4 34
M  V30 36 1 5 35
M  V30 37 1 5 36
M  V30 38 1 6 37
M  V30 39 1 6 38
M  V30 40 1 7 39
M  V30 41 1 7 40
M  V30 42 1 7 41
M  V30 43 1 11 42
M  V30 44 1 11 43
M  V30 45 1 13 44
M  V30 46 1 13 45
M  V30 47 1 14 46
M  V30 48 1 15 47
M  V30 49 1 15 48
M  V30 50 1 17 49
M  V30 51 1 19 50
M  V30 52 1 20 51
M  V30 53 1 21 52
M  V30 54 1 23 53
M  V30 END BOND
M  V30 END CTAB
M  END
>  <Dataset>  (211) 
ChEMBL_Kinases

>  <Ligand_Instance>  (211) 
nan

>  <PDB_ID>  (211) 
nan

>  <Standardized_SMILES>  (211) 
CCCC(CCC)C(=O)OCC1(CO)C/C(=C\c2cccnc2)C(=O)O1

>  <Name>  (211) 
nan

>  <Pocket>  (211) 
nan

>  <ATP_Site>  (211) 
nan

>  <Peripheral>  (211) 
nan

>  <Num_H_Atoms_ProtBoundConf>  (211) 
nan

>  <Num_Resolved_Atoms>  (211) 
nan

>  <Num_Not_Resolved_Atoms>  (211) 
nan

$$$$
CHEMBL472523
     RDKit          3D

  0  0  0  0  0  0  0  0  0  0999 V3000
M  V30 BEGIN CTAB
M  V30 COUNTS 53 54 0 0 0
M  V30 BEGIN ATOM
M  V30 1 C 0.881701 -2.844601 4.134599 0
M  V30 2 C 1.492566 -1.938151 3.054317 0
M  V30 3 C 1.782999 -0.622699 3.685033 0
M  V30 4 C 2.386429 0.417076 2.814134 0
M  V30 5 C 3.708118 0.063630 2.190502 0
M  V30 6 C 4.791194 -0.228160 3.196777 0
M  V30 7 C 6.044368 -0.558276 2.410624 0
M  V30 8 C 1.470935 0.863204 1.740694 0
M  V30 9 O 1.235316 2.088021 1.660089 0
M  V30 10 O 0.968310 -0.057698 0.946820 0
M  V30 11 C 0.117941 -0.017720 -0.101914 0
M  V30 12 C -1.272694 0.418050 0.231796 0
M  V30 13 C -1.487354 1.883356 0.401689 0
M  V30 14 O -0.809259 2.650670 -0.540093 0
M  V30 15 C -2.102976 -0.046068 -1.016057 0
M  V30 16 C -2.534436 -1.383003 -0.576573 0
M  V30 17 C -3.341279 -2.192051 -1.292597 0
M  V30 18 C -3.935131 -1.940561 -2.594293 0
M  V30 19 C -3.365363 -1.428691 -3.743624 0
M  V30 20 C -4.096087 -1.232194 -4.901192 0
M  V30 21 N -5.407060 -1.532984 -4.964247 0
M  V30 22 C -6.064923 -2.038719 -3.903868 0
M  V30 23 C -5.298312 -2.216805 -2.775351 0
M  V30 24 C -1.956861 -1.658132 0.728963 0
M  V30 25 O -1.664587 -2.850886 1.094181 0
M  V30 26 O -1.903971 -0.363464 1.221108 0
M  V30 27 H 0.509910 -3.775813 3.672529 0
M  V30 28 H 1.585366 -3.035823 4.963361 0
M  V30 29 H 0.015857 -2.293250 4.550189 0
M  V30 30 H 0.733213 -1.936302 2.250480 0
M  V30 31 H 2.386501 -2.426602 2.608610 0
M  V30 32 H 2.359393 -0.776956 4.616859 0
M  V30 33 H 0.799635 -0.209049 4.038063 0
M  V30 34 H 2.573672 1.304366 3.483012 0
M  V30 35 H 4.027609 0.958645 1.609547 0
M  V30 36 H 3.577192 -0.763057 1.474756 0
M  V30 37 H 4.547296 -1.018353 3.909190 0
M  V30 38 H 5.016128 0.698583 3.798337 0
M  V30 39 H 5.819595 -0.732244 1.334516 0
M  V30 40 H 6.808463 0.248905 2.454394 0
M  V30 41 H 6.470982 -1.549074 2.752563 0
M  V30 42 H 0.115213 -1.045532 -0.575462 0
M  V30 43 H 0.530137 0.613283 -0.953594 0
M  V30 44 H -1.303759 2.291607 1.399862 0
M  V30 45 H -2.604499 2.113551 0.184090 0
M  V30 46 H -1.242698 2.580346 -1.429383 0
M  V30 47 H -1.417611 -0.027119 -1.878762 0
M  V30 48 H -2.936172 0.673656 -1.169781 0
M  V30 49 H -3.631178 -3.186593 -0.912000 0
M  V30 50 H -2.315693 -1.202844 -3.679834 0
M  V30 51 H -3.535383 -0.823721 -5.741232 0
M  V30 52 H -7.111970 -2.297840 -3.892786 0
M  V30 53 H -5.830717 -2.629898 -1.901436 0
M  V30 END ATOM
M  V30 BEGIN BOND
M  V30 1 1 1 2
M  V30 2 1 2 3
M  V30 3 1 3 4
M  V30 4 1 4 5
M  V30 5 1 5 6
M  V30 6 1 6 7
M  V30 7 1 4 8
M  V30 8 2 8 9
M  V30 9 1 8 10
M  V30 10 1 10 11
M  V30 11 1 11 12
M  V30 12 1 12 13
M  V30 13 1 13 14
M  V30 14 1 12 15
M  V30 15 1 15 16
M  V30 16 2 16 17
M  V30 17 1 17 18
M  V30 18 2 18 19
M  V30 19 1 19 20
M  V30 20 2 20 21
M  V30 21 1 21 22
M  V30 22 2 22 23
M  V30 23 1 16 24
M  V30 24 2 24 25
M  V30 25 1 24 26
M  V30 26 1 26 12
M  V30 27 1 23 18
M  V30 28 1 1 27
M  V30 29 1 1 28
M  V30 30 1 1 29
M  V30 31 1 2 30
M  V30 32 1 2 31
M  V30 33 1 3 32
M  V30 34 1 3 33
M  V30 35 1 4 34
M  V30 36 1 5 35
M  V30 37 1 5 36
M  V30 38 1 6 37
M  V30 39 1 6 38
M  V30 40 1 7 39
M  V30 41 1 7 40
M  V30 42 1 7 41
M  V30 43 1 11 42
M  V30 44 1 11 43
M  V30 45 1 13 44
M  V30 46 1 13 45
M  V30 47 1 14 46
M  V30 48 1 15 47
M  V30 49 1 15 48
M  V30 50 1 17 49
M  V30 51 1 19 50
M  V30 52 1 20 51
M  V30 53 1 22 52
M  V30 54 1 23 53
M  V30 END BOND
M  V30 END CTAB
M  END
>  <Dataset>  (212) 
ChEMBL_Kinases

>  <Ligand_Instance>  (212) 
nan

>  <PDB_ID>  (212) 
nan

>  <Standardized_SMILES>  (212) 
CCCC(CCC)C(=O)OCC1(CO)C/C(=C\c2ccncc2)C(=O)O1

>  <Name>  (212) 
nan

>  <Pocket>  (212) 
nan

>  <ATP_Site>  (212) 
nan

>  <Peripheral>  (212) 
nan

>  <Num_H_Atoms_ProtBoundConf>  (212) 
nan

>  <Num_Resolved_Atoms>  (212) 
nan

>  <Num_Not_Resolved_Atoms>  (212) 
nan

$$$$
CHEMBL4466740
     RDKit          3D

  0  0  0  0  0  0  0  0  0  0999 V3000
M  V30 BEGIN CTAB
M  V30 COUNTS 52 56 0 0 0
M  V30 BEGIN ATOM
M  V30 1 C 2.652247 -3.680800 -0.901712 0
M  V30 2 C 1.300733 -3.119869 -0.587972 0 CFG=2
M  V30 3 C 1.494743 -1.873821 0.309581 0
M  V30 4 C 0.091118 -1.612898 0.885991 0 CFG=2
M  V30 5 N -0.126883 -0.309467 1.342639 0
M  V30 6 C 0.854429 0.600397 1.604484 0
M  V30 7 C 2.311690 0.713929 1.531966 0
M  V30 8 C 2.798384 1.578795 0.413307 0
M  V30 9 C 3.274068 1.353504 -0.829075 0
M  V30 10 N 3.581407 2.482851 -1.489070 0
M  V30 11 C 4.112561 2.566613 -2.838975 0
M  V30 12 N 3.284570 3.433471 -0.622497 0
M  V30 13 N 2.820541 2.944538 0.510275 0
M  V30 14 N 0.281767 1.775952 2.037951 0
M  V30 15 C -1.045952 1.665973 2.068045 0
M  V30 16 C -2.012213 2.561733 2.423516 0
M  V30 17 N -3.287330 2.155935 2.347223 0
M  V30 18 C -3.605304 0.916307 1.937202 0
M  V30 19 C -4.941453 0.621254 1.900429 0
M  V30 20 C -5.276385 -0.648741 1.479029 0
M  V30 21 C -4.295403 -1.570360 1.113713 0
M  V30 22 C -4.811628 -2.895686 0.681786 0
M  V30 23 F -3.898703 -3.575928 -0.093656 0
M  V30 24 F -6.011682 -2.778130 0.006980 0
M  V30 25 F -4.978209 -3.637419 1.835669 0
M  V30 26 C -2.975682 -1.175406 1.185796 0
M  V30 27 C -2.580671 0.066667 1.594767 0
M  V30 28 C -1.242110 0.371521 1.633419 0
M  V30 29 C 0.062864 -2.694790 1.989702 0
M  V30 30 C 0.601385 -3.997689 1.366685 0
M  V30 31 O 0.410983 -3.974081 -0.013390 0
M  V30 32 H 3.134934 -2.954545 -1.617913 0
M  V30 33 H 2.593151 -4.629539 -1.434106 0
M  V30 34 H 3.333798 -3.673162 -0.019073 0
M  V30 35 H 0.885323 -2.750653 -1.571926 0
M  V30 36 H 2.183030 -2.254422 1.085134 0
M  V30 37 H 1.833259 -1.107392 -0.357451 0
M  V30 38 H -0.526615 -1.953490 0.035334 0
M  V30 39 H 2.887645 -0.223747 1.597813 0
M  V30 40 H 2.692159 1.241603 2.463862 0
M  V30 41 H 3.405026 0.378368 -1.261899 0
M  V30 42 H 3.735510 3.509670 -3.299041 0
M  V30 43 H 3.714544 1.746149 -3.480203 0
M  V30 44 H 5.210155 2.636049 -2.858442 0
M  V30 45 H -1.723737 3.555298 2.750460 0
M  V30 46 H -5.686399 1.330287 2.180891 0
M  V30 47 H -6.330540 -0.896458 1.444840 0
M  V30 48 H -2.366709 -1.976819 0.878824 0
M  V30 49 H 0.843110 -2.392874 2.726666 0
M  V30 50 H -0.899929 -2.804626 2.451827 0
M  V30 51 H 1.637694 -4.135621 1.659023 0
M  V30 52 H -0.034949 -4.804972 1.785261 0
M  V30 END ATOM
M  V30 BEGIN BOND
M  V30 1 1 1 2
M  V30 2 1 2 3
M  V30 3 1 3 4
M  V30 4 1 4 5
M  V30 5 1 5 6
M  V30 6 1 6 7
M  V30 7 1 7 8
M  V30 8 2 8 9
M  V30 9 1 9 10
M  V30 10 1 10 11
M  V30 11 1 10 12
M  V30 12 2 12 13
M  V30 13 2 6 14
M  V30 14 1 14 15
M  V30 15 2 15 16
M  V30 16 1 16 17
M  V30 17 2 17 18
M  V30 18 1 18 19
M  V30 19 2 19 20
M  V30 20 1 20 21
M  V30 21 1 21 22
M  V30 22 1 22 23
M  V30 23 1 22 24
M  V30 24 1 22 25
M  V30 25 2 21 26
M  V30 26 1 26 27
M  V30 27 2 27 28
M  V30 28 1 4 29
M  V30 29 1 29 30
M  V30 30 1 30 31
M  V30 31 1 31 2
M  V30 32 1 28 5
M  V30 33 1 13 8
M  V30 34 1 28 15
M  V30 35 1 27 18
M  V30 36 1 1 32
M  V30 37 1 1 33
M  V30 38 1 1 34
M  V30 39 1 2 35 CFG=3
M  V30 40 1 3 36
M  V30 41 1 3 37
M  V30 42 1 4 38 CFG=3
M  V30 43 1 7 39
M  V30 44 1 7 40
M  V30 45 1 9 41
M  V30 46 1 11 42
M  V30 47 1 11 43
M  V30 48 1 11 44
M  V30 49 1 16 45
M  V30 50 1 19 46
M  V30 51 1 20 47
M  V30 52 1 26 48
M  V30 53 1 29 49
M  V30 54 1 29 50
M  V30 55 1 30 51
M  V30 56 1 30 52
M  V30 END BOND
M  V30 END CTAB
M  END
>  <Dataset>  (213) 
ChEMBL_Kinases

>  <Ligand_Instance>  (213) 
nan

>  <PDB_ID>  (213) 
nan

>  <Standardized_SMILES>  (213) 
C[C@@H]1C[C@H](n2c(Cc3cn(C)nn3)nc3cnc4ccc(C(F)(F)F)cc4c32)CCO1

>  <Name>  (213) 
nan

>  <Pocket>  (213) 
nan

>  <ATP_Site>  (213) 
nan

>  <Peripheral>  (213) 
nan

>  <Num_H_Atoms_ProtBoundConf>  (213) 
nan

>  <Num_Resolved_Atoms>  (213) 
nan

>  <Num_Not_Resolved_Atoms>  (213) 
nan

$$$$
CHEMBL472526
     RDKit          3D

  0  0  0  0  0  0  0  0  0  0999 V3000
M  V30 BEGIN CTAB
M  V30 COUNTS 56 57 0 0 0
M  V30 BEGIN ATOM
M  V30 1 C -0.784583 -4.139442 3.357172 0
M  V30 2 C -0.491276 -2.740844 2.856067 0
M  V30 3 C 0.518733 -2.061821 3.737999 0
M  V30 4 C 1.833276 -2.807961 3.787948 0
M  V30 5 C 2.461910 -2.925180 2.401011 0
M  V30 6 C 2.676471 -1.550026 1.934798 0
M  V30 7 C 2.321264 -0.960527 0.814224 0
M  V30 8 C 2.488549 0.415178 0.251543 0
M  V30 9 C 1.372895 0.495569 -0.749752 0
M  V30 10 C 1.832853 1.065037 -2.076376 0
M  V30 11 O 0.690864 1.075249 -2.910152 0
M  V30 12 C 0.196379 1.301106 -0.205818 0
M  V30 13 O -0.856592 1.325992 -1.143745 0
M  V30 14 C -2.025189 2.012649 -0.834990 0
M  V30 15 O -2.124746 2.595610 0.265136 0
M  V30 16 C -3.158109 2.087983 -1.744467 0
M  V30 17 C -4.267648 2.795997 -1.336441 0
M  V30 18 C -5.356278 2.870645 -2.204930 0
M  V30 19 C -5.401850 2.282513 -3.451255 0
M  V30 20 N -6.577926 2.438472 -4.234936 0 CHG=1 VAL=4
M  V30 21 O -6.556249 1.882924 -5.349973 0
M  V30 22 O -7.681853 3.159003 -3.796812 0 CHG=-1 VAL=1
M  V30 23 C -4.272132 1.577029 -3.835142 0
M  V30 24 C -3.190860 1.495087 -2.988492 0
M  V30 25 O 0.882866 -0.799316 -0.982682 0
M  V30 26 C 1.599169 -1.681956 -0.209428 0
M  V30 27 O 1.609622 -2.929450 -0.385453 0
M  V30 28 C 3.798649 -3.639535 2.658831 0
M  V30 29 C 3.557468 -4.994656 3.282223 0
M  V30 30 H -0.612767 -4.201422 4.452557 0
M  V30 31 H -1.843751 -4.376521 3.136643 0
M  V30 32 H -0.190079 -4.919087 2.841814 0
M  V30 33 H -0.216202 -2.719346 1.798989 0
M  V30 34 H -1.436654 -2.166136 2.948835 0
M  V30 35 H 0.115463 -2.083251 4.770586 0
M  V30 36 H 0.659548 -1.019842 3.436484 0
M  V30 37 H 2.518598 -2.177228 4.391354 0
M  V30 38 H 1.727936 -3.773235 4.295579 0
M  V30 39 H 1.845814 -3.568439 1.782905 0
M  V30 40 H 3.225127 -0.902637 2.637147 0
M  V30 41 H 3.438932 0.376072 -0.343682 0
M  V30 42 H 2.480218 1.203292 1.008241 0
M  V30 43 H 2.261651 2.077416 -1.981625 0
M  V30 44 H 2.522982 0.349287 -2.567795 0
M  V30 45 H 0.473884 0.112973 -3.078977 0
M  V30 46 H -0.091608 0.941867 0.794865 0
M  V30 47 H 0.567142 2.364100 -0.145064 0
M  V30 48 H -4.317927 3.290451 -0.371958 0
M  V30 49 H -6.211721 3.440465 -1.841294 0
M  V30 50 H -4.291503 1.110594 -4.808017 0
M  V30 51 H -2.292149 0.939559 -3.282091 0
M  V30 52 H 4.432939 -3.677094 1.758272 0
M  V30 53 H 4.390314 -3.045636 3.414309 0
M  V30 54 H 4.132980 -5.764861 2.713918 0
M  V30 55 H 2.474829 -5.246010 3.084905 0
M  V30 56 H 3.763835 -5.016526 4.369834 0
M  V30 END ATOM
M  V30 BEGIN BOND
M  V30 1 1 1 2
M  V30 2 1 2 3
M  V30 3 1 3 4
M  V30 4 1 4 5
M  V30 5 1 5 6
M  V30 6 2 6 7
M  V30 7 1 7 8
M  V30 8 1 8 9
M  V30 9 1 9 10
M  V30 10 1 10 11
M  V30 11 1 9 12
M  V30 12 1 12 13
M  V30 13 1 13 14
M  V30 14 2 14 15
M  V30 15 1 14 16
M  V30 16 2 16 17
M  V30 17 1 17 18
M  V30 18 2 18 19
M  V30 19 1 19 20
M  V30 20 2 20 21
M  V30 21 1 20 22
M  V30 22 1 19 23
M  V30 23 2 23 24
M  V30 24 1 9 25
M  V30 25 1 25 26
M  V30 26 2 26 27
M  V30 27 1 5 28
M  V30 28 1 28 29
M  V30 29 1 26 7
M  V30 30 1 24 16
M  V30 31 1 1 30
M  V30 32 1 1 31
M  V30 33 1 1 32
M  V30 34 1 2 33
M  V30 35 1 2 34
M  V30 36 1 3 35
M  V30 37 1 3 36
M  V30 38 1 4 37
M  V30 39 1 4 38
M  V30 40 1 5 39
M  V30 41 1 6 40
M  V30 42 1 8 41
M  V30 43 1 8 42
M  V30 44 1 10 43
M  V30 45 1 10 44
M  V30 46 1 11 45
M  V30 47 1 12 46
M  V30 48 1 12 47
M  V30 49 1 17 48
M  V30 50 1 18 49
M  V30 51 1 23 50
M  V30 52 1 24 51
M  V30 53 1 28 52
M  V30 54 1 28 53
M  V30 55 1 29 54
M  V30 56 1 29 55
M  V30 57 1 29 56
M  V30 END BOND
M  V30 END CTAB
M  END
>  <Dataset>  (214) 
ChEMBL_Kinases

>  <Ligand_Instance>  (214) 
nan

>  <PDB_ID>  (214) 
nan

>  <Standardized_SMILES>  (214) 
CCCCC(/C=C1/CC(CO)(COC(=O)c2ccc([N+](=O)[O-])cc2)OC1=O)CC

>  <Name>  (214) 
nan

>  <Pocket>  (214) 
nan

>  <ATP_Site>  (214) 
nan

>  <Peripheral>  (214) 
nan

>  <Num_H_Atoms_ProtBoundConf>  (214) 
nan

>  <Num_Resolved_Atoms>  (214) 
nan

>  <Num_Not_Resolved_Atoms>  (214) 
nan

$$$$
CHEMBL471901
     RDKit          3D

  0  0  0  0  0  0  0  0  0  0999 V3000
M  V30 BEGIN CTAB
M  V30 COUNTS 39 40 0 0 0
M  V30 BEGIN ATOM
M  V30 1 N -1.976405 -4.773696 2.057214 0
M  V30 2 C -1.039651 -4.667632 0.980911 0
M  V30 3 C -0.514558 -3.241160 0.821965 0
M  V30 4 N 0.423456 -3.218380 -0.282776 0
M  V30 5 C 1.115909 -2.059248 -0.727048 0
M  V30 6 N 1.985190 -2.049544 -1.754135 0
M  V30 7 C 2.611413 -0.897135 -2.122079 0
M  V30 8 C 2.283648 0.206158 -1.375347 0
M  V30 9 C 2.974056 1.413552 -1.801261 0
M  V30 10 N 3.905230 1.524726 -2.868857 0
M  V30 11 O 3.203613 2.614780 -1.682924 0
M  V30 12 C 1.406076 0.257098 -0.318757 0
M  V30 13 N 1.162749 1.467592 0.362440 0
M  V30 14 C 0.295632 1.681920 1.460326 0
M  V30 15 C 0.174784 2.959919 2.014298 0
M  V30 16 C -0.649794 3.227444 3.078903 0
M  V30 17 C -1.405706 2.233247 3.656699 0
M  V30 18 C -1.322514 0.971418 3.152620 0
M  V30 19 C -2.129665 -0.140917 3.753378 0
M  V30 20 F -2.755999 0.328231 4.876701 0
M  V30 21 F -3.029897 -0.629035 2.843849 0
M  V30 22 F -1.202165 -1.138903 4.076173 0
M  V30 23 C -0.488200 0.750374 2.091389 0
M  V30 24 N 0.851952 -0.934274 -0.048909 0
M  V30 25 H -2.770722 -5.417160 1.836303 0
M  V30 26 H -2.304675 -3.844853 2.423123 0
M  V30 27 H -0.155551 -5.300095 1.251923 0
M  V30 28 H -1.449474 -5.000022 0.006436 0
M  V30 29 H -1.387348 -2.626393 0.515840 0
M  V30 30 H -0.035897 -2.890811 1.740689 0
M  V30 31 H 0.638969 -4.106660 -0.826982 0
M  V30 32 H 3.299377 -0.899358 -2.938143 0
M  V30 33 H 3.832426 1.516682 -3.930312 0
M  V30 34 H 3.855893 1.519466 -3.925307 0
M  V30 35 H 1.677853 2.308673 0.024334 0
M  V30 36 H 0.739146 3.799885 1.614301 0
M  V30 37 H -0.712222 4.238186 3.477681 0
M  V30 38 H -2.054731 2.443529 4.494560 0
M  V30 39 H -0.465238 -0.268411 1.736894 0
M  V30 END ATOM
M  V30 BEGIN BOND
M  V30 1 1 1 2
M  V30 2 1 2 3
M  V30 3 1 3 4
M  V30 4 1 4 5
M  V30 5 2 5 6
M  V30 6 1 6 7
M  V30 7 2 7 8
M  V30 8 1 8 9
M  V30 9 1 9 10
M  V30 10 2 9 11
M  V30 11 1 8 12
M  V30 12 1 12 13
M  V30 13 1 13 14
M  V30 14 2 14 15
M  V30 15 1 15 16
M  V30 16 2 16 17
M  V30 17 1 17 18
M  V30 18 1 18 19
M  V30 19 1 19 20
M  V30 20 1 19 21
M  V30 21 1 19 22
M  V30 22 2 18 23
M  V30 23 2 12 24
M  V30 24 1 24 5
M  V30 25 1 23 14
M  V30 26 1 1 25
M  V30 27 1 1 26
M  V30 28 1 2 27
M  V30 29 1 2 28
M  V30 30 1 3 29
M  V30 31 1 3 30
M  V30 32 1 4 31
M  V30 33 1 7 32
M  V30 34 1 10 33
M  V30 35 1 10 34
M  V30 36 1 13 35
M  V30 37 1 15 36
M  V30 38 1 16 37
M  V30 39 1 17 38
M  V30 40 1 23 39
M  V30 END BOND
M  V30 END CTAB
M  END
>  <Dataset>  (215) 
ChEMBL_Kinases

>  <Ligand_Instance>  (215) 
nan

>  <PDB_ID>  (215) 
nan

>  <Standardized_SMILES>  (215) 
NCCNc1ncc(C(N)=O)c(Nc2cccc(C(F)(F)F)c2)n1

>  <Name>  (215) 
nan

>  <Pocket>  (215) 
nan

>  <ATP_Site>  (215) 
nan

>  <Peripheral>  (215) 
nan

>  <Num_H_Atoms_ProtBoundConf>  (215) 
nan

>  <Num_Resolved_Atoms>  (215) 
nan

>  <Num_Not_Resolved_Atoms>  (215) 
nan

$$$$
CHEMBL4466569
     RDKit          3D

  0  0  0  0  0  0  0  0  0  0999 V3000
M  V30 BEGIN CTAB
M  V30 COUNTS 64 68 0 0 0
M  V30 BEGIN ATOM
M  V30 1 C 5.980514 3.255437 6.455289 0
M  V30 2 O 5.221518 3.298853 5.410348 0
M  V30 3 C 4.638327 3.424672 4.258033 0
M  V30 4 C 5.505734 3.947961 3.299991 0
M  V30 5 C 5.090122 4.168480 1.986473 0
M  V30 6 N 5.877323 4.682666 1.014397 0
M  V30 7 N 5.408415 4.868135 -0.190497 0
M  V30 8 C 4.138162 4.564995 -0.536938 0
M  V30 9 C 3.261147 4.028765 0.411888 0
M  V30 10 O 2.017132 3.779009 -0.095049 0
M  V30 11 C 1.520508 2.489884 -0.157437 0
M  V30 12 C 0.203391 2.469833 -0.620010 0
M  V30 13 C -0.490806 1.262900 -0.761557 0
M  V30 14 C 0.091075 0.056915 -0.453155 0
M  V30 15 N -0.508950 -1.221197 -0.570933 0
M  V30 16 C -1.777567 -1.619685 -1.032361 0
M  V30 17 O -2.495855 -0.645880 -1.406501 0
M  V30 18 C -2.274019 -2.971348 -1.101249 0
M  V30 19 C -3.581879 -3.097139 -1.614686 0
M  V30 20 N -4.267170 -4.222606 -1.785688 0
M  V30 21 C -5.612932 -4.291039 -2.319028 0
M  V30 22 C -6.265509 -2.928571 -2.371403 0
M  V30 23 C -5.525891 -4.794402 -3.751618 0
M  V30 24 C -3.691610 -5.381888 -1.447516 0
M  V30 25 C -4.322847 -6.599095 -1.587144 0
M  V30 26 C -3.719290 -7.808005 -1.232015 0
M  V30 27 C -2.434855 -7.742565 -0.722686 0
M  V30 28 C -1.720839 -6.555519 -0.546245 0
M  V30 29 C -2.419832 -5.431501 -0.932109 0
M  V30 30 C -1.795251 -4.222657 -0.792802 0
M  V30 31 O -0.633316 -4.169643 -0.331387 0
M  V30 32 C 1.391965 0.112837 0.000704 0
M  V30 33 C 2.092264 1.280259 0.147561 0
M  V30 34 C 3.788548 3.848431 1.672277 0
M  V30 35 C 2.901281 3.329871 2.585151 0
M  V30 36 C 3.337981 3.124024 3.870823 0
M  V30 37 O 2.582921 2.617099 4.898636 0
M  V30 38 C 1.241318 2.265999 4.666270 0
M  V30 39 H 6.017051 2.239250 6.972472 0
M  V30 40 H 5.819496 4.020494 7.279921 0
M  V30 41 H 7.093909 3.421022 6.223020 0
M  V30 42 H 6.546532 4.235360 3.432154 0
M  V30 43 H 3.868361 4.763456 -1.569299 0
M  V30 44 H -0.352446 3.361233 -0.890781 0
M  V30 45 H -1.488358 1.297734 -1.115489 0
M  V30 46 H 0.072426 -2.048198 -0.267088 0
M  V30 47 H -4.158353 -2.231284 -1.925335 0
M  V30 48 H -6.295373 -4.919425 -1.701060 0
M  V30 49 H -6.274507 -2.430520 -1.387575 0
M  V30 50 H -5.853937 -2.274616 -3.179688 0
M  V30 51 H -7.330247 -3.111738 -2.651411 0
M  V30 52 H -6.228449 -5.649137 -3.929095 0
M  V30 53 H -5.778193 -3.986560 -4.492332 0
M  V30 54 H -4.479831 -5.081350 -4.023175 0
M  V30 55 H -5.309544 -6.679684 -1.976228 0
M  V30 56 H -4.214009 -8.771120 -1.342116 0
M  V30 57 H -1.970444 -8.704314 -0.446087 0
M  V30 58 H -0.727906 -6.522607 -0.151061 0
M  V30 59 H 1.984674 -0.771096 0.284918 0
M  V30 60 H 3.110964 1.361644 0.496334 0
M  V30 61 H 1.883828 3.085365 2.338964 0
M  V30 62 H 0.639058 3.213315 4.672384 0
M  V30 63 H 1.061209 1.797341 3.690542 0
M  V30 64 H 0.823327 1.625774 5.473000 0
M  V30 END ATOM
M  V30 BEGIN BOND
M  V30 1 1 1 2
M  V30 2 1 2 3
M  V30 3 2 3 4
M  V30 4 1 4 5
M  V30 5 2 5 6
M  V30 6 1 6 7
M  V30 7 2 7 8
M  V30 8 1 8 9
M  V30 9 1 9 10
M  V30 10 1 10 11
M  V30 11 2 11 12
M  V30 12 1 12 13
M  V30 13 2 13 14
M  V30 14 1 14 15
M  V30 15 1 15 16
M  V30 16 2 16 17
M  V30 17 1 16 18
M  V30 18 2 18 19
M  V30 19 1 19 20
M  V30 20 1 20 21
M  V30 21 1 21 22
M  V30 22 1 21 23
M  V30 23 1 20 24
M  V30 24 2 24 25
M  V30 25 1 25 26
M  V30 26 2 26 27
M  V30 27 1 27 28
M  V30 28 2 28 29
M  V30 29 1 29 30
M  V30 30 2 30 31
M  V30 31 1 14 32
M  V30 32 2 32 33
M  V30 33 2 9 34
M  V30 34 1 34 35
M  V30 35 2 35 36
M  V30 36 1 36 37
M  V30 37 1 37 38
M  V30 38 1 36 3
M  V30 39 1 34 5
M  V30 40 1 33 11
M  V30 41 1 30 18
M  V30 42 1 29 24
M  V30 43 1 1 39
M  V30 44 1 1 40
M  V30 45 1 1 41
M  V30 46 1 4 42
M  V30 47 1 8 43
M  V30 48 1 12 44
M  V30 49 1 13 45
M  V30 50 1 15 46
M  V30 51 1 19 47
M  V30 52 1 21 48
M  V30 53 1 22 49
M  V30 54 1 22 50
M  V30 55 1 22 51
M  V30 56 1 23 52
M  V30 57 1 23 53
M  V30 58 1 23 54
M  V30 59 1 25 55
M  V30 60 1 26 56
M  V30 61 1 27 57
M  V30 62 1 28 58
M  V30 63 1 32 59
M  V30 64 1 33 60
M  V30 65 1 35 61
M  V30 66 1 38 62
M  V30 67 1 38 63
M  V30 68 1 38 64
M  V30 END BOND
M  V30 END CTAB
M  END
>  <Dataset>  (216) 
ChEMBL_Kinases

>  <Ligand_Instance>  (216) 
nan

>  <PDB_ID>  (216) 
nan

>  <Standardized_SMILES>  (216) 
COc1cc2nncc(Oc3ccc(NC(=O)c4cn(C(C)C)c5ccccc5c4=O)cc3)c2cc1OC

>  <Name>  (216) 
nan

>  <Pocket>  (216) 
nan

>  <ATP_Site>  (216) 
nan

>  <Peripheral>  (216) 
nan

>  <Num_H_Atoms_ProtBoundConf>  (216) 
nan

>  <Num_Resolved_Atoms>  (216) 
nan

>  <Num_Not_Resolved_Atoms>  (216) 
nan

$$$$
CHEMBL4466555
     RDKit          3D

  0  0  0  0  0  0  0  0  0  0999 V3000
M  V30 BEGIN CTAB
M  V30 COUNTS 54 58 0 0 0
M  V30 BEGIN ATOM
M  V30 1 C 0.654020 -3.631098 3.465305 0
M  V30 2 C 0.891536 -2.345624 2.766938 0
M  V30 3 C 1.869601 -1.502501 3.251336 0
M  V30 4 C 2.164850 -0.272365 2.661598 0
M  V30 5 C 1.451765 0.122066 1.547143 0
M  V30 6 C 1.623293 1.369078 0.797205 0
M  V30 7 O 0.954019 1.713003 -0.215280 0
M  V30 8 N 2.615580 2.339564 1.178579 0
M  V30 9 C 2.666222 3.508453 0.350510 0
M  V30 10 C 3.557652 3.306582 -0.710650 0
M  V30 11 C 3.744991 4.332408 -1.629402 0
M  V30 12 C 3.064000 5.531872 -1.499506 0
M  V30 13 Cl 3.276342 6.860023 -2.648880 0
M  V30 14 C 2.192723 5.699605 -0.443062 0
M  V30 15 C 1.437551 6.968175 -0.259435 0
M  V30 16 F 0.624660 6.937403 0.850490 0
M  V30 17 F 2.302168 8.036079 -0.161878 0
M  V30 18 F 0.587592 7.194476 -1.349427 0
M  V30 19 C 1.992744 4.706568 0.471222 0
M  V30 20 C 0.473448 -0.728913 1.068489 0
M  V30 21 C 0.185437 -1.940801 1.652667 0
M  V30 22 N -0.814195 -2.840572 1.186196 0
M  V30 23 C -2.148838 -2.845276 1.604850 0
M  V30 24 O -2.509418 -1.983484 2.474633 0
M  V30 25 C -3.236009 -3.751012 1.157532 0
M  V30 26 C -2.840724 -4.720044 0.103876 0
M  V30 27 N -2.883731 -6.058667 0.223235 0
M  V30 28 C -2.508635 -6.898081 -0.757947 0
M  V30 29 N -2.057311 -6.399351 -1.946248 0
M  V30 30 C -2.016604 -5.074001 -2.060128 0
M  V30 31 N -1.600476 -4.419019 -3.167782 0
M  V30 32 C -1.707319 -3.107376 -2.900789 0
M  V30 33 N -2.180258 -2.942692 -1.652533 0
M  V30 34 C -2.387911 -4.145315 -1.089138 0
M  V30 35 C -4.212934 -4.172992 2.205188 0
M  V30 36 C -4.621344 -3.227099 1.090733 0
M  V30 37 H 0.163909 -4.381834 2.829122 0
M  V30 38 H -0.018935 -3.392018 4.316288 0
M  V30 39 H 1.555796 -4.095027 3.884186 0
M  V30 40 H 2.494778 -1.710034 4.123977 0
M  V30 41 H 2.914634 0.412513 3.003836 0
M  V30 42 H 3.232276 2.162926 2.005903 0
M  V30 43 H 4.140628 2.426064 -0.916761 0
M  V30 44 H 4.413119 4.278846 -2.488349 0
M  V30 45 H 1.343360 4.727370 1.327099 0
M  V30 46 H -0.123014 -0.482953 0.199676 0
M  V30 47 H -0.532745 -3.556234 0.482008 0
M  V30 48 H -2.566159 -7.967832 -0.601626 0
M  V30 49 H -1.241020 -4.653698 -4.115240 0
M  V30 50 H -1.518970 -2.154262 -3.410189 0
M  V30 51 H -4.132484 -3.687560 3.210495 0
M  V30 52 H -4.619794 -5.205674 2.228029 0
M  V30 53 H -5.344189 -3.688027 0.387957 0
M  V30 54 H -4.874719 -2.175092 1.326651 0
M  V30 END ATOM
M  V30 BEGIN BOND
M  V30 1 1 1 2
M  V30 2 2 2 3
M  V30 3 1 3 4
M  V30 4 2 4 5
M  V30 5 1 5 6
M  V30 6 2 6 7
M  V30 7 1 6 8
M  V30 8 1 8 9
M  V30 9 2 9 10
M  V30 10 1 10 11
M  V30 11 2 11 12
M  V30 12 1 12 13
M  V30 13 1 12 14
M  V30 14 1 14 15
M  V30 15 1 15 16
M  V30 16 1 15 17
M  V30 17 1 15 18
M  V30 18 2 14 19
M  V30 19 1 5 20
M  V30 20 2 20 21
M  V30 21 1 21 22
M  V30 22 1 22 23
M  V30 23 2 23 24
M  V30 24 1 23 25
M  V30 25 1 25 26
M  V30 26 2 26 27
M  V30 27 1 27 28
M  V30 28 2 28 29
M  V30 29 1 29 30
M  V30 30 1 30 31
M  V30 31 1 31 32
M  V30 32 2 32 33
M  V30 33 1 33 34
M  V30 34 1 25 35
M  V30 35 1 35 36
M  V30 36 1 21 2
M  V30 37 1 36 25
M  V30 38 1 19 9
M  V30 39 1 34 26
M  V30 40 2 34 30
M  V30 41 1 1 37
M  V30 42 1 1 38
M  V30 43 1 1 39
M  V30 44 1 3 40
M  V30 45 1 4 41
M  V30 46 1 8 42
M  V30 47 1 10 43
M  V30 48 1 11 44
M  V30 49 1 19 45
M  V30 50 1 20 46
M  V30 51 1 22 47
M  V30 52 1 28 48
M  V30 53 1 31 49
M  V30 54 1 32 50
M  V30 55 1 35 51
M  V30 56 1 35 52
M  V30 57 1 36 53
M  V30 58 1 36 54
M  V30 END BOND
M  V30 END CTAB
M  END
>  <Dataset>  (217) 
ChEMBL_Kinases

>  <Ligand_Instance>  (217) 
nan

>  <PDB_ID>  (217) 
nan

>  <Standardized_SMILES>  (217) 
Cc1ccc(C(=O)Nc2ccc(Cl)c(C(F)(F)F)c2)cc1NC(=O)C1(c2ncnc3[nH]cnc23)CC1

>  <Name>  (217) 
nan

>  <Pocket>  (217) 
nan

>  <ATP_Site>  (217) 
nan

>  <Peripheral>  (217) 
nan

>  <Num_H_Atoms_ProtBoundConf>  (217) 
nan

>  <Num_Resolved_Atoms>  (217) 
nan

>  <Num_Not_Resolved_Atoms>  (217) 
nan

$$$$
CHEMBL4466525
     RDKit          3D

  0  0  0  0  0  0  0  0  0  0999 V3000
M  V30 BEGIN CTAB
M  V30 COUNTS 44 46 0 0 0
M  V30 BEGIN ATOM
M  V30 1 C 0.857270 -5.520238 3.152405 0
M  V30 2 C 0.923585 -5.686149 1.630186 0
M  V30 3 C -0.491469 -5.474691 1.113404 0
M  V30 4 C 1.866566 -4.703583 1.035880 0
M  V30 5 C 1.619096 -3.342596 1.236271 0
M  V30 6 C 2.638709 -2.679107 0.582716 0
M  V30 7 C 2.814482 -1.229089 0.506687 0
M  V30 8 C 3.893514 -0.723916 -0.190358 0
M  V30 9 C 4.121015 0.634055 -0.303012 0
M  V30 10 C 3.201608 1.481372 0.325944 0
M  V30 11 C 2.124254 0.968056 1.021660 0
M  V30 12 N 1.195119 1.880238 1.658796 0
M  V30 13 C 0.126463 2.251250 0.802109 0
M  V30 14 O 0.170504 1.734841 -0.337140 0
M  V30 15 N -0.918989 3.113237 1.133679 0
M  V30 16 C -2.025712 3.546810 0.362127 0
M  V30 17 C -2.304091 3.185072 -0.935379 0
M  V30 18 C -3.396452 3.634451 -1.646727 0
M  V30 19 C -4.276496 4.490288 -1.062471 0
M  V30 20 Cl -5.673872 5.083539 -1.929333 0
M  V30 21 C -4.026793 4.867101 0.224043 0
M  V30 22 Cl -5.110795 5.963960 1.043714 0
M  V30 23 C -2.929181 4.402968 0.909294 0
M  V30 24 C 1.908343 -0.393488 1.126583 0
M  V30 25 N 3.454812 -3.591016 0.020010 0
M  V30 26 N 2.978741 -4.788048 0.300816 0
M  V30 27 H 0.528231 -6.458565 3.630960 0
M  V30 28 H 1.837049 -5.186730 3.533932 0
M  V30 29 H 0.104761 -4.746819 3.433946 0
M  V30 30 H 1.236636 -6.722320 1.395222 0
M  V30 31 H -0.824724 -6.270477 0.424696 0
M  V30 32 H -0.513039 -4.512442 0.536986 0
M  V30 33 H -1.229631 -5.373800 1.928353 0
M  V30 34 H 0.815943 -2.819600 1.779775 0
M  V30 35 H 4.597013 -1.400104 -0.672380 0
M  V30 36 H 4.975985 0.998626 -0.856292 0
M  V30 37 H 3.350490 2.569321 0.257682 0
M  V30 38 H 1.212915 2.283570 2.632902 0
M  V30 39 H -0.820137 3.462650 2.112347 0
M  V30 40 H -1.646000 2.509288 -1.456170 0
M  V30 41 H -3.570304 3.319606 -2.665484 0
M  V30 42 H -2.774604 4.739100 1.946808 0
M  V30 43 H 1.055170 -0.749137 1.678926 0
M  V30 44 H 4.321901 -3.418302 -0.546525 0
M  V30 END ATOM
M  V30 BEGIN BOND
M  V30 1 1 1 2
M  V30 2 1 2 3
M  V30 3 1 2 4
M  V30 4 1 4 5
M  V30 5 2 5 6
M  V30 6 1 6 7
M  V30 7 2 7 8
M  V30 8 1 8 9
M  V30 9 2 9 10
M  V30 10 1 10 11
M  V30 11 1 11 12
M  V30 12 1 12 13
M  V30 13 2 13 14
M  V30 14 1 13 15
M  V30 15 1 15 16
M  V30 16 2 16 17
M  V30 17 1 17 18
M  V30 18 2 18 19
M  V30 19 1 19 20
M  V30 20 1 19 21
M  V30 21 1 21 22
M  V30 22 2 21 23
M  V30 23 2 11 24
M  V30 24 1 6 25
M  V30 25 1 25 26
M  V30 26 2 26 4
M  V30 27 1 24 7
M  V30 28 1 23 16
M  V30 29 1 1 27
M  V30 30 1 1 28
M  V30 31 1 1 29
M  V30 32 1 2 30
M  V30 33 1 3 31
M  V30 34 1 3 32
M  V30 35 1 3 33
M  V30 36 1 5 34
M  V30 37 1 8 35
M  V30 38 1 9 36
M  V30 39 1 10 37
M  V30 40 1 12 38
M  V30 41 1 15 39
M  V30 42 1 17 40
M  V30 43 1 18 41
M  V30 44 1 23 42
M  V30 45 1 24 43
M  V30 46 1 25 44
M  V30 END BOND
M  V30 END CTAB
M  END
>  <Dataset>  (218) 
ChEMBL_Kinases

>  <Ligand_Instance>  (218) 
nan

>  <PDB_ID>  (218) 
nan

>  <Standardized_SMILES>  (218) 
CC(C)c1cc(-c2cccc(NC(=O)Nc3ccc(Cl)c(Cl)c3)c2)[nH]n1

>  <Name>  (218) 
nan

>  <Pocket>  (218) 
nan

>  <ATP_Site>  (218) 
nan

>  <Peripheral>  (218) 
nan

>  <Num_H_Atoms_ProtBoundConf>  (218) 
nan

>  <Num_Resolved_Atoms>  (218) 
nan

>  <Num_Not_Resolved_Atoms>  (218) 
nan

$$$$
CHEMBL4466510
     RDKit          3D

  0  0  0  0  0  0  0  0  0  0999 V3000
M  V30 BEGIN CTAB
M  V30 COUNTS 45 48 0 0 0
M  V30 BEGIN ATOM
M  V30 1 N 2.029976 -5.223983 4.162686 0
M  V30 2 C 2.305035 -4.233778 3.662186 0
M  V30 3 C 2.634873 -2.967991 3.036090 0
M  V30 4 N 3.905367 -2.541093 3.206491 0
M  V30 5 C 4.291867 -1.377672 2.656695 0
M  V30 6 C 3.431149 -0.587202 1.912912 0
M  V30 7 N 3.786449 0.646595 1.300518 0
M  V30 8 C 2.811455 1.389356 0.579251 0
M  V30 9 N 2.576048 1.134213 -0.738102 0
M  V30 10 C 1.655168 1.840624 -1.421793 0
M  V30 11 C 0.937648 2.845985 -0.761794 0
M  V30 12 C -0.048933 3.627090 -1.434987 0
M  V30 13 C -0.467568 3.572562 -2.715224 0
M  V30 14 C -1.438039 4.417293 -3.177117 0
M  V30 15 C -1.962572 5.332749 -2.243945 0
M  V30 16 S -1.024913 4.962863 -0.646896 0
M  V30 17 C 1.182021 3.097985 0.572195 0
M  V30 18 N 2.112724 2.365900 1.215862 0
M  V30 19 C 2.154258 -1.073829 1.775659 0
M  V30 20 C 1.690591 -2.243120 2.303189 0
M  V30 21 O 0.449309 -2.822214 2.230502 0
M  V30 22 C -0.679988 -2.335526 1.582171 0
M  V30 23 C -1.127901 -3.159075 0.411438 0
M  V30 24 C -1.948495 -4.350913 0.721522 0
M  V30 25 C -2.874464 -4.195886 1.890951 0
M  V30 26 N -2.380508 -3.341327 2.919884 0
M  V30 27 C -1.842424 -2.091818 2.488921 0
M  V30 28 H 5.306022 -1.005143 2.774022 0
M  V30 29 H 4.797901 0.936075 1.431064 0
M  V30 30 H 1.402102 1.703575 -2.471744 0
M  V30 31 H -0.029033 2.840771 -3.407818 0
M  V30 32 H -1.858186 4.478004 -4.166048 0
M  V30 33 H -2.746197 6.105970 -2.383732 0
M  V30 34 H 0.652341 3.863109 1.116566 0
M  V30 35 H 1.439450 -0.504853 1.207777 0
M  V30 36 H -0.397514 -1.332282 1.148633 0
M  V30 37 H -0.183347 -3.527697 -0.086239 0
M  V30 38 H -1.613409 -2.505522 -0.349510 0
M  V30 39 H -1.339388 -5.283332 0.776806 0
M  V30 40 H -2.612670 -4.527434 -0.171053 0
M  V30 41 H -2.996682 -5.218530 2.332569 0
M  V30 42 H -3.901110 -3.911774 1.574229 0
M  V30 43 H -3.217111 -3.130611 3.542179 0
M  V30 44 H -2.597244 -1.464117 1.972120 0
M  V30 45 H -1.435222 -1.577000 3.391061 0
M  V30 END ATOM
M  V30 BEGIN BOND
M  V30 1 3 1 2
M  V30 2 1 2 3
M  V30 3 2 3 4
M  V30 4 1 4 5
M  V30 5 2 5 6
M  V30 6 1 6 7
M  V30 7 1 7 8
M  V30 8 2 8 9
M  V30 9 1 9 10
M  V30 10 2 10 11
M  V30 11 1 11 12
M  V30 12 2 12 13
M  V30 13 1 13 14
M  V30 14 2 14 15
M  V30 15 1 15 16
M  V30 16 1 11 17
M  V30 17 2 17 18
M  V30 18 1 6 19
M  V30 19 2 19 20
M  V30 20 1 20 21
M  V30 21 1 21 22
M  V30 22 1 22 23
M  V30 23 1 23 24
M  V30 24 1 24 25
M  V30 25 1 25 26
M  V30 26 1 26 27
M  V30 27 1 20 3
M  V30 28 1 27 22
M  V30 29 1 18 8
M  V30 30 1 16 12
M  V30 31 1 5 28
M  V30 32 1 7 29
M  V30 33 1 10 30
M  V30 34 1 13 31
M  V30 35 1 14 32
M  V30 36 1 15 33
M  V30 37 1 17 34
M  V30 38 1 19 35
M  V30 39 1 22 36
M  V30 40 1 23 37
M  V30 41 1 23 38
M  V30 42 1 24 39
M  V30 43 1 24 40
M  V30 44 1 25 41
M  V30 45 1 25 42
M  V30 46 1 26 43
M  V30 47 1 27 44
M  V30 48 1 27 45
M  V30 END BOND
M  V30 END CTAB
M  END
>  <Dataset>  (219) 
ChEMBL_Kinases

>  <Ligand_Instance>  (219) 
nan

>  <PDB_ID>  (219) 
nan

>  <Standardized_SMILES>  (219) 
N#Cc1ncc(Nc2ncc(-c3cccs3)cn2)cc1OC1CCCNC1

>  <Name>  (219) 
nan

>  <Pocket>  (219) 
nan

>  <ATP_Site>  (219) 
nan

>  <Peripheral>  (219) 
nan

>  <Num_H_Atoms_ProtBoundConf>  (219) 
nan

>  <Num_Resolved_Atoms>  (219) 
nan

>  <Num_Not_Resolved_Atoms>  (219) 
nan

$$$$
CHEMBL4466434
     RDKit          3D

  0  0  0  0  0  0  0  0  0  0999 V3000
M  V30 BEGIN CTAB
M  V30 COUNTS 53 56 0 0 0
M  V30 BEGIN ATOM
M  V30 1 C 1.562119 -3.228967 3.661189 0
M  V30 2 N 0.695574 -3.744999 2.623450 0
M  V30 3 C 0.805553 -3.346757 1.265332 0
M  V30 4 N 1.775567 -2.465584 0.966772 0
M  V30 5 C 1.969805 -2.037173 -0.293721 0
M  V30 6 N 2.975650 -1.116652 -0.635644 0
M  V30 7 C 2.832498 0.297310 -0.653536 0
M  V30 8 C 3.917875 1.065344 -1.012631 0
M  V30 9 N 3.786040 2.402669 -1.030562 0
M  V30 10 C 2.629017 3.001830 -0.708757 0
M  V30 11 C 2.537302 4.421828 -0.742358 0
M  V30 12 N 2.482668 5.564714 -0.775462 0
M  V30 13 C 1.485966 2.342608 -0.337015 0
M  V30 14 O 0.246201 2.677248 0.021027 0
M  V30 15 C -0.464081 3.816273 0.185695 0
M  V30 16 C -1.005494 3.988303 1.620111 0
M  V30 17 C -1.791610 2.764706 1.963713 0
M  V30 18 C -2.266994 1.983219 0.783543 0
M  V30 19 N -2.515941 2.722630 -0.404452 0
M  V30 20 C -1.740577 3.874024 -0.655539 0
M  V30 21 C 1.639271 0.943058 -0.322867 0
M  V30 22 N 1.159372 -2.513577 -1.282471 0
M  V30 23 C 0.198483 -3.391173 -0.962740 0
M  V30 24 C -0.042573 -3.861764 0.312263 0
M  V30 25 C -1.110638 -4.804747 0.600903 0
M  V30 26 C -1.043345 -5.875829 -0.297975 0
M  V30 27 C -1.974250 -6.919004 -0.229493 0
M  V30 28 C -2.964801 -6.908550 0.716995 0
M  V30 29 C -3.008732 -5.842323 1.589697 0
M  V30 30 F -3.935754 -5.684617 2.590728 0
M  V30 31 C -2.112668 -4.807217 1.547688 0
M  V30 32 H 0.918654 -2.633100 4.354451 0
M  V30 33 H 2.385550 -2.610760 3.241220 0
M  V30 34 H 2.041307 -4.018584 4.269895 0
M  V30 35 H 0.056923 -4.408421 3.100923 0
M  V30 36 H 3.869623 -1.565054 -0.885003 0
M  V30 37 H 4.883608 0.686260 -1.286446 0
M  V30 38 H 0.054523 4.771352 -0.009641 0
M  V30 39 H -1.708132 4.845837 1.562652 0
M  V30 40 H -0.215357 4.255557 2.327454 0
M  V30 41 H -2.608747 2.979740 2.676088 0
M  V30 42 H -1.077646 2.091541 2.518584 0
M  V30 43 H -3.238308 1.492598 1.086736 0
M  V30 44 H -1.591263 1.136498 0.527635 0
M  V30 45 H -3.495912 2.752394 -0.714382 0
M  V30 46 H -1.466214 4.019375 -1.709953 0
M  V30 47 H -2.291207 4.787798 -0.291940 0
M  V30 48 H 0.868592 0.220037 -0.060245 0
M  V30 49 H -0.413758 -3.734101 -1.790627 0
M  V30 50 H -0.332202 -6.036508 -1.096886 0
M  V30 51 H -1.976061 -7.772141 -0.892958 0
M  V30 52 H -3.733506 -7.654014 0.864121 0
M  V30 53 H -2.065907 -3.937120 2.172043 0
M  V30 END ATOM
M  V30 BEGIN BOND
M  V30 1 1 1 2
M  V30 2 1 2 3
M  V30 3 2 3 4
M  V30 4 1 4 5
M  V30 5 1 5 6
M  V30 6 1 6 7
M  V30 7 2 7 8
M  V30 8 1 8 9
M  V30 9 2 9 10
M  V30 10 1 10 11
M  V30 11 3 11 12
M  V30 12 1 10 13
M  V30 13 1 13 14
M  V30 14 1 14 15
M  V30 15 1 15 16
M  V30 16 1 16 17
M  V30 17 1 17 18
M  V30 18 1 18 19
M  V30 19 1 19 20
M  V30 20 2 13 21
M  V30 21 2 5 22
M  V30 22 1 22 23
M  V30 23 2 23 24
M  V30 24 1 24 25
M  V30 25 2 25 26
M  V30 26 1 26 27
M  V30 27 2 27 28
M  V30 28 1 28 29
M  V30 29 1 29 30
M  V30 30 2 29 31
M  V30 31 1 24 3
M  V30 32 1 31 25
M  V30 33 1 21 7
M  V30 34 1 20 15
M  V30 35 1 1 32
M  V30 36 1 1 33
M  V30 37 1 1 34
M  V30 38 1 2 35
M  V30 39 1 6 36
M  V30 40 1 8 37
M  V30 41 1 15 38
M  V30 42 1 16 39
M  V30 43 1 16 40
M  V30 44 1 17 41
M  V30 45 1 17 42
M  V30 46 1 18 43
M  V30 47 1 18 44
M  V30 48 1 19 45
M  V30 49 1 20 46
M  V30 50 1 20 47
M  V30 51 1 21 48
M  V30 52 1 23 49
M  V30 53 1 26 50
M  V30 54 1 27 51
M  V30 55 1 28 52
M  V30 56 1 31 53
M  V30 END BOND
M  V30 END CTAB
M  END
>  <Dataset>  (220) 
ChEMBL_Kinases

>  <Ligand_Instance>  (220) 
nan

>  <PDB_ID>  (220) 
nan

>  <Standardized_SMILES>  (220) 
CNc1nc(Nc2cnc(C#N)c(OC3CCCNC3)c2)ncc1-c1cccc(F)c1

>  <Name>  (220) 
nan

>  <Pocket>  (220) 
nan

>  <ATP_Site>  (220) 
nan

>  <Peripheral>  (220) 
nan

>  <Num_H_Atoms_ProtBoundConf>  (220) 
nan

>  <Num_Resolved_Atoms>  (220) 
nan

>  <Num_Not_Resolved_Atoms>  (220) 
nan

$$$$
CHEMBL446640
     RDKit          3D

  0  0  0  0  0  0  0  0  0  0999 V3000
M  V30 BEGIN CTAB
M  V30 COUNTS 31 32 0 0 0
M  V30 BEGIN ATOM
M  V30 1 C -4.220959 -5.112165 0.250673 0
M  V30 2 O -4.015532 -3.724658 0.558992 0
M  V30 3 C -2.773814 -3.137461 0.515854 0
M  V30 4 C -2.638513 -1.801495 0.821878 0
M  V30 5 C -1.356461 -1.323295 0.746050 0
M  V30 6 C -0.220498 -2.017307 0.405822 0
M  V30 7 C 1.133430 -1.514945 0.324987 0
M  V30 8 O 2.011075 -2.393645 -0.021400 0
M  V30 9 C 1.811889 -0.264556 0.528251 0
M  V30 10 C 1.539529 0.970449 0.870646 0
M  V30 11 C 2.358602 2.139271 1.032871 0
M  V30 12 C 1.796394 3.338291 1.410087 0
M  V30 13 C 2.610333 4.436899 1.555931 0
M  V30 14 N 3.932392 4.413147 1.351402 0
M  V30 15 C 4.530862 3.256477 0.979073 0
M  V30 16 C 3.710397 2.155862 0.833721 0
M  V30 17 C -0.466078 -3.342292 0.119063 0
M  V30 18 C -1.706761 -3.928292 0.162344 0
M  V30 19 H -3.727910 -5.286856 -0.738413 0
M  V30 20 H -5.289618 -5.337459 0.149927 0
M  V30 21 H -3.707815 -5.760087 0.980658 0
M  V30 22 H -3.481414 -1.185477 1.099018 0
M  V30 23 H -1.276262 -0.280630 0.988710 0
M  V30 24 H 2.905107 -0.220382 0.374748 0
M  V30 25 H 0.481086 1.088825 1.058593 0
M  V30 26 H 0.721698 3.415425 1.590465 0
M  V30 27 H 2.121229 5.354574 1.853476 0
M  V30 28 H 5.599459 3.238795 0.814125 0
M  V30 29 H 4.250204 1.271435 0.536669 0
M  V30 30 H 0.348377 -3.997652 -0.163409 0
M  V30 31 H -1.825793 -4.975109 -0.075347 0
M  V30 END ATOM
M  V30 BEGIN BOND
M  V30 1 1 1 2
M  V30 2 1 2 3
M  V30 3 2 3 4
M  V30 4 1 4 5
M  V30 5 2 5 6
M  V30 6 1 6 7
M  V30 7 2 7 8
M  V30 8 1 7 9
M  V30 9 2 9 10
M  V30 10 1 10 11
M  V30 11 2 11 12
M  V30 12 1 12 13
M  V30 13 2 13 14
M  V30 14 1 14 15
M  V30 15 2 15 16
M  V30 16 1 6 17
M  V30 17 2 17 18
M  V30 18 1 18 3
M  V30 19 1 16 11
M  V30 20 1 1 19
M  V30 21 1 1 20
M  V30 22 1 1 21
M  V30 23 1 4 22
M  V30 24 1 5 23
M  V30 25 1 9 24
M  V30 26 1 10 25
M  V30 27 1 12 26
M  V30 28 1 13 27
M  V30 29 1 15 28
M  V30 30 1 16 29
M  V30 31 1 17 30
M  V30 32 1 18 31
M  V30 END BOND
M  V30 END CTAB
M  END
>  <Dataset>  (221) 
ChEMBL_Kinases

>  <Ligand_Instance>  (221) 
nan

>  <PDB_ID>  (221) 
nan

>  <Standardized_SMILES>  (221) 
COc1ccc(C(=O)/C=C/c2ccncc2)cc1

>  <Name>  (221) 
nan

>  <Pocket>  (221) 
nan

>  <ATP_Site>  (221) 
nan

>  <Peripheral>  (221) 
nan

>  <Num_H_Atoms_ProtBoundConf>  (221) 
nan

>  <Num_Resolved_Atoms>  (221) 
nan

>  <Num_Not_Resolved_Atoms>  (221) 
nan

$$$$
CHEMBL4466297
     RDKit          3D

  0  0  0  0  0  0  0  0  0  0999 V3000
M  V30 BEGIN CTAB
M  V30 COUNTS 53 56 0 0 0
M  V30 BEGIN ATOM
M  V30 1 C 4.208819 -1.452430 6.612354 0
M  V30 2 N 4.542166 -1.254629 5.197809 0
M  V30 3 C 3.934937 -0.212758 4.480246 0
M  V30 4 O 3.129875 0.486608 5.131059 0
M  V30 5 C 4.300960 -0.060258 3.079033 0
M  V30 6 C 3.659737 0.982853 2.455272 0
M  V30 7 C 3.846249 1.317823 1.135021 0
M  V30 8 O 3.424070 2.221510 0.206181 0
M  V30 9 C 2.476610 2.040313 -0.753401 0
M  V30 10 C 3.106293 2.192245 -2.001331 0
M  V30 11 C 2.402803 2.065274 -3.205617 0
M  V30 12 C 1.045391 1.781866 -3.187212 0
M  V30 13 C 0.421116 1.632097 -1.967273 0
M  V30 14 N -0.880941 1.363848 -1.793613 0
M  V30 15 C -1.458640 1.230098 -0.583244 0
M  V30 16 N -2.856337 0.942817 -0.462017 0
M  V30 17 C -3.362466 -0.400627 -0.412379 0
M  V30 18 O -2.493131 -1.320226 -0.482717 0
M  V30 19 N -4.760326 -0.672042 -0.291190 0
M  V30 20 C -5.012523 -2.074420 -0.263079 0
M  V30 21 C -4.997982 -2.599810 1.029360 0
M  V30 22 C -5.220085 -3.936608 1.271439 0
M  V30 23 C -5.463710 -4.785143 0.218273 0
M  V30 24 Cl -5.749494 -6.491089 0.499561 0
M  V30 25 C -5.478375 -4.262672 -1.069391 0
M  V30 26 C -5.736964 -5.147811 -2.220306 0
M  V30 27 F -5.715362 -4.468459 -3.416396 0
M  V30 28 F -6.920720 -5.866823 -2.047089 0
M  V30 29 F -4.730655 -6.121673 -2.179350 0
M  V30 30 C -5.257073 -2.927471 -1.317506 0
M  V30 31 C -0.734748 1.362675 0.606169 0
M  V30 32 C 0.604967 1.638246 0.444864 0
M  V30 33 C 1.131295 1.761560 -0.820466 0
M  V30 34 C 4.762850 0.498736 0.448774 0
M  V30 35 C 5.421442 -0.567606 1.078484 0
M  V30 36 N 5.173685 -0.826517 2.392687 0
M  V30 37 H 3.132320 -1.707615 6.692224 0
M  V30 38 H 4.829799 -2.248080 7.048699 0
M  V30 39 H 4.340541 -0.483428 7.120814 0
M  V30 40 H 5.235719 -1.903841 4.746874 0
M  V30 41 H 2.941401 1.693774 2.869022 0
M  V30 42 H 4.152995 2.414542 -2.237339 0
M  V30 43 H 2.800766 2.164480 -4.193375 0
M  V30 44 H 0.408251 1.662835 -4.051018 0
M  V30 45 H -3.521705 1.763647 -0.408729 0
M  V30 46 H -5.400642 0.141042 -0.240008 0
M  V30 47 H -4.814416 -2.009845 1.928301 0
M  V30 48 H -5.211554 -4.356871 2.268803 0
M  V30 49 H -5.251274 -2.446481 -2.276007 0
M  V30 50 H -1.242236 1.247025 1.548257 0
M  V30 51 H 1.157399 1.747112 1.360930 0
M  V30 52 H 5.127670 0.499722 -0.592730 0
M  V30 53 H 6.137297 -1.261497 0.669875 0
M  V30 END ATOM
M  V30 BEGIN BOND
M  V30 1 1 1 2
M  V30 2 1 2 3
M  V30 3 2 3 4
M  V30 4 1 3 5
M  V30 5 2 5 6
M  V30 6 1 6 7
M  V30 7 1 7 8
M  V30 8 1 8 9
M  V30 9 2 9 10
M  V30 10 1 10 11
M  V30 11 2 11 12
M  V30 12 1 12 13
M  V30 13 2 13 14
M  V30 14 1 14 15
M  V30 15 1 15 16
M  V30 16 1 16 17
M  V30 17 2 17 18
M  V30 18 1 17 19
M  V30 19 1 19 20
M  V30 20 2 20 21
M  V30 21 1 21 22
M  V30 22 2 22 23
M  V30 23 1 23 24
M  V30 24 1 23 25
M  V30 25 1 25 26
M  V30 26 1 26 27
M  V30 27 1 26 28
M  V30 28 1 26 29
M  V30 29 2 25 30
M  V30 30 2 15 31
M  V30 31 1 31 32
M  V30 32 2 32 33
M  V30 33 2 7 34
M  V30 34 1 34 35
M  V30 35 2 35 36
M  V30 36 1 36 5
M  V30 37 1 33 9
M  V30 38 1 33 13
M  V30 39 1 30 20
M  V30 40 1 1 37
M  V30 41 1 1 38
M  V30 42 1 1 39
M  V30 43 1 2 40
M  V30 44 1 6 41
M  V30 45 1 10 42
M  V30 46 1 11 43
M  V30 47 1 12 44
M  V30 48 1 16 45
M  V30 49 1 19 46
M  V30 50 1 21 47
M  V30 51 1 22 48
M  V30 52 1 30 49
M  V30 53 1 31 50
M  V30 54 1 32 51
M  V30 55 1 34 52
M  V30 56 1 35 53
M  V30 END BOND
M  V30 END CTAB
M  END
>  <Dataset>  (222) 
ChEMBL_Kinases

>  <Ligand_Instance>  (222) 
nan

>  <PDB_ID>  (222) 
nan

>  <Standardized_SMILES>  (222) 
CNC(=O)c1cc(Oc2cccc3nc(NC(=O)Nc4ccc(Cl)c(C(F)(F)F)c4)ccc23)ccn1

>  <Name>  (222) 
nan

>  <Pocket>  (222) 
nan

>  <ATP_Site>  (222) 
nan

>  <Peripheral>  (222) 
nan

>  <Num_H_Atoms_ProtBoundConf>  (222) 
nan

>  <Num_Resolved_Atoms>  (222) 
nan

>  <Num_Not_Resolved_Atoms>  (222) 
nan

$$$$
CHEMBL4466294
     RDKit          3D

  0  0  0  0  0  0  0  0  0  0999 V3000
M  V30 BEGIN CTAB
M  V30 COUNTS 58 61 0 0 0
M  V30 BEGIN ATOM
M  V30 1 C 0.344460 -1.592602 5.895329 0
M  V30 2 C 1.786479 -2.047547 5.760260 0
M  V30 3 O 2.634790 -1.020038 5.303626 0
M  V30 4 C 2.382079 -0.457203 4.067144 0
M  V30 5 C 3.314150 0.528827 3.805377 0
M  V30 6 C 3.316704 1.271677 2.638437 0
M  V30 7 C 2.356491 1.044848 1.663965 0
M  V30 8 C 2.120788 1.657682 0.393952 0
M  V30 9 O 1.753098 2.859915 0.636739 0
M  V30 10 N 2.253828 1.088457 -0.868741 0
M  V30 11 C 2.686868 -0.274978 -0.932234 0
M  V30 12 C 1.616712 -1.127550 -1.534131 0
M  V30 13 C 0.682273 -0.388308 -2.460160 0
M  V30 14 C -0.444424 0.276726 -1.782971 0
M  V30 15 N -0.550859 1.575617 -1.479654 0
M  V30 16 C -1.578177 2.174947 -0.880160 0
M  V30 17 N -2.635471 1.420277 -0.531463 0
M  V30 18 C -2.666892 0.100034 -0.774571 0
M  V30 19 C -3.777106 -0.658818 -0.394741 0
M  V30 20 C -3.801135 -2.014858 -0.641451 0
M  V30 21 O -4.941999 -2.694774 -0.231051 0
M  V30 22 C -5.980193 -1.990869 0.400302 0
M  V30 23 C -2.726665 -2.607832 -1.261550 0
M  V30 24 O -2.793613 -3.961404 -1.487545 0
M  V30 25 C -1.777733 -4.717100 -2.113539 0
M  V30 26 C -1.656343 -1.818900 -1.617002 0
M  V30 27 C -1.562712 -0.461196 -1.402363 0
M  V30 28 C 1.533307 0.650620 -3.182010 0
M  V30 29 C 2.024441 1.642493 -2.186185 0
M  V30 30 C 1.421263 0.047807 1.937190 0
M  V30 31 C 1.416062 -0.695808 3.102685 0
M  V30 32 H -0.374237 -2.230559 5.347514 0
M  V30 33 H 0.016142 -1.635269 6.976702 0
M  V30 34 H 0.226841 -0.552470 5.531224 0
M  V30 35 H 1.775745 -2.827459 4.970310 0
M  V30 36 H 2.152415 -2.510183 6.705135 0
M  V30 37 H 4.142792 0.853779 4.436936 0
M  V30 38 H 4.001277 2.057131 2.351405 0
M  V30 39 H 3.568963 -0.316501 -1.632112 0
M  V30 40 H 3.079820 -0.663686 0.022065 0
M  V30 41 H 2.058790 -1.974226 -2.138398 0
M  V30 42 H 1.062348 -1.673834 -0.720982 0
M  V30 43 H 0.329996 -1.070101 -3.268670 0
M  V30 44 H -1.438289 3.225738 -0.736185 0
M  V30 45 H -4.572628 -0.085774 0.090206 0
M  V30 46 H -5.622200 -1.363205 1.269237 0
M  V30 47 H -6.517506 -1.296021 -0.287746 0
M  V30 48 H -6.719360 -2.702526 0.818481 0
M  V30 49 H -1.861275 -4.606103 -3.229404 0
M  V30 50 H -1.904312 -5.794259 -1.912608 0
M  V30 51 H -0.762537 -4.413356 -1.759332 0
M  V30 52 H -0.837221 -2.328414 -2.103726 0
M  V30 53 H 2.391447 0.091342 -3.662870 0
M  V30 54 H 0.945071 1.153718 -3.981839 0
M  V30 55 H 1.457757 2.596937 -2.173851 0
M  V30 56 H 3.054113 1.954542 -2.543960 0
M  V30 57 H 0.592739 -0.265103 1.286401 0
M  V30 58 H 0.747446 -1.472129 3.389850 0
M  V30 END ATOM
M  V30 BEGIN BOND
M  V30 1 1 1 2
M  V30 2 1 2 3
M  V30 3 1 3 4
M  V30 4 2 4 5
M  V30 5 1 5 6
M  V30 6 2 6 7
M  V30 7 1 7 8
M  V30 8 2 8 9
M  V30 9 1 8 10
M  V30 10 1 10 11
M  V30 11 1 11 12
M  V30 12 1 12 13
M  V30 13 1 13 14
M  V30 14 2 14 15
M  V30 15 1 15 16
M  V30 16 2 16 17
M  V30 17 1 17 18
M  V30 18 2 18 19
M  V30 19 1 19 20
M  V30 20 1 20 21
M  V30 21 1 21 22
M  V30 22 2 20 23
M  V30 23 1 23 24
M  V30 24 1 24 25
M  V30 25 1 23 26
M  V30 26 2 26 27
M  V30 27 1 13 28
M  V30 28 1 28 29
M  V30 29 1 7 30
M  V30 30 2 30 31
M  V30 31 1 31 4
M  V30 32 1 29 10
M  V30 33 1 27 14
M  V30 34 1 27 18
M  V30 35 1 1 32
M  V30 36 1 1 33
M  V30 37 1 1 34
M  V30 38 1 2 35
M  V30 39 1 2 36
M  V30 40 1 5 37
M  V30 41 1 6 38
M  V30 42 1 11 39
M  V30 43 1 11 40
M  V30 44 1 12 41
M  V30 45 1 12 42
M  V30 46 1 13 43
M  V30 47 1 16 44
M  V30 48 1 19 45
M  V30 49 1 22 46
M  V30 50 1 22 47
M  V30 51 1 22 48
M  V30 52 1 25 49
M  V30 53 1 25 50
M  V30 54 1 25 51
M  V30 55 1 26 52
M  V30 56 1 28 53
M  V30 57 1 28 54
M  V30 58 1 29 55
M  V30 59 1 29 56
M  V30 60 1 30 57
M  V30 61 1 31 58
M  V30 END BOND
M  V30 END CTAB
M  END
>  <Dataset>  (223) 
ChEMBL_Kinases

>  <Ligand_Instance>  (223) 
nan

>  <PDB_ID>  (223) 
nan

>  <Standardized_SMILES>  (223) 
CCOc1ccc(C(=O)N2CCC(c3ncnc4cc(OC)c(OC)cc34)CC2)cc1

>  <Name>  (223) 
nan

>  <Pocket>  (223) 
nan

>  <ATP_Site>  (223) 
nan

>  <Peripheral>  (223) 
nan

>  <Num_H_Atoms_ProtBoundConf>  (223) 
nan

>  <Num_Resolved_Atoms>  (223) 
nan

>  <Num_Not_Resolved_Atoms>  (223) 
nan

$$$$
CHEMBL4466285
     RDKit          3D

  0  0  0  0  0  0  0  0  0  0999 V3000
M  V30 BEGIN CTAB
M  V30 COUNTS 42 45 0 0 0
M  V30 BEGIN ATOM
M  V30 1 C -1.460435 -5.333401 0.731613 0
M  V30 2 C -0.610952 -5.196804 1.959841 0
M  V30 3 C 0.607858 -4.292781 1.739689 0
M  V30 4 N 0.310513 -2.961695 1.392376 0
M  V30 5 C 0.035698 -1.617883 1.038126 0
M  V30 6 N 0.895756 -0.704599 0.574583 0
M  V30 7 C 0.640542 0.540744 0.201436 0
M  V30 8 C 1.688820 1.430732 -0.288714 0
M  V30 9 C 2.225611 1.719908 -1.528409 0
M  V30 10 C 1.711071 1.038784 -2.738036 0
M  V30 11 N 3.189951 2.645167 -1.346827 0
M  V30 12 C 3.301459 2.968199 -0.043341 0
M  V30 13 N 4.146818 3.848486 0.526564 0
M  V30 14 C 4.086893 4.017713 1.861185 0
M  V30 15 C 3.178172 3.305811 2.639828 0
M  V30 16 C 2.327507 2.412533 2.022020 0
M  V30 17 C 2.359168 2.209366 0.641589 0
M  V30 18 N -0.641185 0.881340 0.319437 0
M  V30 19 C -1.630168 0.096225 0.764221 0
M  V30 20 C -2.875592 0.672295 0.807783 0
M  V30 21 N -3.876311 -0.129889 1.274641 0
M  V30 22 C -3.634496 -1.395496 1.660439 0
M  V30 23 C -2.353230 -1.886707 1.580750 0
M  V30 24 C -1.264737 -1.178759 1.127730 0
M  V30 25 H -1.353047 -6.326151 0.240464 0
M  V30 26 H -2.534857 -5.247618 1.023463 0
M  V30 27 H -1.242243 -4.551920 -0.038339 0
M  V30 28 H -0.267398 -6.215622 2.231502 0
M  V30 29 H -1.171708 -4.824902 2.818681 0
M  V30 30 H 1.257813 -4.867660 1.019945 0
M  V30 31 H 1.148608 -4.381947 2.733801 0
M  V30 32 H 1.371060 -2.888439 1.252914 0
M  V30 33 H 2.284079 1.405973 -3.633185 0
M  V30 34 H 1.817977 -0.047983 -2.601784 0
M  V30 35 H 0.655940 1.324462 -2.922964 0
M  V30 36 H 3.744283 3.023899 -2.151484 0
M  V30 37 H 4.725322 4.701591 2.404805 0
M  V30 38 H 3.117712 3.430697 3.714152 0
M  V30 39 H 1.604763 1.836524 2.583112 0
M  V30 40 H -3.043237 1.689701 0.492804 0
M  V30 41 H -4.430200 -2.050880 2.038151 0
M  V30 42 H -2.178703 -2.891561 1.907154 0
M  V30 END ATOM
M  V30 BEGIN BOND
M  V30 1 1 1 2
M  V30 2 1 2 3
M  V30 3 1 3 4
M  V30 4 1 4 5
M  V30 5 2 5 6
M  V30 6 1 6 7
M  V30 7 1 7 8
M  V30 8 2 8 9
M  V30 9 1 9 10
M  V30 10 1 9 11
M  V30 11 1 11 12
M  V30 12 2 12 13
M  V30 13 1 13 14
M  V30 14 2 14 15
M  V30 15 1 15 16
M  V30 16 2 16 17
M  V30 17 2 7 18
M  V30 18 1 18 19
M  V30 19 2 19 20
M  V30 20 1 20 21
M  V30 21 2 21 22
M  V30 22 1 22 23
M  V30 23 2 23 24
M  V30 24 1 24 5
M  V30 25 1 17 8
M  V30 26 1 24 19
M  V30 27 1 17 12
M  V30 28 1 1 25
M  V30 29 1 1 26
M  V30 30 1 1 27
M  V30 31 1 2 28
M  V30 32 1 2 29
M  V30 33 1 3 30
M  V30 34 1 3 31
M  V30 35 1 4 32
M  V30 36 1 10 33
M  V30 37 1 10 34
M  V30 38 1 10 35
M  V30 39 1 11 36
M  V30 40 1 14 37
M  V30 41 1 15 38
M  V30 42 1 16 39
M  V30 43 1 20 40
M  V30 44 1 22 41
M  V30 45 1 23 42
M  V30 END BOND
M  V30 END CTAB
M  END
>  <Dataset>  (224) 
ChEMBL_Kinases

>  <Ligand_Instance>  (224) 
nan

>  <PDB_ID>  (224) 
nan

>  <Standardized_SMILES>  (224) 
CCCNc1nc(-c2c(C)[nH]c3ncccc23)nc2cnccc12

>  <Name>  (224) 
nan

>  <Pocket>  (224) 
nan

>  <ATP_Site>  (224) 
nan

>  <Peripheral>  (224) 
nan

>  <Num_H_Atoms_ProtBoundConf>  (224) 
nan

>  <Num_Resolved_Atoms>  (224) 
nan

>  <Num_Not_Resolved_Atoms>  (224) 
nan

$$$$
CHEMBL4466246
     RDKit          3D

  0  0  0  0  0  0  0  0  0  0999 V3000
M  V30 BEGIN CTAB
M  V30 COUNTS 30 31 0 0 0
M  V30 BEGIN ATOM
M  V30 1 C -0.678737 -1.179598 3.842710 0
M  V30 2 C -1.479612 -2.063441 3.276604 0
M  V30 3 C -1.197369 -3.389296 2.615404 0
M  V30 4 N -1.643130 -3.362761 1.213408 0
M  V30 5 C -1.047483 -2.397783 0.390724 0
M  V30 6 S 0.202790 -1.242260 1.002823 0
M  V30 7 C 0.389287 -0.420858 -0.648625 0
M  V30 8 C 1.307778 0.687462 -0.895416 0
M  V30 9 O 1.327733 1.141900 -2.055813 0
M  V30 10 C 2.099367 1.159416 0.188874 0
M  V30 11 C 3.018375 2.186827 0.161153 0
M  V30 12 C 3.678859 2.484767 1.323010 0
M  V30 13 C 3.359286 1.699736 2.480367 0
M  V30 14 Cl 4.132628 1.956945 4.086613 0
M  V30 15 S 2.095716 0.546767 1.821818 0
M  V30 16 C -0.504202 -1.094507 -1.494559 0
M  V30 17 N -0.558204 -0.651527 -2.844433 0
M  V30 18 C -1.221099 -2.106242 -0.907994 0
M  V30 19 C -2.180357 -2.874213 -1.696146 0
M  V30 20 N -2.947965 -3.512804 -2.326440 0
M  V30 21 H -0.497923 -0.244349 4.357259 0
M  V30 22 H 0.219113 -0.695333 4.211119 0
M  V30 23 H -2.489010 -1.684010 3.348143 0
M  V30 24 H -0.113803 -3.565705 2.697792 0
M  V30 25 H -1.812161 -4.120376 3.170732 0
M  V30 26 H -2.349761 -3.981606 0.772037 0
M  V30 27 H 3.205171 2.733921 -0.752081 0
M  V30 28 H 4.416828 3.270322 1.406633 0
M  V30 29 H -0.764034 0.348230 -3.083247 0
M  V30 30 H -0.765210 0.353234 -3.079566 0
M  V30 END ATOM
M  V30 BEGIN BOND
M  V30 1 2 1 2
M  V30 2 1 2 3
M  V30 3 1 3 4
M  V30 4 1 4 5
M  V30 5 1 5 6
M  V30 6 1 6 7
M  V30 7 1 7 8
M  V30 8 2 8 9
M  V30 9 1 8 10
M  V30 10 2 10 11
M  V30 11 1 11 12
M  V30 12 2 12 13
M  V30 13 1 13 14
M  V30 14 1 13 15
M  V30 15 2 7 16
M  V30 16 1 16 17
M  V30 17 1 16 18
M  V30 18 1 18 19
M  V30 19 3 19 20
M  V30 20 2 18 5
M  V30 21 1 15 10
M  V30 22 1 1 21
M  V30 23 1 1 22
M  V30 24 1 2 23
M  V30 25 1 3 24
M  V30 26 1 3 25
M  V30 27 1 4 26
M  V30 28 1 11 27
M  V30 29 1 12 28
M  V30 30 1 17 29
M  V30 31 1 17 30
M  V30 END BOND
M  V30 END CTAB
M  END
>  <Dataset>  (225) 
ChEMBL_Kinases

>  <Ligand_Instance>  (225) 
nan

>  <PDB_ID>  (225) 
nan

>  <Standardized_SMILES>  (225) 
C=CCNc1sc(C(=O)c2ccc(Cl)s2)c(N)c1C#N

>  <Name>  (225) 
nan

>  <Pocket>  (225) 
nan

>  <ATP_Site>  (225) 
nan

>  <Peripheral>  (225) 
nan

>  <Num_H_Atoms_ProtBoundConf>  (225) 
nan

>  <Num_Resolved_Atoms>  (225) 
nan

>  <Num_Not_Resolved_Atoms>  (225) 
nan

$$$$
CHEMBL472566
     RDKit          3D

  0  0  0  0  0  0  0  0  0  0999 V3000
M  V30 BEGIN CTAB
M  V30 COUNTS 16 17 0 0 0
M  V30 BEGIN ATOM
M  V30 1 N -1.924658 -1.110740 1.682662 0
M  V30 2 C -0.588467 -0.730901 1.369862 0
M  V30 3 N 0.594053 -1.395953 1.317376 0
M  V30 4 C 1.571019 -0.531670 0.957233 0
M  V30 5 C 2.932607 -0.749017 0.773919 0
M  V30 6 C 3.654357 0.361970 0.402003 0
M  V30 7 Cl 5.373390 0.147417 0.157224 0
M  V30 8 C 3.108440 1.615701 0.214108 0
M  V30 9 C 1.748436 1.735767 0.418943 0
M  V30 10 C 0.921542 0.695562 0.792922 0
M  V30 11 O -0.348499 0.538968 1.044430 0
M  V30 12 H -2.411089 -0.778867 2.544467 0
M  V30 13 H -2.181083 -1.735753 0.864418 0
M  V30 14 H 3.340438 -1.721259 0.922261 0
M  V30 15 H 3.673873 2.488723 -0.077850 0
M  V30 16 H 1.243552 2.705831 0.287571 0
M  V30 END ATOM
M  V30 BEGIN BOND
M  V30 1 1 1 2
M  V30 2 2 2 3
M  V30 3 1 3 4
M  V30 4 2 4 5
M  V30 5 1 5 6
M  V30 6 1 6 7
M  V30 7 2 6 8
M  V30 8 1 8 9
M  V30 9 2 9 10
M  V30 10 1 10 11
M  V30 11 1 11 2
M  V30 12 1 10 4
M  V30 13 1 1 12
M  V30 14 1 1 13
M  V30 15 1 5 14
M  V30 16 1 8 15
M  V30 17 1 9 16
M  V30 END BOND
M  V30 END CTAB
M  END
>  <Dataset>  (226) 
ChEMBL_Kinases

>  <Ligand_Instance>  (226) 
nan

>  <PDB_ID>  (226) 
nan

>  <Standardized_SMILES>  (226) 
Nc1nc2cc(Cl)ccc2o1

>  <Name>  (226) 
ZOXAZOLAMINE

>  <Pocket>  (226) 
nan

>  <ATP_Site>  (226) 
nan

>  <Peripheral>  (226) 
nan

>  <Num_H_Atoms_ProtBoundConf>  (226) 
nan

>  <Num_Resolved_Atoms>  (226) 
nan

>  <Num_Not_Resolved_Atoms>  (226) 
nan

$$$$
CHEMBL472687
     RDKit          3D

  0  0  0  0  0  0  0  0  0  0999 V3000
M  V30 BEGIN CTAB
M  V30 COUNTS 58 63 0 0 0
M  V30 BEGIN ATOM
M  V30 1 C 0.769797 -2.569713 -0.252520 0
M  V30 2 N -0.130326 -1.701594 0.468519 0
M  V30 3 C 0.157542 -0.747458 1.372522 0
M  V30 4 C 1.415462 -0.401551 1.800887 0
M  V30 5 C 1.672601 0.580179 2.726728 0
M  V30 6 O 2.737614 1.126259 3.319003 0
M  V30 7 C 4.088869 1.037320 3.318778 0
M  V30 8 C 4.871150 1.398856 2.088778 0
M  V30 9 C 4.602530 0.642574 0.855151 0
M  V30 10 N 5.432915 1.045024 -0.270217 0
M  V30 11 C 5.215117 1.983952 -1.212831 0
M  V30 12 C 6.265002 2.045207 -2.105268 0
M  V30 13 C 7.146701 1.079943 -1.649881 0
M  V30 14 C 6.621008 0.477831 -0.525830 0
M  V30 15 C 0.513017 1.223795 3.218764 0
M  V30 16 O 0.500087 2.251275 4.164076 0
M  V30 17 C -0.780646 0.890540 2.799329 0
M  V30 18 C -0.948848 -0.098436 1.873742 0
M  V30 19 C -1.962078 -0.720066 1.212673 0
M  V30 20 C -3.308271 -0.575558 1.228144 0
M  V30 21 C -4.158047 -1.332892 0.456272 0
M  V30 22 C -3.648187 -2.310757 -0.399924 0
M  V30 23 C -4.513224 -3.137554 -1.237103 0
M  V30 24 C -5.018964 -4.340086 -0.795491 0
M  V30 25 C -5.837306 -5.068942 -1.656538 0
M  V30 26 C -6.166447 -4.647687 -2.927799 0
M  V30 27 C -5.663562 -3.444110 -3.377061 0
M  V30 28 C -4.857764 -2.730807 -2.523540 0
M  V30 29 Cl -4.231400 -1.202578 -3.120816 0
M  V30 30 C -2.281224 -2.490820 -0.446336 0
M  V30 31 C -1.473984 -1.690426 0.361480 0
M  V30 32 C -5.552055 -0.984297 0.655496 0
M  V30 33 O -6.559450 -1.507849 0.085181 0
M  V30 34 N -5.508049 0.073774 1.633936 0
M  V30 35 C -4.155739 0.318713 1.977773 0
M  V30 36 O -4.023370 1.218562 2.818200 0
M  V30 37 H 0.717286 -3.581431 0.217111 0
M  V30 38 H 1.803361 -2.221648 -0.228503 0
M  V30 39 H 0.434235 -2.722331 -1.308893 0
M  V30 40 H 2.309017 -0.877235 1.458666 0
M  V30 41 H 4.565743 1.499503 4.236115 0
M  V30 42 H 4.344065 -0.078592 3.464374 0
M  V30 43 H 5.943344 1.369306 2.413300 0
M  V30 44 H 4.684355 2.511879 1.941519 0
M  V30 45 H 4.614157 -0.442620 0.956741 0
M  V30 46 H 3.555515 0.923244 0.516348 0
M  V30 47 H 4.336450 2.610957 -1.269728 0
M  V30 48 H 6.317252 2.726389 -2.953315 0
M  V30 49 H 8.099011 0.872485 -2.147682 0
M  V30 50 H 7.154165 -0.301319 -0.018825 0
M  V30 51 H 1.316350 2.433703 4.735000 0
M  V30 52 H -1.631264 1.374615 3.171302 0
M  V30 53 H -4.780550 -4.703108 0.200291 0
M  V30 54 H -6.238574 -6.013778 -1.318174 0
M  V30 55 H -6.810342 -5.245022 -3.574416 0
M  V30 56 H -5.913620 -3.105639 -4.366736 0
M  V30 57 H -1.863369 -3.242536 -1.102257 0
M  V30 58 H -6.442455 0.484708 1.930747 0
M  V30 END ATOM
M  V30 BEGIN BOND
M  V30 1 1 1 2
M  V30 2 1 2 3
M  V30 3 2 3 4
M  V30 4 1 4 5
M  V30 5 1 5 6
M  V30 6 1 6 7
M  V30 7 1 7 8
M  V30 8 1 8 9
M  V30 9 1 9 10
M  V30 10 1 10 11
M  V30 11 2 11 12
M  V30 12 1 12 13
M  V30 13 2 13 14
M  V30 14 2 5 15
M  V30 15 1 15 16
M  V30 16 1 15 17
M  V30 17 2 17 18
M  V30 18 1 18 19
M  V30 19 2 19 20
M  V30 20 1 20 21
M  V30 21 2 21 22
M  V30 22 1 22 23
M  V30 23 2 23 24
M  V30 24 1 24 25
M  V30 25 2 25 26
M  V30 26 1 26 27
M  V30 27 2 27 28
M  V30 28 1 28 29
M  V30 29 1 22 30
M  V30 30 2 30 31
M  V30 31 1 21 32
M  V30 32 2 32 33
M  V30 33 1 32 34
M  V30 34 1 34 35
M  V30 35 2 35 36
M  V30 36 1 31 2
M  V30 37 1 18 3
M  V30 38 1 31 19
M  V30 39 1 14 10
M  V30 40 1 35 20
M  V30 41 1 28 23
M  V30 42 1 1 37
M  V30 43 1 1 38
M  V30 44 1 1 39
M  V30 45 1 4 40
M  V30 46 1 7 41
M  V30 47 1 7 42
M  V30 48 1 8 43
M  V30 49 1 8 44
M  V30 50 1 9 45
M  V30 51 1 9 46
M  V30 52 1 11 47
M  V30 53 1 12 48
M  V30 54 1 13 49
M  V30 55 1 14 50
M  V30 56 1 16 51
M  V30 57 1 17 52
M  V30 58 1 24 53
M  V30 59 1 25 54
M  V30 60 1 26 55
M  V30 61 1 27 56
M  V30 62 1 30 57
M  V30 63 1 34 58
M  V30 END BOND
M  V30 END CTAB
M  END
>  <Dataset>  (227) 
ChEMBL_Kinases

>  <Ligand_Instance>  (227) 
nan

>  <PDB_ID>  (227) 
nan

>  <Standardized_SMILES>  (227) 
Cn1c2cc(OCCCn3cccc3)c(O)cc2c2c3c(c(-c4ccccc4Cl)cc21)C(=O)NC3=O

>  <Name>  (227) 
nan

>  <Pocket>  (227) 
nan

>  <ATP_Site>  (227) 
nan

>  <Peripheral>  (227) 
nan

>  <Num_H_Atoms_ProtBoundConf>  (227) 
nan

>  <Num_Resolved_Atoms>  (227) 
nan

>  <Num_Not_Resolved_Atoms>  (227) 
nan

$$$$
CHEMBL472542
     RDKit          3D

  0  0  0  0  0  0  0  0  0  0999 V3000
M  V30 BEGIN CTAB
M  V30 COUNTS 47 51 0 0 0
M  V30 BEGIN ATOM
M  V30 1 N 2.817721 -4.406041 4.116101 0
M  V30 2 C 2.912362 -3.577047 2.963744 0
M  V30 3 O 3.693710 -4.085708 2.094397 0
M  V30 4 C 2.147898 -2.282501 2.877441 0
M  V30 5 C 2.461478 -1.646595 1.541423 0
M  V30 6 N 1.786605 -0.396706 1.338336 0
M  V30 7 C 2.218301 0.855588 1.660382 0
M  V30 8 C 3.422074 1.172042 2.261081 0
M  V30 9 C 3.735559 2.499567 2.534085 0
M  V30 10 C 2.803130 3.482925 2.183804 0
M  V30 11 O 3.112682 4.808750 2.454781 0
M  V30 12 C 1.631366 3.079258 1.590128 0
M  V30 13 C 1.280166 1.796780 1.303448 0
M  V30 14 C 0.259395 1.085740 0.752622 0
M  V30 15 C -0.920470 1.509845 0.232589 0
M  V30 16 C -1.812511 0.598711 -0.275913 0
M  V30 17 C -1.511491 -0.759313 -0.260254 0
M  V30 18 C -2.431514 -1.758724 -0.790286 0
M  V30 19 C -2.257200 -2.046001 -2.129384 0
M  V30 20 C -3.073212 -2.986825 -2.763791 0
M  V30 21 C -4.069908 -3.638865 -2.037324 0
M  V30 22 C -4.230064 -3.333931 -0.683199 0
M  V30 23 C -3.422528 -2.410441 -0.078219 0
M  V30 24 Cl -3.549271 -1.968751 1.598563 0
M  V30 25 C -0.310996 -1.183816 0.269529 0
M  V30 26 C 0.572576 -0.253582 0.775801 0
M  V30 27 C -3.029239 1.210437 -0.795880 0
M  V30 28 O -4.019362 0.647945 -1.318276 0
M  V30 29 N -2.809739 2.615766 -0.560173 0
M  V30 30 C -1.557647 2.784891 0.049679 0
M  V30 31 O -1.236394 3.948995 0.311074 0
M  V30 32 H 2.804067 -4.411151 5.178050 0
M  V30 33 H 2.716185 -5.456059 4.096201 0
M  V30 34 H 2.481168 -1.673540 3.715851 0
M  V30 35 H 1.076958 -2.555462 2.872640 0
M  V30 36 H 2.325570 -2.357346 0.701796 0
M  V30 37 H 3.562700 -1.405390 1.515509 0
M  V30 38 H 4.134220 0.431063 2.529554 0
M  V30 39 H 4.683668 2.719055 3.004423 0
M  V30 40 H 3.052640 5.497555 1.712740 0
M  V30 41 H 0.983234 3.883535 1.357951 0
M  V30 42 H -1.504797 -1.576141 -2.745330 0
M  V30 43 H -2.984670 -3.253486 -3.808624 0
M  V30 44 H -4.705080 -4.374117 -2.539969 0
M  V30 45 H -4.998390 -3.831608 -0.108196 0
M  V30 46 H -0.079896 -2.239864 0.280293 0
M  V30 47 H -3.570970 3.296290 -0.857600 0
M  V30 END ATOM
M  V30 BEGIN BOND
M  V30 1 1 1 2
M  V30 2 2 2 3
M  V30 3 1 2 4
M  V30 4 1 4 5
M  V30 5 1 5 6
M  V30 6 1 6 7
M  V30 7 2 7 8
M  V30 8 1 8 9
M  V30 9 2 9 10
M  V30 10 1 10 11
M  V30 11 1 10 12
M  V30 12 2 12 13
M  V30 13 1 13 14
M  V30 14 2 14 15
M  V30 15 1 15 16
M  V30 16 2 16 17
M  V30 17 1 17 18
M  V30 18 2 18 19
M  V30 19 1 19 20
M  V30 20 2 20 21
M  V30 21 1 21 22
M  V30 22 2 22 23
M  V30 23 1 23 24
M  V30 24 1 17 25
M  V30 25 2 25 26
M  V30 26 1 16 27
M  V30 27 2 27 28
M  V30 28 1 27 29
M  V30 29 1 29 30
M  V30 30 2 30 31
M  V30 31 1 26 6
M  V30 32 1 13 7
M  V30 33 1 26 14
M  V30 34 1 30 15
M  V30 35 1 23 18
M  V30 36 1 1 32
M  V30 37 1 1 33
M  V30 38 1 4 34
M  V30 39 1 4 35
M  V30 40 1 5 36
M  V30 41 1 5 37
M  V30 42 1 8 38
M  V30 43 1 9 39
M  V30 44 1 11 40
M  V30 45 1 12 41
M  V30 46 1 19 42
M  V30 47 1 20 43
M  V30 48 1 21 44
M  V30 49 1 22 45
M  V30 50 1 25 46
M  V30 51 1 29 47
M  V30 END BOND
M  V30 END CTAB
M  END
>  <Dataset>  (228) 
ChEMBL_Kinases

>  <Ligand_Instance>  (228) 
nan

>  <PDB_ID>  (228) 
nan

>  <Standardized_SMILES>  (228) 
NC(=O)CCn1c2ccc(O)cc2c2c3c(c(-c4ccccc4Cl)cc21)C(=O)NC3=O

>  <Name>  (228) 
nan

>  <Pocket>  (228) 
nan

>  <ATP_Site>  (228) 
nan

>  <Peripheral>  (228) 
nan

>  <Num_H_Atoms_ProtBoundConf>  (228) 
nan

>  <Num_Resolved_Atoms>  (228) 
nan

>  <Num_Not_Resolved_Atoms>  (228) 
nan

$$$$
CHEMBL472000
     RDKit          3D

  0  0  0  0  0  0  0  0  0  0999 V3000
M  V30 BEGIN CTAB
M  V30 COUNTS 58 60 0 0 0
M  V30 BEGIN ATOM
M  V30 1 C 3.883548 -3.810312 1.450877 0
M  V30 2 C 4.910995 -2.831374 1.019181 0
M  V30 3 C 4.435708 -1.642637 0.261336 0
M  V30 4 C 3.481578 -0.771380 0.967150 0
M  V30 5 O 2.951432 -1.059375 2.061664 0
M  V30 6 O 3.250282 0.386206 0.275931 0
M  V30 7 C 2.405974 1.408011 0.663968 0
M  V30 8 C 0.995301 0.994220 0.746449 0
M  V30 9 C 0.551720 0.490035 -0.618719 0
M  V30 10 O 0.798376 1.375537 -1.636579 0
M  V30 11 C 0.065239 2.088771 1.238467 0
M  V30 12 C -1.176483 1.285481 1.447401 0
M  V30 13 C -2.452625 1.565374 1.474908 0
M  V30 14 C -3.626616 0.735162 1.689246 0
M  V30 15 C -4.607763 0.905464 0.702116 0
M  V30 16 C -5.826311 0.239428 0.705536 0
M  V30 17 C -6.818176 0.463026 -0.379850 0
M  V30 18 F -6.159882 1.090943 -1.429687 0
M  V30 19 F -7.361193 -0.737279 -0.833051 0
M  V30 20 F -7.827547 1.272578 0.039815 0
M  V30 21 C -6.047192 -0.615775 1.736453 0
M  V30 22 C -5.111454 -0.817790 2.734190 0
M  V30 23 C -5.427445 -1.760010 3.814073 0
M  V30 24 F -4.290543 -2.115525 4.537778 0
M  V30 25 F -6.380413 -1.244841 4.669684 0
M  V30 26 F -5.914767 -2.945837 3.282140 0
M  V30 27 C -3.915614 -0.132088 2.686118 0
M  V30 28 C -0.737430 -0.120077 1.601081 0
M  V30 29 O -1.451682 -1.181038 1.666034 0
M  V30 30 O 0.670028 -0.022498 1.659109 0
M  V30 31 C 3.960451 -2.026243 -1.110229 0
M  V30 32 C 2.810894 -2.720591 -1.366863 0
M  V30 33 C 2.386716 -3.068608 -2.624287 0
M  V30 34 C 3.143685 -2.710971 -3.716725 0
M  V30 35 C 4.308537 -2.014334 -3.546148 0
M  V30 36 C 4.676029 -1.697147 -2.260075 0
M  V30 37 H 3.687890 -4.486997 0.577916 0
M  V30 38 H 2.934276 -3.340897 1.695608 0
M  V30 39 H 4.238071 -4.497770 2.251566 0
M  V30 40 H 5.497197 -2.531378 1.923660 0
M  V30 41 H 5.643622 -3.390086 0.381874 0
M  V30 42 H 5.366092 -1.018737 0.072832 0
M  V30 43 H 2.767133 1.968861 1.560889 0
M  V30 44 H 2.456024 2.181739 -0.158608 0
M  V30 45 H -0.524413 0.176000 -0.569866 0
M  V30 46 H 1.121483 -0.442891 -0.803868 0
M  V30 47 H -0.025552 1.457257 -2.182004 0
M  V30 48 H -0.065328 2.890748 0.510958 0
M  V30 49 H 0.471450 2.446373 2.197073 0
M  V30 50 H -2.659796 2.637616 1.302991 0
M  V30 51 H -4.471615 1.587434 -0.151316 0
M  V30 52 H -6.982013 -1.151953 1.773571 0
M  V30 53 H -3.184460 -0.253786 3.447955 0
M  V30 54 H 2.179750 -3.020685 -0.543875 0
M  V30 55 H 1.452823 -3.627205 -2.774119 0
M  V30 56 H 2.787587 -2.997688 -4.706244 0
M  V30 57 H 4.888578 -1.741096 -4.400806 0
M  V30 58 H 5.612452 -1.137213 -2.127413 0
M  V30 END ATOM
M  V30 BEGIN BOND
M  V30 1 1 1 2
M  V30 2 1 2 3
M  V30 3 1 3 4
M  V30 4 2 4 5
M  V30 5 1 4 6
M  V30 6 1 6 7
M  V30 7 1 7 8
M  V30 8 1 8 9
M  V30 9 1 9 10
M  V30 10 1 8 11
M  V30 11 1 11 12
M  V30 12 2 12 13
M  V30 13 1 13 14
M  V30 14 2 14 15
M  V30 15 1 15 16
M  V30 16 1 16 17
M  V30 17 1 17 18
M  V30 18 1 17 19
M  V30 19 1 17 20
M  V30 20 2 16 21
M  V30 21 1 21 22
M  V30 22 1 22 23
M  V30 23 1 23 24
M  V30 24 1 23 25
M  V30 25 1 23 26
M  V30 26 2 22 27
M  V30 27 1 12 28
M  V30 28 2 28 29
M  V30 29 1 28 30
M  V30 30 1 3 31
M  V30 31 2 31 32
M  V30 32 1 32 33
M  V30 33 2 33 34
M  V30 34 1 34 35
M  V30 35 2 35 36
M  V30 36 1 30 8
M  V30 37 1 36 31
M  V30 38 1 27 14
M  V30 39 1 1 37
M  V30 40 1 1 38
M  V30 41 1 1 39
M  V30 42 1 2 40
M  V30 43 1 2 41
M  V30 44 1 3 42
M  V30 45 1 7 43
M  V30 46 1 7 44
M  V30 47 1 9 45
M  V30 48 1 9 46
M  V30 49 1 10 47
M  V30 50 1 11 48
M  V30 51 1 11 49
M  V30 52 1 13 50
M  V30 53 1 15 51
M  V30 54 1 21 52
M  V30 55 1 27 53
M  V30 56 1 32 54
M  V30 57 1 33 55
M  V30 58 1 34 56
M  V30 59 1 35 57
M  V30 60 1 36 58
M  V30 END BOND
M  V30 END CTAB
M  END
>  <Dataset>  (229) 
ChEMBL_Kinases

>  <Ligand_Instance>  (229) 
nan

>  <PDB_ID>  (229) 
nan

>  <Standardized_SMILES>  (229) 
CCC(C(=O)OCC1(CO)C/C(=C/c2cc(C(F)(F)F)cc(C(F)(F)F)c2)C(=O)O1)c1ccccc1

>  <Name>  (229) 
nan

>  <Pocket>  (229) 
nan

>  <ATP_Site>  (229) 
nan

>  <Peripheral>  (229) 
nan

>  <Num_H_Atoms_ProtBoundConf>  (229) 
nan

>  <Num_Resolved_Atoms>  (229) 
nan

>  <Num_Not_Resolved_Atoms>  (229) 
nan

$$$$
CHEMBL472001
     RDKit          3D

  0  0  0  0  0  0  0  0  0  0999 V3000
M  V30 BEGIN CTAB
M  V30 COUNTS 53 55 0 0 0
M  V30 BEGIN ATOM
M  V30 1 C 1.509337 -3.667497 4.986297 0
M  V30 2 N 1.172215 -2.632655 4.014595 0
M  V30 3 C -0.182511 -2.621715 3.564758 0
M  V30 4 C 2.118137 -1.703209 3.540970 0
M  V30 5 C 3.430518 -1.629114 3.913711 0
M  V30 6 C 4.360186 -0.730979 3.440692 0
M  V30 7 C 3.940327 0.202528 2.486565 0
M  V30 8 C 2.628184 0.162731 2.084252 0
M  V30 9 C 2.262046 1.156820 1.085194 0
M  V30 10 O 3.118974 1.960027 0.637799 0
M  V30 11 O 0.986693 1.318076 0.543850 0
M  V30 12 C 0.863661 2.360085 -0.424225 0
M  V30 13 C -0.528803 2.483442 -0.931549 0
M  V30 14 C -0.571232 3.534526 -2.016694 0
M  V30 15 O -0.211428 4.782316 -1.549122 0
M  V30 16 C -1.138629 1.191018 -1.444643 0
M  V30 17 C -1.658268 0.603737 -0.209508 0
M  V30 18 C -2.278790 -0.561630 -0.025019 0
M  V30 19 C -2.576753 -1.518773 -1.074988 0
M  V30 20 C -3.151112 -1.238737 -2.295855 0
M  V30 21 C -3.407211 -2.167361 -3.271582 0
M  V30 22 C -3.083859 -3.489371 -3.061849 0
M  V30 23 C -2.501376 -3.797644 -1.833865 0
M  V30 24 N -2.194212 -5.198162 -1.702647 0 CHG=1 VAL=4
M  V30 25 O -1.659710 -5.759738 -0.706847 0
M  V30 26 O -2.429508 -6.164166 -2.644686 0 CHG=-1 VAL=1
M  V30 27 C -2.249761 -2.853923 -0.861983 0
M  V30 28 C -1.398692 1.566389 0.889489 0
M  V30 29 O -1.259996 1.178128 2.096257 0
M  V30 30 O -1.382927 2.778693 0.162836 0
M  V30 31 C 1.750041 -0.759134 2.595833 0
M  V30 32 H 1.140401 -4.672004 4.616291 0
M  V30 33 H 2.591749 -3.807109 5.122271 0
M  V30 34 H 1.075082 -3.458800 5.968569 0
M  V30 35 H -0.621849 -3.652143 3.656476 0
M  V30 36 H -0.845376 -1.969878 4.162362 0
M  V30 37 H -0.307752 -2.352100 2.488425 0
M  V30 38 H 3.823337 -2.306455 4.634671 0
M  V30 39 H 5.383446 -0.692613 3.747122 0
M  V30 40 H 4.670778 0.910429 2.112275 0
M  V30 41 H 1.086129 3.310170 0.118815 0
M  V30 42 H 1.617871 2.293571 -1.219439 0
M  V30 43 H 0.110933 3.226880 -2.851335 0
M  V30 44 H -1.567910 3.571941 -2.465854 0
M  V30 45 H -0.202357 4.790919 -0.558154 0
M  V30 46 H -0.411167 0.562462 -1.973320 0
M  V30 47 H -1.970787 1.524666 -2.109475 0
M  V30 48 H -2.631563 -0.912625 0.959408 0
M  V30 49 H -3.435238 -0.235204 -2.518623 0
M  V30 50 H -3.873024 -1.861351 -4.224480 0
M  V30 51 H -3.295981 -4.194368 -3.845561 0
M  V30 52 H -1.785889 -3.208635 0.071799 0
M  V30 53 H 0.759690 -0.666442 2.187323 0
M  V30 END ATOM
M  V30 BEGIN BOND
M  V30 1 1 1 2
M  V30 2 1 2 3
M  V30 3 1 2 4
M  V30 4 2 4 5
M  V30 5 1 5 6
M  V30 6 2 6 7
M  V30 7 1 7 8
M  V30 8 1 8 9
M  V30 9 2 9 10
M  V30 10 1 9 11
M  V30 11 1 11 12
M  V30 12 1 12 13
M  V30 13 1 13 14
M  V30 14 1 14 15
M  V30 15 1 13 16
M  V30 16 1 16 17
M  V30 17 2 17 18
M  V30 18 1 18 19
M  V30 19 2 19 20
M  V30 20 1 20 21
M  V30 21 2 21 22
M  V30 22 1 22 23
M  V30 23 1 23 24
M  V30 24 2 24 25
M  V30 25 1 24 26
M  V30 26 2 23 27
M  V30 27 1 17 28
M  V30 28 2 28 29
M  V30 29 1 28 30
M  V30 30 2 8 31
M  V30 31 1 31 4
M  V30 32 1 30 13
M  V30 33 1 27 19
M  V30 34 1 1 32
M  V30 35 1 1 33
M  V30 36 1 1 34
M  V30 37 1 3 35
M  V30 38 1 3 36
M  V30 39 1 3 37
M  V30 40 1 5 38
M  V30 41 1 6 39
M  V30 42 1 7 40
M  V30 43 1 12 41
M  V30 44 1 12 42
M  V30 45 1 14 43
M  V30 46 1 14 44
M  V30 47 1 15 45
M  V30 48 1 16 46
M  V30 49 1 16 47
M  V30 50 1 18 48
M  V30 51 1 20 49
M  V30 52 1 21 50
M  V30 53 1 22 51
M  V30 54 1 27 52
M  V30 55 1 31 53
M  V30 END BOND
M  V30 END CTAB
M  END
>  <Dataset>  (230) 
ChEMBL_Kinases

>  <Ligand_Instance>  (230) 
nan

>  <PDB_ID>  (230) 
nan

>  <Standardized_SMILES>  (230) 
CN(C)c1cccc(C(=O)OCC2(CO)C/C(=C\c3cccc([N+](=O)[O-])c3)C(=O)O2)c1

>  <Name>  (230) 
nan

>  <Pocket>  (230) 
nan

>  <ATP_Site>  (230) 
nan

>  <Peripheral>  (230) 
nan

>  <Num_H_Atoms_ProtBoundConf>  (230) 
nan

>  <Num_Resolved_Atoms>  (230) 
nan

>  <Num_Not_Resolved_Atoms>  (230) 
nan

$$$$
CHEMBL472002
     RDKit          3D

  0  0  0  0  0  0  0  0  0  0999 V3000
M  V30 BEGIN CTAB
M  V30 COUNTS 53 55 0 0 0
M  V30 BEGIN ATOM
M  V30 1 C 0.213052 1.459577 3.354972 0
M  V30 2 N 1.260869 0.455955 3.246047 0
M  V30 3 C 0.873506 -0.864504 3.762102 0
M  V30 4 C 2.594627 0.346689 2.779662 0
M  V30 5 C 3.576067 0.047365 3.698711 0
M  V30 6 C 4.917560 -0.076485 3.360213 0
M  V30 7 C 5.214144 0.121257 2.025564 0
M  V30 8 C 4.276443 0.423481 1.051943 0
M  V30 9 C 2.961544 0.529927 1.469063 0
M  V30 10 C 2.016940 0.837294 0.437060 0
M  V30 11 O 2.279384 1.018815 -0.775838 0
M  V30 12 O 0.661120 1.032404 0.346273 0
M  V30 13 C 0.099992 1.336942 -0.940327 0
M  V30 14 C -1.370198 1.535878 -0.869415 0
M  V30 15 C -1.787299 2.557197 0.135939 0
M  V30 16 O -3.175820 2.640267 0.149852 0
M  V30 17 C -2.112338 0.214520 -0.646499 0
M  V30 18 C -1.819608 -0.469265 -1.899111 0
M  V30 19 C -1.636165 -1.728723 -2.150037 0
M  V30 20 C -1.671622 -2.843318 -1.216386 0
M  V30 21 C -1.134928 -3.022414 0.013724 0
M  V30 22 C -1.312337 -4.161519 0.759055 0
M  V30 23 C -2.066805 -5.204448 0.273477 0
M  V30 24 C -2.635852 -5.075548 -0.972985 0
M  V30 25 N -3.411099 -6.148659 -1.461629 0 CHG=1 VAL=4
M  V30 26 O -3.595289 -7.189040 -0.823807 0
M  V30 27 O -4.031737 -6.141469 -2.678897 0 CHG=-1 VAL=1
M  V30 28 C -2.437986 -3.920310 -1.693142 0
M  V30 29 C -1.773001 0.641691 -2.874396 0
M  V30 30 O -1.712234 0.553439 -4.141050 0
M  V30 31 O -1.806516 1.840020 -2.179831 0
M  V30 32 H 0.390888 2.336825 2.719152 0
M  V30 33 H -0.774070 1.033341 3.086120 0
M  V30 34 H 0.126626 1.785651 4.426894 0
M  V30 35 H -0.118735 -0.889455 4.208771 0
M  V30 36 H 1.054462 -1.636398 3.003240 0
M  V30 37 H 1.582498 -1.068747 4.618202 0
M  V30 38 H 3.387005 -0.118923 4.770499 0
M  V30 39 H 5.713953 -0.309023 4.050820 0
M  V30 40 H 6.268841 0.026685 1.741307 0
M  V30 41 H 4.578701 0.565261 0.030913 0
M  V30 42 H 0.380406 0.458359 -1.587642 0
M  V30 43 H 0.586846 2.245766 -1.296202 0
M  V30 44 H -1.443069 2.208686 1.114383 0
M  V30 45 H -1.284590 3.499474 -0.133099 0
M  V30 46 H -3.530072 2.205495 0.965083 0
M  V30 47 H -3.203383 0.414333 -0.598847 0
M  V30 48 H -1.693529 -0.181953 0.268798 0
M  V30 49 H -1.425887 -1.965803 -3.207682 0
M  V30 50 H -0.545417 -2.207620 0.366971 0
M  V30 51 H -0.821364 -4.165892 1.730454 0
M  V30 52 H -2.165527 -6.076298 0.917376 0
M  V30 53 H -2.932932 -3.920765 -2.668212 0
M  V30 END ATOM
M  V30 BEGIN BOND
M  V30 1 1 1 2
M  V30 2 1 2 3
M  V30 3 1 2 4
M  V30 4 2 4 5
M  V30 5 1 5 6
M  V30 6 2 6 7
M  V30 7 1 7 8
M  V30 8 2 8 9
M  V30 9 1 9 10
M  V30 10 2 10 11
M  V30 11 1 10 12
M  V30 12 1 12 13
M  V30 13 1 13 14
M  V30 14 1 14 15
M  V30 15 1 15 16
M  V30 16 1 14 17
M  V30 17 1 17 18
M  V30 18 2 18 19
M  V30 19 1 19 20
M  V30 20 2 20 21
M  V30 21 1 21 22
M  V30 22 2 22 23
M  V30 23 1 23 24
M  V30 24 1 24 25
M  V30 25 2 25 26
M  V30 26 1 25 27
M  V30 27 2 24 28
M  V30 28 1 18 29
M  V30 29 2 29 30
M  V30 30 1 29 31
M  V30 31 1 9 4
M  V30 32 1 31 14
M  V30 33 1 28 20
M  V30 34 1 1 32
M  V30 35 1 1 33
M  V30 36 1 1 34
M  V30 37 1 3 35
M  V30 38 1 3 36
M  V30 39 1 3 37
M  V30 40 1 5 38
M  V30 41 1 6 39
M  V30 42 1 7 40
M  V30 43 1 8 41
M  V30 44 1 13 42
M  V30 45 1 13 43
M  V30 46 1 15 44
M  V30 47 1 15 45
M  V30 48 1 16 46
M  V30 49 1 17 47
M  V30 50 1 17 48
M  V30 51 1 19 49
M  V30 52 1 21 50
M  V30 53 1 22 51
M  V30 54 1 23 52
M  V30 55 1 28 53
M  V30 END BOND
M  V30 END CTAB
M  END
>  <Dataset>  (231) 
ChEMBL_Kinases

>  <Ligand_Instance>  (231) 
nan

>  <PDB_ID>  (231) 
nan

>  <Standardized_SMILES>  (231) 
CN(C)c1ccccc1C(=O)OCC1(CO)C/C(=C\c2cccc([N+](=O)[O-])c2)C(=O)O1

>  <Name>  (231) 
nan

>  <Pocket>  (231) 
nan

>  <ATP_Site>  (231) 
nan

>  <Peripheral>  (231) 
nan

>  <Num_H_Atoms_ProtBoundConf>  (231) 
nan

>  <Num_Resolved_Atoms>  (231) 
nan

>  <Num_Not_Resolved_Atoms>  (231) 
nan

$$$$
CHEMBL472007
     RDKit          3D

  0  0  0  0  0  0  0  0  0  0999 V3000
M  V30 BEGIN CTAB
M  V30 COUNTS 53 54 0 0 0
M  V30 BEGIN ATOM
M  V30 1 C 2.560885 -1.542388 5.649974 0
M  V30 2 C 2.201041 -2.272555 4.371440 0
M  V30 3 C 1.512197 -1.386079 3.415372 0
M  V30 4 C 2.119711 -0.150297 2.933038 0
M  V30 5 C 3.386965 -0.117774 2.192822 0
M  V30 6 C 4.628761 -0.617431 2.859079 0
M  V30 7 C 5.781334 -0.427492 1.842037 0
M  V30 8 C 1.047634 0.536585 2.085768 0
M  V30 9 O 0.573650 1.665405 2.312834 0
M  V30 10 O 0.687019 -0.259682 1.051963 0
M  V30 11 C -0.229644 -0.112151 0.030930 0
M  V30 12 C -1.663164 -0.083511 0.391374 0
M  V30 13 C -2.165979 1.177529 1.023533 0
M  V30 14 O -1.735728 2.338750 0.408540 0
M  V30 15 C -2.500292 -0.290195 -0.909996 0
M  V30 16 C -2.587598 -1.754625 -1.010393 0
M  V30 17 C -3.173840 -2.338220 -2.062334 0
M  V30 18 C -3.770864 -1.629299 -3.186323 0
M  V30 19 C -3.682629 -2.124928 -4.480708 0
M  V30 20 C -4.271767 -1.401392 -5.495265 0
M  V30 21 C -4.932075 -0.222421 -5.258609 0
M  V30 22 C -5.003816 0.250976 -3.944286 0
M  V30 23 N -4.427903 -0.460358 -2.966309 0
M  V30 24 C -1.959932 -2.336198 0.166903 0
M  V30 25 O -1.498017 -3.508068 0.166107 0
M  V30 26 O -2.076566 -1.265013 1.071579 0
M  V30 27 H 2.414963 -2.162904 6.561438 0
M  V30 28 H 3.588754 -1.140714 5.635304 0
M  V30 29 H 1.863798 -0.671286 5.776666 0
M  V30 30 H 3.007539 -2.901966 4.042258 0
M  V30 31 H 1.401323 -3.034372 4.745137 0
M  V30 32 H 0.495634 -1.097613 3.857830 0
M  V30 33 H 1.175331 -2.009033 2.520223 0
M  V30 34 H 2.213823 0.587704 3.806732 0
M  V30 35 H 3.603753 0.986528 1.990610 0
M  V30 36 H 3.300035 -0.519060 1.142993 0
M  V30 37 H 4.629925 -1.621901 3.247071 0
M  V30 38 H 4.923951 0.046457 3.725477 0
M  V30 39 H 5.449685 -0.674390 0.824831 0
M  V30 40 H 6.126986 0.622643 1.859585 0
M  V30 41 H 6.616579 -1.100054 2.102816 0
M  V30 42 H -0.035973 -0.903574 -0.747007 0
M  V30 43 H 0.002553 0.859949 -0.513986 0
M  V30 44 H -1.979036 1.198220 2.101052 0
M  V30 45 H -3.318762 1.213516 0.915566 0
M  V30 46 H -1.828867 2.221162 -0.575911 0
M  V30 47 H -1.951020 0.182258 -1.726523 0
M  V30 48 H -3.508221 0.124232 -0.711742 0
M  V30 49 H -3.200178 -3.440715 -2.065954 0
M  V30 50 H -3.161430 -3.055060 -4.662534 0
M  V30 51 H -4.172392 -1.828721 -6.465096 0
M  V30 52 H -5.359023 0.259473 -6.150024 0
M  V30 53 H -5.533046 1.176071 -3.828277 0
M  V30 END ATOM
M  V30 BEGIN BOND
M  V30 1 1 1 2
M  V30 2 1 2 3
M  V30 3 1 3 4
M  V30 4 1 4 5
M  V30 5 1 5 6
M  V30 6 1 6 7
M  V30 7 1 4 8
M  V30 8 2 8 9
M  V30 9 1 8 10
M  V30 10 1 10 11
M  V30 11 1 11 12
M  V30 12 1 12 13
M  V30 13 1 13 14
M  V30 14 1 12 15
M  V30 15 1 15 16
M  V30 16 2 16 17
M  V30 17 1 17 18
M  V30 18 2 18 19
M  V30 19 1 19 20
M  V30 20 2 20 21
M  V30 21 1 21 22
M  V30 22 2 22 23
M  V30 23 1 16 24
M  V30 24 2 24 25
M  V30 25 1 24 26
M  V30 26 1 26 12
M  V30 27 1 23 18
M  V30 28 1 1 27
M  V30 29 1 1 28
M  V30 30 1 1 29
M  V30 31 1 2 30
M  V30 32 1 2 31
M  V30 33 1 3 32
M  V30 34 1 3 33
M  V30 35 1 4 34
M  V30 36 1 5 35
M  V30 37 1 5 36
M  V30 38 1 6 37
M  V30 39 1 6 38
M  V30 40 1 7 39
M  V30 41 1 7 40
M  V30 42 1 7 41
M  V30 43 1 11 42
M  V30 44 1 11 43
M  V30 45 1 13 44
M  V30 46 1 13 45
M  V30 47 1 14 46
M  V30 48 1 15 47
M  V30 49 1 15 48
M  V30 50 1 17 49
M  V30 51 1 19 50
M  V30 52 1 20 51
M  V30 53 1 21 52
M  V30 54 1 22 53
M  V30 END BOND
M  V30 END CTAB
M  END
>  <Dataset>  (232) 
ChEMBL_Kinases

>  <Ligand_Instance>  (232) 
nan

>  <PDB_ID>  (232) 
nan

>  <Standardized_SMILES>  (232) 
CCCC(CCC)C(=O)OCC1(CO)C/C(=C\c2ccccn2)C(=O)O1

>  <Name>  (232) 
nan

>  <Pocket>  (232) 
nan

>  <ATP_Site>  (232) 
nan

>  <Peripheral>  (232) 
nan

>  <Num_H_Atoms_ProtBoundConf>  (232) 
nan

>  <Num_Resolved_Atoms>  (232) 
nan

>  <Num_Not_Resolved_Atoms>  (232) 
nan

$$$$
CHEMBL4467180
     RDKit          3D

  0  0  0  0  0  0  0  0  0  0999 V3000
M  V30 BEGIN CTAB
M  V30 COUNTS 49 52 0 0 0
M  V30 BEGIN ATOM
M  V30 1 C 3.567905 -4.605997 1.667501 0
M  V30 2 C 2.947392 -3.286779 1.351487 0
M  V30 3 C 1.558262 -3.104913 1.380183 0
M  V30 4 C 1.188483 -1.821812 1.059936 0
M  V30 5 C 2.009084 -0.800820 0.743381 0
M  V30 6 C 3.346704 -1.057734 0.737386 0
M  V30 7 C 3.859420 -2.301819 1.039341 0
M  V30 8 C 4.270788 -0.059556 0.419680 0
M  V30 9 O 5.491778 -0.297844 0.415199 0
M  V30 10 N 3.762991 1.147202 0.126129 0
M  V30 11 C 2.458995 1.421760 0.125635 0
M  V30 12 C 2.039289 2.676720 -0.185793 0
M  V30 13 C 3.034295 3.703814 -0.515347 0
M  V30 14 C 0.665824 2.900727 -0.168936 0
M  V30 15 C -0.248567 1.884829 0.153215 0
M  V30 16 O -1.550207 2.426931 0.081223 0
M  V30 17 C 0.240036 0.604074 0.467714 0
M  V30 18 C -0.968500 -0.129276 0.732730 0
M  V30 19 C -1.674001 -0.301670 1.951877 0
M  V30 20 C -2.872163 -0.982808 1.942672 0
M  V30 21 C -3.378821 -1.484997 0.791899 0
M  V30 22 C -4.669987 -2.205421 0.854797 0 CFG=1
M  V30 23 C -5.399143 -1.989656 2.149895 0
M  V30 24 N -5.479585 -1.726595 -0.254341 0
M  V30 25 C -2.750398 -1.355734 -0.424255 0
M  V30 26 C -1.545454 -0.676032 -0.443352 0
M  V30 27 C 1.573824 0.428906 0.439831 0
M  V30 28 H 4.167523 -4.970647 0.816473 0
M  V30 29 H 4.196303 -4.561004 2.588185 0
M  V30 30 H 2.789022 -5.348453 1.867232 0
M  V30 31 H 1.038292 -3.999183 1.646487 0
M  V30 32 H 0.152666 -1.881817 1.131630 0
M  V30 33 H 4.913882 -2.453523 1.021157 0
M  V30 34 H 4.462188 1.893312 -0.111884 0
M  V30 35 H 3.690954 3.978141 0.332386 0
M  V30 36 H 3.609919 3.436722 -1.427789 0
M  V30 37 H 2.480664 4.638482 -0.763503 0
M  V30 38 H 0.421744 3.930013 -0.430044 0
M  V30 39 H -2.257081 1.845264 0.531553 0
M  V30 40 H -1.123505 0.161812 2.762244 0
M  V30 41 H -3.310538 -1.045758 2.936751 0
M  V30 42 H -4.537558 -3.299383 0.726844 0
M  V30 43 H -4.905462 -2.539838 2.975459 0
M  V30 44 H -6.399564 -2.493483 2.017086 0
M  V30 45 H -5.623564 -0.938473 2.360949 0
M  V30 46 H -5.150559 -0.767186 -0.546885 0
M  V30 47 H -5.230202 -2.331525 -1.091562 0
M  V30 48 H -3.182062 -1.767001 -1.315891 0
M  V30 49 H -1.088407 -0.599428 -1.420962 0
M  V30 END ATOM
M  V30 BEGIN BOND
M  V30 1 1 1 2
M  V30 2 2 2 3
M  V30 3 1 3 4
M  V30 4 2 4 5
M  V30 5 1 5 6
M  V30 6 2 6 7
M  V30 7 1 6 8
M  V30 8 2 8 9
M  V30 9 1 8 10
M  V30 10 1 10 11
M  V30 11 2 11 12
M  V30 12 1 12 13
M  V30 13 1 12 14
M  V30 14 2 14 15
M  V30 15 1 15 16
M  V30 16 1 15 17
M  V30 17 1 17 18
M  V30 18 2 18 19
M  V30 19 1 19 20
M  V30 20 2 20 21
M  V30 21 1 21 22
M  V30 22 1 22 23
M  V30 23 1 22 24
M  V30 24 1 21 25
M  V30 25 2 25 26
M  V30 26 2 17 27
M  V30 27 1 7 2
M  V30 28 1 27 11
M  V30 29 1 27 5
M  V30 30 1 26 18
M  V30 31 1 1 28
M  V30 32 1 1 29
M  V30 33 1 1 30
M  V30 34 1 3 31
M  V30 35 1 4 32
M  V30 36 1 7 33
M  V30 37 1 10 34
M  V30 38 1 13 35
M  V30 39 1 13 36
M  V30 40 1 13 37
M  V30 41 1 14 38
M  V30 42 1 16 39
M  V30 43 1 19 40
M  V30 44 1 20 41
M  V30 45 1 22 42 CFG=3
M  V30 46 1 23 43
M  V30 47 1 23 44
M  V30 48 1 23 45
M  V30 49 1 24 46
M  V30 50 1 24 47
M  V30 51 1 25 48
M  V30 52 1 26 49
M  V30 END BOND
M  V30 END CTAB
M  END
>  <Dataset>  (233) 
ChEMBL_Kinases

>  <Ligand_Instance>  (233) 
nan

>  <PDB_ID>  (233) 
nan

>  <Standardized_SMILES>  (233) 
Cc1ccc2c(c1)c(=O)[nH]c1c(C)cc(O)c(-c3ccc([C@@H](C)N)cc3)c12

>  <Name>  (233) 
nan

>  <Pocket>  (233) 
nan

>  <ATP_Site>  (233) 
nan

>  <Peripheral>  (233) 
nan

>  <Num_H_Atoms_ProtBoundConf>  (233) 
nan

>  <Num_Resolved_Atoms>  (233) 
nan

>  <Num_Not_Resolved_Atoms>  (233) 
nan

$$$$
CHEMBL4467179
     RDKit          3D

  0  0  0  0  0  0  0  0  0  0999 V3000
M  V30 BEGIN CTAB
M  V30 COUNTS 39 42 0 0 0
M  V30 BEGIN ATOM
M  V30 1 C -0.425063 -2.795084 1.906369 0
M  V30 2 C -0.722689 -1.572580 2.709291 0
M  V30 3 N -1.476572 -0.542145 2.005144 0
M  V30 4 C -0.900666 0.018733 0.838462 0
M  V30 5 N 0.303404 -0.438244 0.462450 0
M  V30 6 C 0.929558 0.047984 -0.649874 0
M  V30 7 C 2.237921 -0.443843 -1.063245 0
M  V30 8 C 2.932658 -1.417289 -0.377078 0
M  V30 9 C 4.174174 -1.868372 -0.788673 0
M  V30 10 N 4.758172 -1.368659 -1.887158 0
M  V30 11 C 4.112870 -0.402532 -2.603227 0
M  V30 12 C 2.876001 0.040838 -2.185521 0
M  V30 13 N 0.348847 1.001967 -1.397662 0
M  V30 14 C -0.852907 1.501045 -1.076814 0
M  V30 15 C -1.447896 2.478754 -1.843317 0
M  V30 16 N -2.649027 2.927443 -1.459135 0
M  V30 17 C -3.283801 2.458871 -0.362306 0
M  V30 18 C -2.683724 1.480427 0.401088 0
M  V30 19 C -1.450067 0.982583 0.053373 0
M  V30 20 C 0.572029 -1.026950 3.327831 0
M  V30 21 C 0.297745 -1.944165 4.510259 0
M  V30 22 C -1.176029 -1.827050 4.131783 0
M  V30 23 H -1.041312 -2.882027 0.989127 0
M  V30 24 H -0.670619 -3.690956 2.523240 0
M  V30 25 H 0.640743 -2.833653 1.641827 0
M  V30 26 H -2.393285 -0.310401 2.439801 0
M  V30 27 H 2.511538 -1.851160 0.508830 0
M  V30 28 H 4.674410 -2.646533 -0.196437 0
M  V30 29 H 4.585893 0.001147 -3.491604 0
M  V30 30 H 2.397016 0.813007 -2.786996 0
M  V30 31 H -0.922085 2.845440 -2.724695 0
M  V30 32 H -4.256469 2.875711 -0.118957 0
M  V30 33 H -3.202036 1.122527 1.265388 0
M  V30 34 H 0.503641 0.016618 3.667278 0
M  V30 35 H 1.458660 -1.287669 2.729031 0
M  V30 36 H 0.549451 -1.507087 5.502807 0
M  V30 37 H 0.676369 -2.959367 4.326994 0
M  V30 38 H -1.776035 -2.742244 4.264601 0
M  V30 39 H -1.623855 -0.895888 4.553840 0
M  V30 END ATOM
M  V30 BEGIN BOND
M  V30 1 1 1 2
M  V30 2 1 2 3
M  V30 3 1 3 4
M  V30 4 2 4 5
M  V30 5 1 5 6
M  V30 6 1 6 7
M  V30 7 2 7 8
M  V30 8 1 8 9
M  V30 9 2 9 10
M  V30 10 1 10 11
M  V30 11 2 11 12
M  V30 12 2 6 13
M  V30 13 1 13 14
M  V30 14 2 14 15
M  V30 15 1 15 16
M  V30 16 2 16 17
M  V30 17 1 17 18
M  V30 18 2 18 19
M  V30 19 1 2 20
M  V30 20 1 20 21
M  V30 21 1 21 22
M  V30 22 1 22 2
M  V30 23 1 19 4
M  V30 24 1 12 7
M  V30 25 1 19 14
M  V30 26 1 1 23
M  V30 27 1 1 24
M  V30 28 1 1 25
M  V30 29 1 3 26
M  V30 30 1 8 27
M  V30 31 1 9 28
M  V30 32 1 11 29
M  V30 33 1 12 30
M  V30 34 1 15 31
M  V30 35 1 17 32
M  V30 36 1 18 33
M  V30 37 1 20 34
M  V30 38 1 20 35
M  V30 39 1 21 36
M  V30 40 1 21 37
M  V30 41 1 22 38
M  V30 42 1 22 39
M  V30 END BOND
M  V30 END CTAB
M  END
>  <Dataset>  (234) 
ChEMBL_Kinases

>  <Ligand_Instance>  (234) 
nan

>  <PDB_ID>  (234) 
nan

>  <Standardized_SMILES>  (234) 
CC1(Nc2nc(-c3ccncc3)nc3cnccc23)CCC1

>  <Name>  (234) 
nan

>  <Pocket>  (234) 
nan

>  <ATP_Site>  (234) 
nan

>  <Peripheral>  (234) 
nan

>  <Num_H_Atoms_ProtBoundConf>  (234) 
nan

>  <Num_Resolved_Atoms>  (234) 
nan

>  <Num_Not_Resolved_Atoms>  (234) 
nan

$$$$
CHEMBL4467086
     RDKit          3D

  0  0  0  0  0  0  0  0  0  0999 V3000
M  V30 BEGIN CTAB
M  V30 COUNTS 62 65 0 0 0
M  V30 BEGIN ATOM
M  V30 1 C 2.895156 -1.172168 4.557117 0
M  V30 2 C 3.426616 -1.434162 3.168310 0
M  V30 3 C 4.914763 -1.770747 3.176229 0
M  V30 4 C 2.709337 -2.688369 2.664041 0
M  V30 5 C 3.120996 -0.316808 2.234954 0
M  V30 6 C 3.530508 -0.387110 0.920074 0
M  V30 7 C 3.241578 0.652428 0.062800 0
M  V30 8 C 2.548303 1.767702 0.492660 0
M  V30 9 S 2.276380 2.983345 -0.756999 0
M  V30 10 O 3.385156 2.956261 -1.766064 0
M  V30 11 O 2.212122 4.335467 -0.104936 0
M  V30 12 N 0.768661 2.646797 -1.572258 0
M  V30 13 C -0.451260 2.662731 -0.839072 0
M  V30 14 C -0.762396 3.680332 0.034054 0
M  V30 15 C -1.943416 3.729317 0.760931 0
M  V30 16 C -2.867973 2.702992 0.608225 0
M  V30 17 C -2.541294 1.688440 -0.271374 0
M  V30 18 N -3.408395 0.587853 -0.504704 0
M  V30 19 C -4.380317 0.580488 -1.513154 0
M  V30 20 O -4.495689 1.606563 -2.251340 0
M  V30 21 C -5.386085 -0.400496 -1.968709 0
M  V30 22 O -5.345794 -1.572396 -1.232062 0
M  V30 23 C -4.316374 -2.471642 -1.102105 0
M  V30 24 C -4.738118 -3.499325 -0.247187 0
M  V30 25 C -3.886914 -4.565337 0.069145 0
M  V30 26 C -2.617116 -4.622635 -0.455678 0
M  V30 27 C -1.719613 -5.644002 -0.188545 0
M  V30 28 O -2.095104 -6.576599 0.584146 0
M  V30 29 C -0.461800 -5.595069 -0.777302 0
M  V30 30 C -0.147025 -4.525907 -1.612127 0
M  V30 31 O -1.015195 -3.559404 -1.856402 0
M  V30 32 C -2.203254 -3.614099 -1.294764 0
M  V30 33 C -3.018613 -2.564754 -1.616273 0
M  V30 34 C -1.354290 1.627103 -1.010762 0
M  V30 35 C 2.132633 1.852286 1.803161 0
M  V30 36 C 2.421496 0.806994 2.671016 0
M  V30 37 H 3.189239 -2.059842 5.172072 0
M  V30 38 H 1.788629 -1.221204 4.475824 0
M  V30 39 H 3.291425 -0.272864 5.029771 0
M  V30 40 H 5.489741 -0.846822 3.008257 0
M  V30 41 H 5.124118 -2.288332 4.125295 0
M  V30 42 H 5.083624 -2.430686 2.293140 0
M  V30 43 H 3.426153 -3.305131 2.048026 0
M  V30 44 H 1.926548 -2.381803 1.923398 0
M  V30 45 H 2.301457 -3.295316 3.482757 0
M  V30 46 H 4.070807 -1.275168 0.619230 0
M  V30 47 H 3.615888 0.488115 -0.956232 0
M  V30 48 H 0.749227 2.430375 -2.609264 0
M  V30 49 H -0.095302 4.506757 0.202096 0
M  V30 50 H -2.180135 4.534979 1.446032 0
M  V30 51 H -3.818159 2.648656 1.129650 0
M  V30 52 H -3.414590 -0.298253 0.043889 0
M  V30 53 H -6.384592 0.084025 -1.744828 0
M  V30 54 H -5.337874 -0.580709 -3.064332 0
M  V30 55 H -5.687779 -3.624346 0.255513 0
M  V30 56 H -4.137745 -5.390121 0.715399 0
M  V30 57 H 0.210240 -6.410973 -0.542202 0
M  V30 58 H 0.848874 -4.507534 -2.065135 0
M  V30 59 H -2.849388 -1.699751 -2.254637 0
M  V30 60 H -1.118833 0.838594 -1.683141 0
M  V30 61 H 1.596958 2.751238 2.070461 0
M  V30 62 H 2.082618 0.897802 3.697623 0
M  V30 END ATOM
M  V30 BEGIN BOND
M  V30 1 1 1 2
M  V30 2 1 2 3
M  V30 3 1 2 4
M  V30 4 1 2 5
M  V30 5 2 5 6
M  V30 6 1 6 7
M  V30 7 2 7 8
M  V30 8 1 8 9
M  V30 9 2 9 10
M  V30 10 2 9 11
M  V30 11 1 9 12
M  V30 12 1 12 13
M  V30 13 2 13 14
M  V30 14 1 14 15
M  V30 15 2 15 16
M  V30 16 1 16 17
M  V30 17 1 17 18
M  V30 18 1 18 19
M  V30 19 2 19 20
M  V30 20 1 19 21
M  V30 21 1 21 22
M  V30 22 1 22 23
M  V30 23 2 23 24
M  V30 24 1 24 25
M  V30 25 2 25 26
M  V30 26 1 26 27
M  V30 27 2 27 28
M  V30 28 1 27 29
M  V30 29 2 29 30
M  V30 30 1 30 31
M  V30 31 1 31 32
M  V30 32 2 32 33
M  V30 33 2 17 34
M  V30 34 1 8 35
M  V30 35 2 35 36
M  V30 36 1 36 5
M  V30 37 1 34 13
M  V30 38 1 33 23
M  V30 39 1 32 26
M  V30 40 1 1 37
M  V30 41 1 1 38
M  V30 42 1 1 39
M  V30 43 1 3 40
M  V30 44 1 3 41
M  V30 45 1 3 42
M  V30 46 1 4 43
M  V30 47 1 4 44
M  V30 48 1 4 45
M  V30 49 1 6 46
M  V30 50 1 7 47
M  V30 51 1 12 48
M  V30 52 1 14 49
M  V30 53 1 15 50
M  V30 54 1 16 51
M  V30 55 1 18 52
M  V30 56 1 21 53
M  V30 57 1 21 54
M  V30 58 1 24 55
M  V30 59 1 25 56
M  V30 60 1 29 57
M  V30 61 1 30 58
M  V30 62 1 33 59
M  V30 63 1 34 60
M  V30 64 1 35 61
M  V30 65 1 36 62
M  V30 END BOND
M  V30 END CTAB
M  END
>  <Dataset>  (235) 
ChEMBL_Kinases

>  <Ligand_Instance>  (235) 
nan

>  <PDB_ID>  (235) 
nan

>  <Standardized_SMILES>  (235) 
CC(C)(C)c1ccc(S(=O)(=O)Nc2cccc(NC(=O)COc3ccc4c(=O)ccoc4c3)c2)cc1

>  <Name>  (235) 
nan

>  <Pocket>  (235) 
nan

>  <ATP_Site>  (235) 
nan

>  <Peripheral>  (235) 
nan

>  <Num_H_Atoms_ProtBoundConf>  (235) 
nan

>  <Num_Resolved_Atoms>  (235) 
nan

>  <Num_Not_Resolved_Atoms>  (235) 
nan

$$$$
CHEMBL4467062
     RDKit          3D

  0  0  0  0  0  0  0  0  0  0999 V3000
M  V30 BEGIN CTAB
M  V30 COUNTS 76 81 0 0 0
M  V30 BEGIN ATOM
M  V30 1 C 2.931853 1.123686 2.643785 0
M  V30 2 C 3.150013 0.132461 1.550053 0
M  V30 3 C 2.008515 0.011756 0.750034 0
M  V30 4 C 1.896123 -0.823948 -0.362786 0
M  V30 5 C 0.678819 -0.899992 -1.145933 0
M  V30 6 C 0.800702 -0.503349 -2.485781 0
M  V30 7 N -0.437746 -0.570884 -3.070772 0
M  V30 8 N -1.289821 -0.989156 -2.142270 0
M  V30 9 C -2.596248 -1.254877 -2.111606 0
M  V30 10 N -3.471266 -1.105144 -3.210482 0
M  V30 11 C -4.366593 -0.084329 -3.632620 0
M  V30 12 C -3.759346 1.243985 -3.964975 0
M  V30 13 C -3.016320 1.909318 -2.860129 0
M  V30 14 C -3.241381 3.423265 -3.052290 0
M  V30 15 O -4.540663 3.755584 -2.704670 0
M  V30 16 C -5.478823 2.916708 -3.258223 0
M  V30 17 C -4.889638 2.172544 -4.418252 0
M  V30 18 C -3.224207 -1.710732 -0.963039 0
M  V30 19 C -2.518712 -1.909998 0.200797 0
M  V30 20 N -3.180228 -2.392413 1.377580 0
M  V30 21 C -2.422723 -2.678204 2.590822 0 CFG=1
M  V30 22 C -3.335875 -3.146589 3.694365 0
M  V30 23 C -2.545142 -3.139908 4.987655 0
M  V30 24 C -1.205722 -3.804126 4.733362 0
M  V30 25 C -1.254627 -4.645572 3.460591 0
M  V30 26 C -1.502116 -3.843453 2.224146 0 CFG=1
M  V30 27 O -2.238164 -4.635324 1.306282 0
M  V30 28 N -1.179429 -1.639541 0.188952 0
M  V30 29 C -0.646014 -1.196910 -0.975071 0
M  V30 30 C 3.028993 -1.552208 -0.628673 0
M  V30 31 C 4.183583 -1.487823 0.114973 0
M  V30 32 C 4.261825 -0.654029 1.203016 0
M  V30 33 C 5.334938 -0.345481 2.137976 0
M  V30 34 O 5.391558 -0.361537 3.369079 0
M  V30 35 N 6.579640 0.066992 1.522135 0
M  V30 36 C 7.768119 0.448894 2.246460 0
M  V30 37 C 8.658771 1.416823 1.484069 0
M  V30 38 C 9.134180 0.030595 1.890257 0
M  V30 39 H 2.656115 2.129310 2.256210 0
M  V30 40 H 3.744098 1.217483 3.356530 0
M  V30 41 H 2.028989 0.756910 3.210562 0
M  V30 42 H 1.075027 0.580997 0.927533 0
M  V30 43 H 1.560398 -0.168461 -3.182789 0
M  V30 44 H -3.348685 -1.977066 -3.746309 0
M  V30 45 H -4.888507 -0.419210 -4.581435 0
M  V30 46 H -5.140288 0.116331 -2.839689 0
M  V30 47 H -3.047161 1.178719 -4.833319 0
M  V30 48 H -3.398406 1.662892 -1.854546 0
M  V30 49 H -1.918199 1.764869 -2.928157 0
M  V30 50 H -2.547109 3.973770 -2.399192 0
M  V30 51 H -3.052339 3.733044 -4.092193 0
M  V30 52 H -5.889609 2.177476 -2.540066 0
M  V30 53 H -6.354750 3.506048 -3.652006 0
M  V30 54 H -5.700774 1.511209 -4.841492 0
M  V30 55 H -4.522815 2.868172 -5.205563 0
M  V30 56 H -4.280905 -1.936178 -0.907827 0
M  V30 57 H -4.195453 -2.531177 1.345682 0
M  V30 58 H -1.856174 -1.820253 2.966731 0
M  V30 59 H -4.258858 -2.524791 3.742472 0
M  V30 60 H -3.685558 -4.198856 3.536208 0
M  V30 61 H -2.355018 -2.078307 5.245080 0
M  V30 62 H -3.118414 -3.643301 5.809036 0
M  V30 63 H -0.384614 -3.077118 4.699698 0
M  V30 64 H -1.002485 -4.532910 5.541204 0
M  V30 65 H -0.261196 -5.128952 3.380594 0
M  V30 66 H -2.056561 -5.389155 3.617376 0
M  V30 67 H -0.599516 -3.439412 1.744501 0
M  V30 68 H -1.645580 -5.223946 0.775903 0
M  V30 69 H 3.042488 -2.233141 -1.461155 0
M  V30 70 H 5.096372 -2.035199 -0.042418 0
M  V30 71 H 6.649380 0.094830 0.456121 0
M  V30 72 H 7.577877 0.682639 3.298478 0
M  V30 73 H 8.499315 1.500150 0.382511 0
M  V30 74 H 9.065869 2.314492 1.969565 0
M  V30 75 H 9.399128 -0.688173 1.111596 0
M  V30 76 H 9.879696 0.019354 2.733203 0
M  V30 END ATOM
M  V30 BEGIN BOND
M  V30 1 1 1 2
M  V30 2 2 2 3
M  V30 3 1 3 4
M  V30 4 1 4 5
M  V30 5 1 5 6
M  V30 6 2 6 7
M  V30 7 1 7 8
M  V30 8 1 8 9
M  V30 9 1 9 10
M  V30 10 1 10 11
M  V30 11 1 11 12
M  V30 12 1 12 13
M  V30 13 1 13 14
M  V30 14 1 14 15
M  V30 15 1 15 16
M  V30 16 1 16 17
M  V30 17 2 9 18
M  V30 18 1 18 19
M  V30 19 1 19 20
M  V30 20 1 20 21
M  V30 21 1 21 22
M  V30 22 1 22 23
M  V30 23 1 23 24
M  V30 24 1 24 25
M  V30 25 1 25 26
M  V30 26 1 26 27
M  V30 27 2 19 28
M  V30 28 1 28 29
M  V30 29 2 4 30
M  V30 30 1 30 31
M  V30 31 2 31 32
M  V30 32 1 32 33
M  V30 33 2 33 34
M  V30 34 1 33 35
M  V30 35 1 35 36
M  V30 36 1 36 37
M  V30 37 1 37 38
M  V30 38 1 32 2
M  V30 39 1 38 36
M  V30 40 2 29 5
M  V30 41 1 29 8
M  V30 42 1 17 12
M  V30 43 1 26 21
M  V30 44 1 1 39
M  V30 45 1 1 40
M  V30 46 1 1 41
M  V30 47 1 3 42
M  V30 48 1 6 43
M  V30 49 1 10 44
M  V30 50 1 11 45
M  V30 51 1 11 46
M  V30 52 1 12 47
M  V30 53 1 13 48
M  V30 54 1 13 49
M  V30 55 1 14 50
M  V30 56 1 14 51
M  V30 57 1 16 52
M  V30 58 1 16 53
M  V30 59 1 17 54
M  V30 60 1 17 55
M  V30 61 1 18 56
M  V30 62 1 20 57
M  V30 63 1 21 58 CFG=1
M  V30 64 1 22 59
M  V30 65 1 22 60
M  V30 66 1 23 61
M  V30 67 1 23 62
M  V30 68 1 24 63
M  V30 69 1 24 64
M  V30 70 1 25 65
M  V30 71 1 25 66
M  V30 72 1 26 67 CFG=3
M  V30 73 1 27 68
M  V30 74 1 30 69
M  V30 75 1 31 70
M  V30 76 1 35 71
M  V30 77 1 36 72
M  V30 78 1 37 73
M  V30 79 1 37 74
M  V30 80 1 38 75
M  V30 81 1 38 76
M  V30 END BOND
M  V30 END CTAB
M  END
>  <Dataset>  (236) 
ChEMBL_Kinases

>  <Ligand_Instance>  (236) 
nan

>  <PDB_ID>  (236) 
nan

>  <Standardized_SMILES>  (236) 
Cc1cc(-c2cnn3c(NCC4CCOCC4)cc(N[C@H]4CCCC[C@H]4O)nc23)ccc1C(=O)NC1CC1

>  <Name>  (236) 
nan

>  <Pocket>  (236) 
nan

>  <ATP_Site>  (236) 
nan

>  <Peripheral>  (236) 
nan

>  <Num_H_Atoms_ProtBoundConf>  (236) 
nan

>  <Num_Resolved_Atoms>  (236) 
nan

>  <Num_Not_Resolved_Atoms>  (236) 
nan

$$$$
CHEMBL4467041
     RDKit          3D

  0  0  0  0  0  0  0  0  0  0999 V3000
M  V30 BEGIN CTAB
M  V30 COUNTS 50 52 0 0 0
M  V30 BEGIN ATOM
M  V30 1 C 1.403797 -5.779581 0.787974 0
M  V30 2 O 0.681330 -4.573074 0.894490 0
M  V30 3 C 1.134445 -3.354494 0.480867 0
M  V30 4 C 2.386432 -3.270602 -0.087481 0
M  V30 5 C 2.876910 -2.056520 -0.519702 0
M  V30 6 C 4.146533 -1.708665 -1.141603 0
M  V30 7 O 5.320561 -1.804982 -0.692443 0
M  V30 8 N 3.995698 -1.175050 -2.474861 0
M  V30 9 C 2.730177 -0.986702 -3.180275 0
M  V30 10 C 5.163120 -0.758441 -3.251933 0
M  V30 11 C 2.071649 -0.935847 -0.362705 0
M  V30 12 C 0.823837 -1.030084 0.205654 0
M  V30 13 C 0.313967 -2.253829 0.648492 0
M  V30 14 N -0.977233 -2.340555 1.253485 0
M  V30 15 C -1.742506 -1.150618 1.313336 0
M  V30 16 N -1.695611 -0.114470 2.179443 0
M  V30 17 C -2.527141 0.930145 2.062222 0
M  V30 18 O -2.434264 1.961142 2.971162 0
M  V30 19 C -1.444219 1.857886 3.992012 0
M  V30 20 C -2.109098 2.085264 5.330150 0
M  V30 21 C -0.473406 3.026732 3.787363 0
M  V30 22 C -3.489343 1.018980 1.048568 0
M  V30 23 C -4.435081 1.940180 0.706431 0
M  V30 24 C -5.061449 1.423582 -0.405031 0
M  V30 25 N -4.483976 0.237601 -0.684763 0
M  V30 26 C -3.501335 -0.066503 0.183422 0
M  V30 27 N -2.661679 -1.120610 0.301810 0
M  V30 28 H 2.444052 -5.631822 1.178676 0
M  V30 29 H 0.978917 -6.595316 1.373940 0
M  V30 30 H 1.513666 -5.994860 -0.298493 0
M  V30 31 H 3.079589 -4.081689 -0.248686 0
M  V30 32 H 2.323932 0.045415 -3.053810 0
M  V30 33 H 2.855689 -1.197733 -4.249406 0
M  V30 34 H 1.955703 -1.697409 -2.800976 0
M  V30 35 H 4.992375 -0.838865 -4.333504 0
M  V30 36 H 6.024866 -1.356538 -2.940335 0
M  V30 37 H 5.304058 0.330137 -3.020090 0
M  V30 38 H 2.330227 0.087474 -0.660021 0
M  V30 39 H 0.169404 -0.154563 0.339031 0
M  V30 40 H -1.281872 -3.266146 1.614376 0
M  V30 41 H -0.892547 0.907272 3.931062 0
M  V30 42 H -1.373428 2.281424 6.141697 0
M  V30 43 H -2.801254 2.954566 5.198740 0
M  V30 44 H -2.778773 1.223272 5.534571 0
M  V30 45 H -0.209146 3.131583 2.712434 0
M  V30 46 H 0.439367 2.825957 4.383942 0
M  V30 47 H -0.922164 3.966593 4.205334 0
M  V30 48 H -4.638982 2.869537 1.206840 0
M  V30 49 H -5.864808 1.936083 -0.907712 0
M  V30 50 H -4.759463 -0.386691 -1.484431 0
M  V30 END ATOM
M  V30 BEGIN BOND
M  V30 1 1 1 2
M  V30 2 1 2 3
M  V30 3 2 3 4
M  V30 4 1 4 5
M  V30 5 1 5 6
M  V30 6 2 6 7
M  V30 7 1 6 8
M  V30 8 1 8 9
M  V30 9 1 8 10
M  V30 10 2 5 11
M  V30 11 1 11 12
M  V30 12 2 12 13
M  V30 13 1 13 14
M  V30 14 1 14 15
M  V30 15 2 15 16
M  V30 16 1 16 17
M  V30 17 1 17 18
M  V30 18 1 18 19
M  V30 19 1 19 20
M  V30 20 1 19 21
M  V30 21 2 17 22
M  V30 22 1 22 23
M  V30 23 2 23 24
M  V30 24 1 24 25
M  V30 25 1 25 26
M  V30 26 2 26 27
M  V30 27 1 13 3
M  V30 28 1 27 15
M  V30 29 1 26 22
M  V30 30 1 1 28
M  V30 31 1 1 29
M  V30 32 1 1 30
M  V30 33 1 4 31
M  V30 34 1 9 32
M  V30 35 1 9 33
M  V30 36 1 9 34
M  V30 37 1 10 35
M  V30 38 1 10 36
M  V30 39 1 10 37
M  V30 40 1 11 38
M  V30 41 1 12 39
M  V30 42 1 14 40
M  V30 43 1 19 41
M  V30 44 1 20 42
M  V30 45 1 20 43
M  V30 46 1 20 44
M  V30 47 1 21 45
M  V30 48 1 21 46
M  V30 49 1 21 47
M  V30 50 1 23 48
M  V30 51 1 24 49
M  V30 52 1 25 50
M  V30 END BOND
M  V30 END CTAB
M  END
>  <Dataset>  (237) 
ChEMBL_Kinases

>  <Ligand_Instance>  (237) 
nan

>  <PDB_ID>  (237) 
nan

>  <Standardized_SMILES>  (237) 
COc1cc(C(=O)N(C)C)ccc1Nc1nc(OC(C)C)c2cc[nH]c2n1

>  <Name>  (237) 
nan

>  <Pocket>  (237) 
nan

>  <ATP_Site>  (237) 
nan

>  <Peripheral>  (237) 
nan

>  <Num_H_Atoms_ProtBoundConf>  (237) 
nan

>  <Num_Resolved_Atoms>  (237) 
nan

>  <Num_Not_Resolved_Atoms>  (237) 
nan

$$$$
CHEMBL472043
     RDKit          3D

  0  0  0  0  0  0  0  0  0  0999 V3000
M  V30 BEGIN CTAB
M  V30 COUNTS 55 59 0 0 0
M  V30 BEGIN ATOM
M  V30 1 C 4.252463 0.449209 7.997827 0
M  V30 2 O 4.250602 1.664315 7.262348 0
M  V30 3 C 4.067432 1.546256 5.869611 0
M  V30 4 C 4.061729 2.731250 5.124678 0
M  V30 5 C 3.884470 2.646585 3.759357 0
M  V30 6 C 3.713593 1.444421 3.105007 0
M  V30 7 N 3.524318 1.195533 1.738750 0
M  V30 8 C 4.598328 1.123685 0.921182 0
M  V30 9 N 4.209093 0.879265 -0.342363 0
M  V30 10 C 2.849682 0.789244 -0.351413 0
M  V30 11 C 1.887707 0.559933 -1.312941 0
M  V30 12 C 0.547902 0.540590 -0.921503 0
M  V30 13 C 0.173266 0.743566 0.389789 0
M  V30 14 C -1.250427 0.705442 0.703546 0
M  V30 15 N -1.897119 0.865429 1.870619 0
M  V30 16 N -3.208552 0.749117 1.688904 0
M  V30 17 C -3.366695 0.509739 0.364680 0
M  V30 18 S -4.957575 0.281854 -0.358470 0
M  V30 19 C -4.925173 -0.023629 -2.131875 0
M  V30 20 C -4.298981 -1.300273 -2.515363 0
M  V30 21 C -2.950166 -1.455940 -2.787903 0
M  V30 22 C -2.428702 -2.683183 -3.143808 0
M  V30 23 C -3.223444 -3.817941 -3.246555 0
M  V30 24 O -2.725671 -5.063472 -3.602224 0
M  V30 25 C -1.337818 -5.152892 -3.867195 0
M  V30 26 C -4.566183 -3.656737 -2.973943 0
M  V30 27 C -5.422223 -4.875661 -3.085551 0
M  V30 28 F -5.039240 -5.882545 -2.238064 0
M  V30 29 F -5.429826 -5.366808 -4.374217 0
M  V30 30 F -6.713329 -4.525322 -2.744808 0
M  V30 31 C -5.116747 -2.433696 -2.613676 0
M  V30 32 O -2.179683 0.489649 -0.195084 0
M  V30 33 C 1.125373 0.976448 1.375256 0
M  V30 34 C 2.447628 0.987812 0.944656 0
M  V30 35 C 3.721364 0.267322 3.862390 0
M  V30 36 C 3.898712 0.331101 5.240396 0
M  V30 37 H 5.029344 -0.208734 7.562022 0
M  V30 38 H 4.500383 0.611047 9.045407 0
M  V30 39 H 3.290521 -0.099365 7.870503 0
M  V30 40 H 4.187465 3.704969 5.555112 0
M  V30 41 H 3.863328 3.512003 3.078090 0
M  V30 42 H 5.664255 1.232617 1.149260 0
M  V30 43 H 2.190571 0.401671 -2.338780 0
M  V30 44 H -0.156409 0.356580 -1.718298 0
M  V30 45 H -4.476309 0.841871 -2.692479 0
M  V30 46 H -5.985420 -0.050193 -2.465867 0
M  V30 47 H -2.303152 -0.592894 -2.717630 0
M  V30 48 H -1.367769 -2.819083 -3.360847 0
M  V30 49 H -1.018612 -6.220954 -3.988439 0
M  V30 50 H -0.997826 -4.520607 -4.701143 0
M  V30 51 H -0.817902 -4.796296 -2.932312 0
M  V30 52 H -6.188527 -2.390799 -2.414079 0
M  V30 53 H 0.841695 1.136530 2.404457 0
M  V30 54 H 3.601790 -0.718988 3.489288 0
M  V30 55 H 3.911548 -0.559979 5.870943 0
M  V30 END ATOM
M  V30 BEGIN BOND
M  V30 1 1 1 2
M  V30 2 1 2 3
M  V30 3 2 3 4
M  V30 4 1 4 5
M  V30 5 2 5 6
M  V30 6 1 6 7
M  V30 7 1 7 8
M  V30 8 2 8 9
M  V30 9 1 9 10
M  V30 10 2 10 11
M  V30 11 1 11 12
M  V30 12 2 12 13
M  V30 13 1 13 14
M  V30 14 2 14 15
M  V30 15 1 15 16
M  V30 16 2 16 17
M  V30 17 1 17 18
M  V30 18 1 18 19
M  V30 19 1 19 20
M  V30 20 2 20 21
M  V30 21 1 21 22
M  V30 22 2 22 23
M  V30 23 1 23 24
M  V30 24 1 24 25
M  V30 25 1 23 26
M  V30 26 1 26 27
M  V30 27 1 27 28
M  V30 28 1 27 29
M  V30 29 1 27 30
M  V30 30 2 26 31
M  V30 31 1 17 32
M  V30 32 1 13 33
M  V30 33 2 33 34
M  V30 34 1 6 35
M  V30 35 2 35 36
M  V30 36 1 36 3
M  V30 37 1 34 7
M  V30 38 1 34 10
M  V30 39 1 32 14
M  V30 40 1 31 20
M  V30 41 1 1 37
M  V30 42 1 1 38
M  V30 43 1 1 39
M  V30 44 1 4 40
M  V30 45 1 5 41
M  V30 46 1 8 42
M  V30 47 1 11 43
M  V30 48 1 12 44
M  V30 49 1 19 45
M  V30 50 1 19 46
M  V30 51 1 21 47
M  V30 52 1 22 48
M  V30 53 1 25 49
M  V30 54 1 25 50
M  V30 55 1 25 51
M  V30 56 1 31 52
M  V30 57 1 33 53
M  V30 58 1 35 54
M  V30 59 1 36 55
M  V30 END BOND
M  V30 END CTAB
M  END
>  <Dataset>  (238) 
ChEMBL_Kinases

>  <Ligand_Instance>  (238) 
nan

>  <PDB_ID>  (238) 
nan

>  <Standardized_SMILES>  (238) 
COc1ccc(-n2cnc3ccc(-c4nnc(SCc5ccc(OC)c(C(F)(F)F)c5)o4)cc32)cc1

>  <Name>  (238) 
nan

>  <Pocket>  (238) 
nan

>  <ATP_Site>  (238) 
nan

>  <Peripheral>  (238) 
nan

>  <Num_H_Atoms_ProtBoundConf>  (238) 
nan

>  <Num_Resolved_Atoms>  (238) 
nan

>  <Num_Not_Resolved_Atoms>  (238) 
nan

$$$$
CHEMBL472148
     RDKit          3D

  0  0  0  0  0  0  0  0  0  0999 V3000
M  V30 BEGIN CTAB
M  V30 COUNTS 60 65 0 0 0
M  V30 BEGIN ATOM
M  V30 1 C 8.185343 -0.009151 6.715424 0
M  V30 2 C 7.167827 1.057979 6.511223 0
M  V30 3 O 7.192766 2.165603 7.108436 0
M  V30 4 C 6.071654 0.824587 5.568880 0
M  V30 5 C 5.121635 1.797568 5.366131 0
M  V30 6 C 4.063209 1.601166 4.471553 0
M  V30 7 C 3.972797 0.415552 3.784715 0
M  V30 8 C 2.931060 0.065465 2.822887 0
M  V30 9 C 3.141295 -0.766000 1.740225 0
M  V30 10 C 2.092862 -1.037181 0.887707 0
M  V30 11 C 0.822202 -0.532746 1.033453 0
M  V30 12 C -0.324799 -0.693111 0.294056 0
M  V30 13 C -0.606987 -1.453498 -0.907674 0
M  V30 14 N -1.837664 -1.451279 -1.453159 0
M  V30 15 C -1.917652 -2.205207 -2.555132 0
M  V30 16 C -2.946344 -2.498633 -3.428551 0
M  V30 17 N -4.233569 -1.929180 -3.196654 0
M  V30 18 C -4.881765 -2.256736 -1.919800 0
M  V30 19 C -5.287452 -0.960893 -1.259149 0
M  V30 20 N -5.968768 -0.048476 -2.106186 0
M  V30 21 C -7.385552 0.016030 -1.976198 0
M  V30 22 C -5.441879 0.150170 -3.409454 0
M  V30 23 C -4.936533 -1.067811 -4.110023 0
M  V30 24 C -2.670291 -3.345616 -4.503287 0
M  V30 25 C -1.398062 -3.866295 -4.672597 0
M  V30 26 C -0.361187 -3.577502 -3.802047 0
M  V30 27 C -0.663445 -2.738400 -2.750108 0
M  V30 28 N 0.065130 -2.250706 -1.735548 0
M  V30 29 N -1.208603 0.070105 0.979223 0
M  V30 30 N -0.651861 0.636232 2.029082 0
M  V30 31 C 0.644881 0.293343 2.123232 0
M  V30 32 C 1.666502 0.591654 3.002133 0
M  V30 33 C 4.915693 -0.576915 3.971934 0
M  V30 34 C 5.956218 -0.356141 4.865853 0
M  V30 35 H 8.762532 -0.160872 5.794164 0
M  V30 36 H 7.677153 -0.978666 6.987936 0
M  V30 37 H 8.821525 0.262173 7.585143 0
M  V30 38 H 5.145299 2.750210 5.881332 0
M  V30 39 H 3.297580 2.335489 4.282097 0
M  V30 40 H 4.130773 -1.178022 1.599453 0
M  V30 41 H 2.325301 -1.689434 0.068519 0
M  V30 42 H -5.758626 -2.907584 -2.078315 0
M  V30 43 H -4.188273 -2.770560 -1.232375 0
M  V30 44 H -4.386401 -0.468712 -0.801949 0
M  V30 45 H -5.961753 -1.236164 -0.422573 0
M  V30 46 H -7.676214 -0.271490 -0.959902 0
M  V30 47 H -7.950017 -0.634216 -2.701020 0
M  V30 48 H -7.690473 1.090678 -2.128737 0
M  V30 49 H -6.260112 0.575850 -4.039093 0
M  V30 50 H -4.638161 0.919364 -3.387306 0
M  V30 51 H -4.231340 -0.728405 -4.904077 0
M  V30 52 H -5.751896 -1.637117 -4.601476 0
M  V30 53 H -3.469724 -3.583674 -5.196228 0
M  V30 54 H -1.162832 -4.530012 -5.506425 0
M  V30 55 H 0.647144 -3.960307 -3.894007 0
M  V30 56 H 1.065415 -2.487467 -1.624456 0
M  V30 57 H -1.187485 1.257326 2.668717 0
M  V30 58 H 1.438508 1.253131 3.836237 0
M  V30 59 H 4.925344 -1.550353 3.470814 0
M  V30 60 H 6.744744 -1.080104 5.077815 0
M  V30 END ATOM
M  V30 BEGIN BOND
M  V30 1 1 1 2
M  V30 2 2 2 3
M  V30 3 1 2 4
M  V30 4 2 4 5
M  V30 5 1 5 6
M  V30 6 2 6 7
M  V30 7 1 7 8
M  V30 8 2 8 9
M  V30 9 1 9 10
M  V30 10 2 10 11
M  V30 11 1 11 12
M  V30 12 1 12 13
M  V30 13 2 13 14
M  V30 14 1 14 15
M  V30 15 2 15 16
M  V30 16 1 16 17
M  V30 17 1 17 18
M  V30 18 1 18 19
M  V30 19 1 19 20
M  V30 20 1 20 21
M  V30 21 1 20 22
M  V30 22 1 22 23
M  V30 23 1 16 24
M  V30 24 2 24 25
M  V30 25 1 25 26
M  V30 26 2 26 27
M  V30 27 1 27 28
M  V30 28 2 12 29
M  V30 29 1 29 30
M  V30 30 1 30 31
M  V30 31 2 31 32
M  V30 32 1 7 33
M  V30 33 2 33 34
M  V30 34 1 34 4
M  V30 35 1 32 8
M  V30 36 1 31 11
M  V30 37 1 28 13
M  V30 38 1 27 15
M  V30 39 1 23 17
M  V30 40 1 1 35
M  V30 41 1 1 36
M  V30 42 1 1 37
M  V30 43 1 5 38
M  V30 44 1 6 39
M  V30 45 1 9 40
M  V30 46 1 10 41
M  V30 47 1 18 42
M  V30 48 1 18 43
M  V30 49 1 19 44
M  V30 50 1 19 45
M  V30 51 1 21 46
M  V30 52 1 21 47
M  V30 53 1 21 48
M  V30 54 1 22 49
M  V30 55 1 22 50
M  V30 56 1 23 51
M  V30 57 1 23 52
M  V30 58 1 24 53
M  V30 59 1 25 54
M  V30 60 1 26 55
M  V30 61 1 28 56
M  V30 62 1 30 57
M  V30 63 1 32 58
M  V30 64 1 33 59
M  V30 65 1 34 60
M  V30 END BOND
M  V30 END CTAB
M  END
>  <Dataset>  (239) 
ChEMBL_Kinases

>  <Ligand_Instance>  (239) 
nan

>  <PDB_ID>  (239) 
nan

>  <Standardized_SMILES>  (239) 
CC(=O)c1ccc(-c2ccc3c(-c4nc5c(N6CCN(C)CC6)cccc5[nH]4)n[nH]c3c2)cc1

>  <Name>  (239) 
nan

>  <Pocket>  (239) 
nan

>  <ATP_Site>  (239) 
nan

>  <Peripheral>  (239) 
nan

>  <Num_H_Atoms_ProtBoundConf>  (239) 
nan

>  <Num_Resolved_Atoms>  (239) 
nan

>  <Num_Not_Resolved_Atoms>  (239) 
nan

$$$$
CHEMBL472353
     RDKit          3D

  0  0  0  0  0  0  0  0  0  0999 V3000
M  V30 BEGIN CTAB
M  V30 COUNTS 56 58 0 0 0
M  V30 BEGIN ATOM
M  V30 1 C 3.048876 -2.682224 2.721599 0
M  V30 2 C 1.673337 -2.887553 2.118181 0
M  V30 3 C 1.783864 -3.102043 0.631488 0
M  V30 4 C 2.410100 -1.928311 -0.001327 0
M  V30 5 O 3.545138 -1.909252 -0.569796 0
M  V30 6 O 2.044823 -0.607804 -0.180238 0
M  V30 7 C 2.948897 0.270160 -0.864831 0
M  V30 8 C 2.349707 1.632396 -0.912012 0
M  V30 9 C 3.263744 2.642421 -1.568013 0
M  V30 10 O 3.407073 2.274886 -2.900040 0
M  V30 11 C 1.963409 2.050165 0.486408 0
M  V30 12 C 0.523541 1.696941 0.543555 0
M  V30 13 C -0.348693 1.801893 1.557650 0
M  V30 14 C -1.744060 1.443820 1.551699 0
M  V30 15 C -2.705674 1.747005 0.613042 0
M  V30 16 C -4.016853 1.331718 0.683206 0
M  V30 17 C -4.391628 0.558266 1.771570 0
M  V30 18 O -5.744690 0.163069 1.789167 0
M  V30 19 C -6.054425 -1.081427 1.142804 0
M  V30 20 F -5.395236 -2.144355 1.691142 0
M  V30 21 F -5.717791 -0.998727 -0.210591 0
M  V30 22 F -7.398520 -1.318665 1.205106 0
M  V30 23 C -3.474779 0.221378 2.746126 0
M  V30 24 C -2.175798 0.666380 2.621287 0
M  V30 25 C 0.161751 1.138771 -0.752046 0
M  V30 26 O -0.811224 0.357276 -0.950370 0
M  V30 27 O 1.119652 1.678682 -1.597502 0
M  V30 28 C 0.522654 -3.467374 -0.004376 0
M  V30 29 C -0.656020 -2.715376 0.076654 0
M  V30 30 C -1.793045 -3.150927 -0.559471 0
M  V30 31 C -1.871055 -4.310809 -1.298495 0
M  V30 32 C -0.725206 -5.067352 -1.393144 0
M  V30 33 C 0.421143 -4.642269 -0.760341 0
M  V30 34 H 2.966663 -2.412894 3.795236 0
M  V30 35 H 3.556696 -1.791394 2.252471 0
M  V30 36 H 3.684028 -3.588737 2.674999 0
M  V30 37 H 1.273924 -3.821981 2.586346 0
M  V30 38 H 1.056311 -2.031050 2.393598 0
M  V30 39 H 2.515509 -3.946881 0.475421 0
M  V30 40 H 3.187279 -0.115701 -1.882853 0
M  V30 41 H 3.907907 0.292596 -0.309151 0
M  V30 42 H 2.747866 3.618503 -1.555203 0
M  V30 43 H 4.268578 2.676856 -1.115941 0
M  V30 44 H 2.551852 2.073587 -3.343490 0
M  V30 45 H 2.559348 1.534547 1.260837 0
M  V30 46 H 2.008337 3.152627 0.617117 0
M  V30 47 H 0.028112 2.207270 2.512163 0
M  V30 48 H -2.409511 2.355865 -0.209706 0
M  V30 49 H -4.718332 1.603500 -0.084339 0
M  V30 50 H -3.818931 -0.388801 3.582819 0
M  V30 51 H -1.532999 0.353156 3.430996 0
M  V30 52 H -0.534582 -1.822243 0.669742 0
M  V30 53 H -2.672258 -2.533049 -0.463250 0
M  V30 54 H -2.769104 -4.630338 -1.785920 0
M  V30 55 H -0.709035 -5.993563 -1.957451 0
M  V30 56 H 1.312833 -5.258500 -0.849687 0
M  V30 END ATOM
M  V30 BEGIN BOND
M  V30 1 1 1 2
M  V30 2 1 2 3
M  V30 3 1 3 4
M  V30 4 2 4 5
M  V30 5 1 4 6
M  V30 6 1 6 7
M  V30 7 1 7 8
M  V30 8 1 8 9
M  V30 9 1 9 10
M  V30 10 1 8 11
M  V30 11 1 11 12
M  V30 12 2 12 13
M  V30 13 1 13 14
M  V30 14 2 14 15
M  V30 15 1 15 16
M  V30 16 2 16 17
M  V30 17 1 17 18
M  V30 18 1 18 19
M  V30 19 1 19 20
M  V30 20 1 19 21
M  V30 21 1 19 22
M  V30 22 1 17 23
M  V30 23 2 23 24
M  V30 24 1 12 25
M  V30 25 2 25 26
M  V30 26 1 25 27
M  V30 27 1 3 28
M  V30 28 2 28 29
M  V30 29 1 29 30
M  V30 30 2 30 31
M  V30 31 1 31 32
M  V30 32 2 32 33
M  V30 33 1 27 8
M  V30 34 1 33 28
M  V30 35 1 24 14
M  V30 36 1 1 34
M  V30 37 1 1 35
M  V30 38 1 1 36
M  V30 39 1 2 37
M  V30 40 1 2 38
M  V30 41 1 3 39
M  V30 42 1 7 40
M  V30 43 1 7 41
M  V30 44 1 9 42
M  V30 45 1 9 43
M  V30 46 1 10 44
M  V30 47 1 11 45
M  V30 48 1 11 46
M  V30 49 1 13 47
M  V30 50 1 15 48
M  V30 51 1 16 49
M  V30 52 1 23 50
M  V30 53 1 24 51
M  V30 54 1 29 52
M  V30 55 1 30 53
M  V30 56 1 31 54
M  V30 57 1 32 55
M  V30 58 1 33 56
M  V30 END BOND
M  V30 END CTAB
M  END
>  <Dataset>  (240) 
ChEMBL_Kinases

>  <Ligand_Instance>  (240) 
nan

>  <PDB_ID>  (240) 
nan

>  <Standardized_SMILES>  (240) 
CCC(C(=O)OCC1(CO)C/C(=C/c2ccc(OC(F)(F)F)cc2)C(=O)O1)c1ccccc1

>  <Name>  (240) 
nan

>  <Pocket>  (240) 
nan

>  <ATP_Site>  (240) 
nan

>  <Peripheral>  (240) 
nan

>  <Num_H_Atoms_ProtBoundConf>  (240) 
nan

>  <Num_Resolved_Atoms>  (240) 
nan

>  <Num_Not_Resolved_Atoms>  (240) 
nan

$$$$
CHEMBL472174
     RDKit          3D

  0  0  0  0  0  0  0  0  0  0999 V3000
M  V30 BEGIN CTAB
M  V30 COUNTS 53 55 0 0 0
M  V30 BEGIN ATOM
M  V30 1 C 1.366709 -5.509727 0.766053 0
M  V30 2 N 2.555032 -4.718463 0.420880 0
M  V30 3 C 3.722395 -5.492254 0.002675 0
M  V30 4 C 2.520868 -3.306415 0.503370 0
M  V30 5 C 3.640446 -2.584678 0.183851 0
M  V30 6 C 3.520420 -1.208572 0.286304 0
M  V30 7 C 2.321002 -0.659100 0.691046 0
M  V30 8 C 2.442256 0.791714 0.710005 0
M  V30 9 O 2.641119 1.986939 0.693638 0
M  V30 10 O 1.293277 1.415079 1.105559 0
M  V30 11 C 0.998749 2.768121 1.250347 0
M  V30 12 C -0.439962 2.894096 1.725299 0
M  V30 13 C -0.807291 4.345556 1.895211 0
M  V30 14 O -0.693468 5.050813 0.687716 0
M  V30 15 C -1.381824 2.148705 0.785573 0
M  V30 16 C -2.073922 1.206958 1.698772 0
M  V30 17 C -2.765480 0.084047 1.408369 0
M  V30 18 C -2.936617 -0.394283 0.041931 0
M  V30 19 C -3.155122 0.325235 -1.091726 0
M  V30 20 C -3.283885 -0.282338 -2.329652 0
M  V30 21 C -3.189142 -1.670569 -2.432275 0
M  V30 22 C -2.968885 -2.469965 -1.330317 0
M  V30 23 C -2.852738 -1.785416 -0.136617 0
M  V30 24 N -2.625443 -2.621754 1.014742 0 CHG=1 VAL=4
M  V30 25 O -2.056323 -2.617792 2.120735 0
M  V30 26 O -3.077802 -3.898272 1.214654 0 CHG=-1 VAL=1
M  V30 27 C -1.860400 1.719741 3.074479 0
M  V30 28 O -2.735273 1.606459 3.982728 0
M  V30 29 O -0.576665 2.260573 2.977470 0
M  V30 30 C 1.194378 -1.364253 1.014503 0
M  V30 31 C 1.350065 -2.719699 0.901515 0
M  V30 32 H 1.577320 -6.589828 0.767413 0
M  V30 33 H 0.560366 -5.345971 0.032645 0
M  V30 34 H 1.061846 -5.166434 1.775329 0
M  V30 35 H 4.369644 -5.735076 0.870123 0
M  V30 36 H 3.393105 -6.478366 -0.425504 0
M  V30 37 H 4.225996 -4.942997 -0.792752 0
M  V30 38 H 4.547886 -3.071026 -0.123857 0
M  V30 39 H 4.443299 -0.682394 0.018754 0
M  V30 40 H 1.160306 3.396151 0.356944 0
M  V30 41 H 1.646146 3.175957 2.081438 0
M  V30 42 H -1.911694 4.373350 2.121931 0
M  V30 43 H -0.290981 4.812013 2.733173 0
M  V30 44 H -1.109366 5.929409 0.731293 0
M  V30 45 H -2.072422 2.954118 0.398733 0
M  V30 46 H -0.792388 1.670924 -0.000553 0
M  V30 47 H -3.238368 -0.525567 2.196443 0
M  V30 48 H -3.222587 1.383998 -0.966502 0
M  V30 49 H -3.455161 0.305621 -3.211430 0
M  V30 50 H -3.294199 -2.099221 -3.417071 0
M  V30 51 H -2.892029 -3.531492 -1.382279 0
M  V30 52 H 0.324005 -0.819440 1.315929 0
M  V30 53 H 0.468870 -3.328194 1.150566 0
M  V30 END ATOM
M  V30 BEGIN BOND
M  V30 1 1 1 2
M  V30 2 1 2 3
M  V30 3 1 2 4
M  V30 4 2 4 5
M  V30 5 1 5 6
M  V30 6 2 6 7
M  V30 7 1 7 8
M  V30 8 2 8 9
M  V30 9 1 8 10
M  V30 10 1 10 11
M  V30 11 1 11 12
M  V30 12 1 12 13
M  V30 13 1 13 14
M  V30 14 1 12 15
M  V30 15 1 15 16
M  V30 16 2 16 17
M  V30 17 1 17 18
M  V30 18 2 18 19
M  V30 19 1 19 20
M  V30 20 2 20 21
M  V30 21 1 21 22
M  V30 22 2 22 23
M  V30 23 1 23 24
M  V30 24 2 24 25
M  V30 25 1 24 26
M  V30 26 1 16 27
M  V30 27 2 27 28
M  V30 28 1 27 29
M  V30 29 1 7 30
M  V30 30 2 30 31
M  V30 31 1 31 4
M  V30 32 1 29 12
M  V30 33 1 23 18
M  V30 34 1 1 32
M  V30 35 1 1 33
M  V30 36 1 1 34
M  V30 37 1 3 35
M  V30 38 1 3 36
M  V30 39 1 3 37
M  V30 40 1 5 38
M  V30 41 1 6 39
M  V30 42 1 11 40
M  V30 43 1 11 41
M  V30 44 1 13 42
M  V30 45 1 13 43
M  V30 46 1 14 44
M  V30 47 1 15 45
M  V30 48 1 15 46
M  V30 49 1 17 47
M  V30 50 1 19 48
M  V30 51 1 20 49
M  V30 52 1 21 50
M  V30 53 1 22 51
M  V30 54 1 30 52
M  V30 55 1 31 53
M  V30 END BOND
M  V30 END CTAB
M  END
>  <Dataset>  (241) 
ChEMBL_Kinases

>  <Ligand_Instance>  (241) 
nan

>  <PDB_ID>  (241) 
nan

>  <Standardized_SMILES>  (241) 
CN(C)c1ccc(C(=O)OCC2(CO)C/C(=C\c3ccccc3[N+](=O)[O-])C(=O)O2)cc1

>  <Name>  (241) 
nan

>  <Pocket>  (241) 
nan

>  <ATP_Site>  (241) 
nan

>  <Peripheral>  (241) 
nan

>  <Num_H_Atoms_ProtBoundConf>  (241) 
nan

>  <Num_Resolved_Atoms>  (241) 
nan

>  <Num_Not_Resolved_Atoms>  (241) 
nan

$$$$
CHEMBL472183
     RDKit          3D

  0  0  0  0  0  0  0  0  0  0999 V3000
M  V30 BEGIN CTAB
M  V30 COUNTS 56 59 0 0 0
M  V30 BEGIN ATOM
M  V30 1 C 6.114878 -2.685122 2.055980 0
M  V30 2 N 4.693312 -2.593404 2.410253 0
M  V30 3 C 4.134238 -3.635028 3.226725 0
M  V30 4 C 3.921544 -1.492857 1.949654 0
M  V30 5 C 4.450627 -0.475876 1.189433 0
M  V30 6 C 3.671279 0.578527 0.759615 0
M  V30 7 C 2.357549 0.521937 1.148389 0
M  V30 8 C 1.507564 1.636497 0.744409 0
M  V30 9 O 1.404347 2.742422 0.173513 0
M  V30 10 O 0.148234 1.753159 0.994965 0
M  V30 11 C -0.635726 2.857222 0.602840 0
M  V30 12 C -2.046514 2.601158 1.052805 0
M  V30 13 C -2.949839 3.787950 0.765495 0
M  V30 14 O -2.526365 4.854338 1.548217 0
M  V30 15 C -2.632394 1.394946 0.377768 0
M  V30 16 C -2.351174 0.276601 1.347361 0
M  V30 17 C -2.419704 -1.032585 1.138592 0
M  V30 18 C -2.804293 -1.639384 -0.137621 0
M  V30 19 C -3.942460 -1.232431 -0.822055 0
M  V30 20 N -4.296219 -1.756119 -1.997393 0
M  V30 21 C -3.600031 -2.715281 -2.630020 0
M  V30 22 C -3.987084 -3.243721 -3.857438 0
M  V30 23 C -3.190946 -4.237386 -4.440734 0
M  V30 24 C -2.057877 -4.677241 -3.814136 0
M  V30 25 C -1.700101 -4.134891 -2.596146 0
M  V30 26 C -2.445480 -3.165760 -1.992283 0
M  V30 27 C -2.089602 -2.616012 -0.775703 0
M  V30 28 C -1.979313 0.939794 2.619105 0
M  V30 29 O -1.580600 0.381449 3.697047 0
M  V30 30 O -2.138877 2.333713 2.455167 0
M  V30 31 C 1.698077 -0.432407 1.906112 0
M  V30 32 C 2.583506 -1.455092 2.288217 0
M  V30 33 H 6.637575 -3.404093 2.682091 0
M  V30 34 H 6.227072 -2.880977 0.959917 0
M  V30 35 H 6.559317 -1.675813 2.205613 0
M  V30 36 H 3.392322 -4.272835 2.742612 0
M  V30 37 H 4.907462 -4.270550 3.701004 0
M  V30 38 H 3.626562 -3.128239 4.101038 0
M  V30 39 H 5.495432 -0.490308 0.916807 0
M  V30 40 H 4.028584 1.402793 0.164023 0
M  V30 41 H -0.333240 3.823756 1.057155 0
M  V30 42 H -0.602362 3.037639 -0.505623 0
M  V30 43 H -2.846087 4.061835 -0.316920 0
M  V30 44 H -3.993035 3.567685 1.030313 0
M  V30 45 H -1.989831 4.504687 2.292976 0
M  V30 46 H -2.136729 1.140765 -0.570683 0
M  V30 47 H -3.723012 1.515349 0.195961 0
M  V30 48 H -2.180326 -1.684615 1.946555 0
M  V30 49 H -4.628761 -0.497055 -0.483595 0
M  V30 50 H -4.911388 -2.841347 -4.300410 0
M  V30 51 H -3.571424 -4.595613 -5.407043 0
M  V30 52 H -1.493474 -5.454485 -4.340481 0
M  V30 53 H -0.800607 -4.492563 -2.116266 0
M  V30 54 H -1.181741 -2.963778 -0.267893 0
M  V30 55 H 0.657605 -0.381088 2.154728 0
M  V30 56 H 2.173041 -2.266133 2.892831 0
M  V30 END ATOM
M  V30 BEGIN BOND
M  V30 1 1 1 2
M  V30 2 1 2 3
M  V30 3 1 2 4
M  V30 4 2 4 5
M  V30 5 1 5 6
M  V30 6 2 6 7
M  V30 7 1 7 8
M  V30 8 2 8 9
M  V30 9 1 8 10
M  V30 10 1 10 11
M  V30 11 1 11 12
M  V30 12 1 12 13
M  V30 13 1 13 14
M  V30 14 1 12 15
M  V30 15 1 15 16
M  V30 16 2 16 17
M  V30 17 1 17 18
M  V30 18 2 18 19
M  V30 19 1 19 20
M  V30 20 2 20 21
M  V30 21 1 21 22
M  V30 22 2 22 23
M  V30 23 1 23 24
M  V30 24 2 24 25
M  V30 25 1 25 26
M  V30 26 2 26 27
M  V30 27 1 16 28
M  V30 28 2 28 29
M  V30 29 1 28 30
M  V30 30 1 7 31
M  V30 31 2 31 32
M  V30 32 1 32 4
M  V30 33 1 30 12
M  V30 34 1 27 18
M  V30 35 1 26 21
M  V30 36 1 1 33
M  V30 37 1 1 34
M  V30 38 1 1 35
M  V30 39 1 3 36
M  V30 40 1 3 37
M  V30 41 1 3 38
M  V30 42 1 5 39
M  V30 43 1 6 40
M  V30 44 1 11 41
M  V30 45 1 11 42
M  V30 46 1 13 43
M  V30 47 1 13 44
M  V30 48 1 14 45
M  V30 49 1 15 46
M  V30 50 1 15 47
M  V30 51 1 17 48
M  V30 52 1 19 49
M  V30 53 1 22 50
M  V30 54 1 23 51
M  V30 55 1 24 52
M  V30 56 1 25 53
M  V30 57 1 27 54
M  V30 58 1 31 55
M  V30 59 1 32 56
M  V30 END BOND
M  V30 END CTAB
M  END
>  <Dataset>  (242) 
ChEMBL_Kinases

>  <Ligand_Instance>  (242) 
nan

>  <PDB_ID>  (242) 
nan

>  <Standardized_SMILES>  (242) 
CN(C)c1ccc(C(=O)OCC2(CO)C/C(=C\c3cnc4ccccc4c3)C(=O)O2)cc1

>  <Name>  (242) 
nan

>  <Pocket>  (242) 
nan

>  <ATP_Site>  (242) 
nan

>  <Peripheral>  (242) 
nan

>  <Num_H_Atoms_ProtBoundConf>  (242) 
nan

>  <Num_Resolved_Atoms>  (242) 
nan

>  <Num_Not_Resolved_Atoms>  (242) 
nan

$$$$
CHEMBL472185
     RDKit          3D

  0  0  0  0  0  0  0  0  0  0999 V3000
M  V30 BEGIN CTAB
M  V30 COUNTS 60 61 0 0 0
M  V30 BEGIN ATOM
M  V30 1 C -4.804852 -0.156406 -2.890648 0
M  V30 2 C -4.620716 1.116282 -2.171121 0
M  V30 3 C -3.294654 1.332268 -1.509831 0
M  V30 4 C -2.793862 0.479207 -0.487382 0
M  V30 5 C -2.339462 -0.873891 -0.301835 0
M  V30 6 C -1.184016 -1.523305 -0.864152 0
M  V30 7 C -0.344435 -1.708242 -1.865065 0
M  V30 8 C 0.856042 -2.457698 -2.289544 0
M  V30 9 C 1.545240 -1.438870 -3.164698 0
M  V30 10 C 2.252377 -2.160339 -4.302546 0
M  V30 11 O 1.351131 -2.937794 -5.013050 0
M  V30 12 C 2.572258 -0.642017 -2.367710 0
M  V30 13 O 1.990060 0.005367 -1.273409 0
M  V30 14 C 2.728413 0.798814 -0.381560 0
M  V30 15 O 3.967946 0.864562 -0.670686 0
M  V30 16 C 2.053080 1.448196 0.742875 0
M  V30 17 C 0.977410 2.415963 0.348409 0
M  V30 18 C 0.261162 2.833487 1.595328 0
M  V30 19 C 0.748511 2.147735 2.848209 0
M  V30 20 C 2.234891 2.210020 3.031023 0
M  V30 21 C 2.979854 2.107053 1.710771 0
M  V30 22 O 0.524132 -0.594886 -3.659406 0
M  V30 23 C -0.688446 -0.912625 -3.004598 0
M  V30 24 O -1.786868 -0.558864 -3.373482 0
M  V30 25 C -3.429851 -1.869739 0.131294 0
M  V30 26 C -4.047950 -1.439424 1.452053 0
M  V30 27 H -4.264385 -1.035322 -2.561481 0
M  V30 28 H -5.881010 -0.487993 -2.940635 0
M  V30 29 H -4.552172 -0.027463 -3.993950 0
M  V30 30 H -5.470782 1.346465 -1.458947 0
M  V30 31 H -4.811335 1.928524 -2.956033 0
M  V30 32 H -3.453190 2.359209 -0.982102 0
M  V30 33 H -2.578719 1.711598 -2.288959 0
M  V30 34 H -1.868524 1.101591 -0.062950 0
M  V30 35 H -3.495695 0.767180 0.422093 0
M  V30 36 H -1.935115 -0.747136 0.783918 0
M  V30 37 H -0.758902 -2.284746 -0.103553 0
M  V30 38 H 1.484439 -2.790006 -1.445532 0
M  V30 39 H 0.504854 -3.295146 -2.923025 0
M  V30 40 H 2.774662 -1.460156 -4.960317 0
M  V30 41 H 3.006825 -2.849927 -3.883031 0
M  V30 42 H 0.952712 -2.451035 -5.763276 0
M  V30 43 H 2.922832 0.165201 -3.076817 0
M  V30 44 H 3.459384 -1.229856 -2.132342 0
M  V30 45 H 1.523915 0.640464 1.330087 0
M  V30 46 H 0.323143 1.992062 -0.436245 0
M  V30 47 H 1.476471 3.306398 -0.115273 0
M  V30 48 H -0.812336 2.597423 1.485478 0
M  V30 49 H 0.321328 3.937884 1.719191 0
M  V30 50 H 0.318066 1.129728 2.964441 0
M  V30 51 H 0.294002 2.731023 3.702329 0
M  V30 52 H 2.526886 1.311632 3.649120 0
M  V30 53 H 2.521135 3.100868 3.622643 0
M  V30 54 H 3.950860 1.586703 1.843933 0
M  V30 55 H 3.198405 3.147379 1.394574 0
M  V30 56 H -4.290174 -1.944346 -0.494476 0
M  V30 57 H -2.884901 -2.805126 0.378777 0
M  V30 58 H -4.754408 -0.604466 1.255018 0
M  V30 59 H -3.260099 -1.048787 2.127964 0
M  V30 60 H -4.607079 -2.276344 1.876128 0
M  V30 END ATOM
M  V30 BEGIN BOND
M  V30 1 1 1 2
M  V30 2 1 2 3
M  V30 3 1 3 4
M  V30 4 1 4 5
M  V30 5 1 5 6
M  V30 6 2 6 7
M  V30 7 1 7 8
M  V30 8 1 8 9
M  V30 9 1 9 10
M  V30 10 1 10 11
M  V30 11 1 9 12
M  V30 12 1 12 13
M  V30 13 1 13 14
M  V30 14 2 14 15
M  V30 15 1 14 16
M  V30 16 1 16 17
M  V30 17 1 17 18
M  V30 18 1 18 19
M  V30 19 1 19 20
M  V30 20 1 20 21
M  V30 21 1 9 22
M  V30 22 1 22 23
M  V30 23 2 23 24
M  V30 24 1 5 25
M  V30 25 1 25 26
M  V30 26 1 23 7
M  V30 27 1 21 16
M  V30 28 1 1 27
M  V30 29 1 1 28
M  V30 30 1 1 29
M  V30 31 1 2 30
M  V30 32 1 2 31
M  V30 33 1 3 32
M  V30 34 1 3 33
M  V30 35 1 4 34
M  V30 36 1 4 35
M  V30 37 1 5 36
M  V30 38 1 6 37
M  V30 39 1 8 38
M  V30 40 1 8 39
M  V30 41 1 10 40
M  V30 42 1 10 41
M  V30 43 1 11 42
M  V30 44 1 12 43
M  V30 45 1 12 44
M  V30 46 1 16 45
M  V30 47 1 17 46
M  V30 48 1 17 47
M  V30 49 1 18 48
M  V30 50 1 18 49
M  V30 51 1 19 50
M  V30 52 1 19 51
M  V30 53 1 20 52
M  V30 54 1 20 53
M  V30 55 1 21 54
M  V30 56 1 21 55
M  V30 57 1 25 56
M  V30 58 1 25 57
M  V30 59 1 26 58
M  V30 60 1 26 59
M  V30 61 1 26 60
M  V30 END BOND
M  V30 END CTAB
M  END
>  <Dataset>  (243) 
ChEMBL_Kinases

>  <Ligand_Instance>  (243) 
nan

>  <PDB_ID>  (243) 
nan

>  <Standardized_SMILES>  (243) 
CCCCC(/C=C1/CC(CO)(COC(=O)C2CCCCC2)OC1=O)CC

>  <Name>  (243) 
nan

>  <Pocket>  (243) 
nan

>  <ATP_Site>  (243) 
nan

>  <Peripheral>  (243) 
nan

>  <Num_H_Atoms_ProtBoundConf>  (243) 
nan

>  <Num_Resolved_Atoms>  (243) 
nan

>  <Num_Not_Resolved_Atoms>  (243) 
nan

$$$$
CHEMBL472186
     RDKit          3D

  0  0  0  0  0  0  0  0  0  0999 V3000
M  V30 BEGIN CTAB
M  V30 COUNTS 54 55 0 0 0
M  V30 BEGIN ATOM
M  V30 1 C -2.423985 -4.485327 1.051140 0
M  V30 2 C -1.637997 -4.929518 -0.195322 0
M  V30 3 C -1.301368 -3.797260 -1.049533 0
M  V30 4 C -0.470766 -2.663658 -0.545781 0
M  V30 5 C 0.877913 -2.873443 -0.077095 0
M  V30 6 C 1.667400 -1.699399 0.435350 0
M  V30 7 C 1.847822 -0.488626 -0.128675 0
M  V30 8 C 2.543118 0.804708 0.153406 0
M  V30 9 C 1.739829 1.796587 -0.625487 0
M  V30 10 C 2.586970 2.618352 -1.571892 0
M  V30 11 O 1.775546 3.503278 -2.275946 0
M  V30 12 C 0.926184 2.740461 0.248740 0
M  V30 13 O 0.021594 2.046864 1.060415 0
M  V30 14 C -0.792729 2.763158 1.914333 0
M  V30 15 O -0.694823 4.017084 1.934896 0
M  V30 16 C -1.757435 2.154061 2.791892 0
M  V30 17 C -2.526442 2.956183 3.609787 0
M  V30 18 C -3.465429 2.425853 4.469681 0
M  V30 19 C -3.624921 1.057097 4.498192 0
M  V30 20 C -2.894127 0.185333 3.710874 0
M  V30 21 C -1.977555 0.795287 2.879991 0
M  V30 22 O 0.804856 1.095792 -1.429878 0
M  V30 23 C 1.329401 -0.217168 -1.496205 0
M  V30 24 O 1.450094 -1.133652 -2.376313 0
M  V30 25 C 1.700820 -4.066277 -0.425304 0
M  V30 26 C 1.979418 -4.300097 -1.877702 0
M  V30 27 H -3.121092 -5.277814 1.391909 0
M  V30 28 H -1.694735 -4.346878 1.891383 0
M  V30 29 H -2.951962 -3.546413 0.794452 0
M  V30 30 H -0.918735 -5.652188 0.128823 0
M  V30 31 H -2.415530 -5.547862 -0.747667 0
M  V30 32 H -2.309609 -3.316003 -1.280749 0
M  V30 33 H -1.003185 -4.141161 -2.061902 0
M  V30 34 H -1.092292 -2.267469 0.338489 0
M  V30 35 H -0.690299 -1.848740 -1.286155 0
M  V30 36 H 0.588897 -3.241971 1.017268 0
M  V30 37 H 2.237479 -1.688907 1.400653 0
M  V30 38 H 3.602251 0.788401 -0.119931 0
M  V30 39 H 2.439550 1.036729 1.226942 0
M  V30 40 H 3.312621 3.202751 -1.001018 0
M  V30 41 H 3.038982 1.915904 -2.308617 0
M  V30 42 H 2.111019 4.432182 -2.286078 0
M  V30 43 H 1.556930 3.438284 0.826945 0
M  V30 44 H 0.330794 3.354953 -0.457835 0
M  V30 45 H -2.418581 4.027040 3.603848 0
M  V30 46 H -4.067915 3.056830 5.110712 0
M  V30 47 H -4.363537 0.597854 5.170715 0
M  V30 48 H -3.054690 -0.864847 3.769738 0
M  V30 49 H -1.380838 0.126774 2.241084 0
M  V30 50 H 1.339076 -5.041142 -0.041890 0
M  V30 51 H 2.669452 -3.974478 0.166307 0
M  V30 52 H 2.188449 -5.384485 -2.098171 0
M  V30 53 H 1.299094 -3.847358 -2.588825 0
M  V30 54 H 2.975979 -3.819112 -2.075296 0
M  V30 END ATOM
M  V30 BEGIN BOND
M  V30 1 1 1 2
M  V30 2 1 2 3
M  V30 3 1 3 4
M  V30 4 1 4 5
M  V30 5 1 5 6
M  V30 6 2 6 7
M  V30 7 1 7 8
M  V30 8 1 8 9
M  V30 9 1 9 10
M  V30 10 1 10 11
M  V30 11 1 9 12
M  V30 12 1 12 13
M  V30 13 1 13 14
M  V30 14 2 14 15
M  V30 15 1 14 16
M  V30 16 2 16 17
M  V30 17 1 17 18
M  V30 18 2 18 19
M  V30 19 1 19 20
M  V30 20 2 20 21
M  V30 21 1 9 22
M  V30 22 1 22 23
M  V30 23 2 23 24
M  V30 24 1 5 25
M  V30 25 1 25 26
M  V30 26 1 23 7
M  V30 27 1 21 16
M  V30 28 1 1 27
M  V30 29 1 1 28
M  V30 30 1 1 29
M  V30 31 1 2 30
M  V30 32 1 2 31
M  V30 33 1 3 32
M  V30 34 1 3 33
M  V30 35 1 4 34
M  V30 36 1 4 35
M  V30 37 1 5 36
M  V30 38 1 6 37
M  V30 39 1 8 38
M  V30 40 1 8 39
M  V30 41 1 10 40
M  V30 42 1 10 41
M  V30 43 1 11 42
M  V30 44 1 12 43
M  V30 45 1 12 44
M  V30 46 1 17 45
M  V30 47 1 18 46
M  V30 48 1 19 47
M  V30 49 1 20 48
M  V30 50 1 21 49
M  V30 51 1 25 50
M  V30 52 1 25 51
M  V30 53 1 26 52
M  V30 54 1 26 53
M  V30 55 1 26 54
M  V30 END BOND
M  V30 END CTAB
M  END
>  <Dataset>  (244) 
ChEMBL_Kinases

>  <Ligand_Instance>  (244) 
nan

>  <PDB_ID>  (244) 
nan

>  <Standardized_SMILES>  (244) 
CCCCC(/C=C1/CC(CO)(COC(=O)c2ccccc2)OC1=O)CC

>  <Name>  (244) 
nan

>  <Pocket>  (244) 
nan

>  <ATP_Site>  (244) 
nan

>  <Peripheral>  (244) 
nan

>  <Num_H_Atoms_ProtBoundConf>  (244) 
nan

>  <Num_Resolved_Atoms>  (244) 
nan

>  <Num_Not_Resolved_Atoms>  (244) 
nan

$$$$
CHEMBL472208
     RDKit          3D

  0  0  0  0  0  0  0  0  0  0999 V3000
M  V30 BEGIN CTAB
M  V30 COUNTS 51 56 0 0 0
M  V30 BEGIN ATOM
M  V30 1 O 4.080519 0.011854 3.384323 0
M  V30 2 C 3.648333 0.338799 2.250050 0
M  V30 3 N 4.380244 0.853046 1.138615 0
M  V30 4 C 3.468995 1.074151 0.076562 0
M  V30 5 O 3.942735 1.523354 -0.973250 0
M  V30 6 C 2.136221 0.711758 0.470508 0
M  V30 7 C 2.270313 0.277490 1.767503 0
M  V30 8 C 1.154970 -0.158944 2.475597 0
M  V30 9 C 1.258649 -0.626362 3.852722 0
M  V30 10 C 1.494713 -1.959412 4.136510 0
M  V30 11 C 1.594052 -2.408213 5.445837 0
M  V30 12 C 1.449703 -1.480325 6.468282 0
M  V30 13 C 1.216200 -0.160601 6.199540 0
M  V30 14 C 1.115992 0.293705 4.895643 0
M  V30 15 Cl 0.816076 1.982724 4.486731 0
M  V30 16 C -0.074123 -0.144328 1.848262 0
M  V30 17 C -0.207681 0.291067 0.547120 0
M  V30 18 C 0.914016 0.716744 -0.126389 0
M  V30 19 C 0.529321 1.096791 -1.376427 0
M  V30 20 C 1.096491 1.594008 -2.510096 0
M  V30 21 C 0.414790 1.891961 -3.667571 0
M  V30 22 O 1.014939 2.402309 -4.822731 0
M  V30 23 C -0.968805 1.677367 -3.711301 0
M  V30 24 C -1.555328 1.173415 -2.567745 0
M  V30 25 C -0.831500 0.879277 -1.401289 0
M  V30 26 N -1.311229 0.378566 -0.217362 0
M  V30 27 C -2.694768 0.071760 0.019196 0
M  V30 28 C -3.134040 -1.293718 -0.354783 0
M  V30 29 S -2.344775 -2.622772 0.459067 0 CHG=1 VAL=3
M  V30 30 O -2.514624 -2.647611 2.101168 0 CHG=-1 VAL=1
M  V30 31 C -2.581444 -4.145116 -0.320468 0
M  V30 32 N -3.496920 -5.121965 -0.221742 0
M  V30 33 N -3.217130 -6.095864 -1.058656 0
M  V30 34 C -2.112858 -5.756228 -1.709467 0
M  V30 35 N -1.703870 -4.553633 -1.267802 0
M  V30 36 H 5.413510 0.995367 1.226863 0
M  V30 37 H 1.610126 -2.697615 3.357560 0
M  V30 38 H 1.781426 -3.467826 5.655017 0
M  V30 39 H 1.532778 -1.863180 7.482605 0
M  V30 40 H 1.102056 0.572548 7.001939 0
M  V30 41 H -0.922163 -0.472906 2.393704 0
M  V30 42 H 2.126858 1.793946 -2.590446 0
M  V30 43 H 0.631130 3.283370 -5.151226 0
M  V30 44 H -1.534772 1.900697 -4.604605 0
M  V30 45 H -2.618428 1.026812 -2.652773 0
M  V30 46 H -3.355521 0.790881 -0.524054 0
M  V30 47 H -2.923273 0.239368 1.100603 0
M  V30 48 H -4.231902 -1.363650 -0.090243 0
M  V30 49 H -3.145370 -1.467493 -1.463916 0
M  V30 50 H -1.629925 -6.366230 -2.475002 0
M  V30 51 H -0.837003 -4.095849 -1.657526 0
M  V30 END ATOM
M  V30 BEGIN BOND
M  V30 1 2 1 2
M  V30 2 1 2 3
M  V30 3 1 3 4
M  V30 4 2 4 5
M  V30 5 1 4 6
M  V30 6 2 6 7
M  V30 7 1 7 8
M  V30 8 1 8 9
M  V30 9 2 9 10
M  V30 10 1 10 11
M  V30 11 2 11 12
M  V30 12 1 12 13
M  V30 13 2 13 14
M  V30 14 1 14 15
M  V30 15 2 8 16
M  V30 16 1 16 17
M  V30 17 2 17 18
M  V30 18 1 18 19
M  V30 19 2 19 20
M  V30 20 1 20 21
M  V30 21 1 21 22
M  V30 22 2 21 23
M  V30 23 1 23 24
M  V30 24 2 24 25
M  V30 25 1 25 26
M  V30 26 1 26 27
M  V30 27 1 27 28
M  V30 28 1 28 29
M  V30 29 1 29 30
M  V30 30 1 29 31
M  V30 31 2 31 32
M  V30 32 1 32 33
M  V30 33 2 33 34
M  V30 34 1 34 35
M  V30 35 1 7 2
M  V30 36 1 14 9
M  V30 37 1 26 17
M  V30 38 1 35 31
M  V30 39 1 18 6
M  V30 40 1 25 19
M  V30 41 1 3 36
M  V30 42 1 10 37
M  V30 43 1 11 38
M  V30 44 1 12 39
M  V30 45 1 13 40
M  V30 46 1 16 41
M  V30 47 1 20 42
M  V30 48 1 22 43
M  V30 49 1 23 44
M  V30 50 1 24 45
M  V30 51 1 27 46
M  V30 52 1 27 47
M  V30 53 1 28 48
M  V30 54 1 28 49
M  V30 55 1 34 50
M  V30 56 1 35 51
M  V30 END BOND
M  V30 END CTAB
M  END
>  <Dataset>  (245) 
ChEMBL_Kinases

>  <Ligand_Instance>  (245) 
nan

>  <PDB_ID>  (245) 
nan

>  <Standardized_SMILES>  (245) 
O=C1NC(=O)c2c1c(-c1ccccc1Cl)cc1c2c2cc(O)ccc2n1CC[S+]([O-])c1nnc[nH]1

>  <Name>  (245) 
nan

>  <Pocket>  (245) 
nan

>  <ATP_Site>  (245) 
nan

>  <Peripheral>  (245) 
nan

>  <Num_H_Atoms_ProtBoundConf>  (245) 
nan

>  <Num_Resolved_Atoms>  (245) 
nan

>  <Num_Not_Resolved_Atoms>  (245) 
nan

$$$$
CHEMBL472209
     RDKit          3D

  0  0  0  0  0  0  0  0  0  0999 V3000
M  V30 BEGIN CTAB
M  V30 COUNTS 52 57 0 0 0
M  V30 BEGIN ATOM
M  V30 1 O 3.847779 0.444861 3.881221 0
M  V30 2 C 2.756292 -0.166378 3.866779 0
M  V30 3 N 1.956931 -0.614738 4.980901 0
M  V30 4 C 0.798464 -1.263181 4.487830 0
M  V30 5 O 0.029793 -1.694163 5.331932 0
M  V30 6 C 0.811519 -1.254964 3.049400 0
M  V30 7 C 1.973626 -0.603946 2.709068 0
M  V30 8 C 2.312820 -0.413068 1.379138 0
M  V30 9 C 3.534264 0.271221 0.972903 0
M  V30 10 C 4.689961 -0.464339 0.783861 0
M  V30 11 C 5.839702 0.202275 0.398299 0
M  V30 12 C 5.886169 1.568141 0.193619 0
M  V30 13 C 4.719528 2.286263 0.387897 0
M  V30 14 C 3.585122 1.637351 0.767072 0
M  V30 15 Cl 2.069171 2.512545 1.027706 0
M  V30 16 C 1.452778 -0.894014 0.415023 0
M  V30 17 C 0.264172 -1.559864 0.740169 0
M  V30 18 C -0.017117 -1.718333 2.079265 0
M  V30 19 C -1.203077 -2.382798 2.177120 0
M  V30 20 C -2.054882 -2.864370 3.124625 0
M  V30 21 C -3.237125 -3.530264 2.895517 0
M  V30 22 O -4.068296 -4.000278 3.903378 0
M  V30 23 C -3.620467 -3.744184 1.567284 0
M  V30 24 C -2.786360 -3.272432 0.575752 0
M  V30 25 C -1.594930 -2.601326 0.875897 0
M  V30 26 N -0.724413 -2.112805 -0.026011 0
M  V30 27 C -0.656162 -2.063596 -1.446666 0
M  V30 28 C -1.229411 -0.869700 -2.111509 0
M  V30 29 S -2.932785 -0.567904 -1.835177 0
M  V30 30 O -3.240323 -0.233186 -0.403273 0
M  V30 31 O -3.783163 -1.651142 -2.397274 0
M  V30 32 C -3.320814 0.899541 -2.753836 0
M  V30 33 N -3.172024 0.997573 -4.083010 0
M  V30 34 N -3.547526 2.220463 -4.470241 0
M  V30 35 C -3.936556 2.900081 -3.376753 0
M  V30 36 N -3.798194 2.091200 -2.322298 0
M  V30 37 H 2.311666 -0.416711 5.963664 0
M  V30 38 H 4.638932 -1.532296 0.947622 0
M  V30 39 H 6.734774 -0.402134 0.256793 0
M  V30 40 H 6.795309 2.078374 -0.108874 0
M  V30 41 H 4.660467 3.357317 0.251601 0
M  V30 42 H 1.723908 -0.741456 -0.617382 0
M  V30 43 H -1.844596 -2.747604 4.158459 0
M  V30 44 H -4.769185 -3.374880 4.329553 0
M  V30 45 H -4.534358 -4.258883 1.308990 0
M  V30 46 H -3.103379 -3.450492 -0.440557 0
M  V30 47 H 0.391800 -2.180621 -1.836888 0
M  V30 48 H -1.191220 -2.956521 -1.886736 0
M  V30 49 H -0.622214 0.065654 -1.931472 0
M  V30 50 H -1.114728 -1.020420 -3.225265 0
M  V30 51 H -4.312688 3.915529 -3.231499 0
M  V30 52 H -4.004614 2.278059 -1.299930 0
M  V30 END ATOM
M  V30 BEGIN BOND
M  V30 1 2 1 2
M  V30 2 1 2 3
M  V30 3 1 3 4
M  V30 4 2 4 5
M  V30 5 1 4 6
M  V30 6 2 6 7
M  V30 7 1 7 8
M  V30 8 1 8 9
M  V30 9 2 9 10
M  V30 10 1 10 11
M  V30 11 2 11 12
M  V30 12 1 12 13
M  V30 13 2 13 14
M  V30 14 1 14 15
M  V30 15 2 8 16
M  V30 16 1 16 17
M  V30 17 2 17 18
M  V30 18 1 18 19
M  V30 19 2 19 20
M  V30 20 1 20 21
M  V30 21 1 21 22
M  V30 22 2 21 23
M  V30 23 1 23 24
M  V30 24 2 24 25
M  V30 25 1 25 26
M  V30 26 1 26 27
M  V30 27 1 27 28
M  V30 28 1 28 29
M  V30 29 2 29 30
M  V30 30 2 29 31
M  V30 31 1 29 32
M  V30 32 2 32 33
M  V30 33 1 33 34
M  V30 34 2 34 35
M  V30 35 1 35 36
M  V30 36 1 7 2
M  V30 37 1 14 9
M  V30 38 1 26 17
M  V30 39 1 36 32
M  V30 40 1 18 6
M  V30 41 1 25 19
M  V30 42 1 3 37
M  V30 43 1 10 38
M  V30 44 1 11 39
M  V30 45 1 12 40
M  V30 46 1 13 41
M  V30 47 1 16 42
M  V30 48 1 20 43
M  V30 49 1 22 44
M  V30 50 1 23 45
M  V30 51 1 24 46
M  V30 52 1 27 47
M  V30 53 1 27 48
M  V30 54 1 28 49
M  V30 55 1 28 50
M  V30 56 1 35 51
M  V30 57 1 36 52
M  V30 END BOND
M  V30 END CTAB
M  END
>  <Dataset>  (246) 
ChEMBL_Kinases

>  <Ligand_Instance>  (246) 
nan

>  <PDB_ID>  (246) 
nan

>  <Standardized_SMILES>  (246) 
O=C1NC(=O)c2c1c(-c1ccccc1Cl)cc1c2c2cc(O)ccc2n1CCS(=O)(=O)c1nnc[nH]1

>  <Name>  (246) 
nan

>  <Pocket>  (246) 
nan

>  <ATP_Site>  (246) 
nan

>  <Peripheral>  (246) 
nan

>  <Num_H_Atoms_ProtBoundConf>  (246) 
nan

>  <Num_Resolved_Atoms>  (246) 
nan

>  <Num_Not_Resolved_Atoms>  (246) 
nan

$$$$
CHEMBL472212
     RDKit          3D

  0  0  0  0  0  0  0  0  0  0999 V3000
M  V30 BEGIN CTAB
M  V30 COUNTS 56 59 0 0 0
M  V30 BEGIN ATOM
M  V30 1 C 2.238223 -0.248558 2.443524 0
M  V30 2 N 2.616832 0.815731 1.505994 0
M  V30 3 C 3.212687 0.164292 0.391752 0
M  V30 4 C 4.602528 0.096616 0.598504 0
M  V30 5 C 5.441053 -0.471428 -0.368980 0
M  V30 6 C 4.890878 -0.963578 -1.525762 0
M  V30 7 C 3.512806 -0.903494 -1.745193 0
M  V30 8 C 2.702316 -0.343135 -0.784881 0
M  V30 9 C 1.254317 -0.267366 -0.875075 0
M  V30 10 N 0.707601 -0.341279 -2.237357 0
M  V30 11 C -0.747729 -0.326033 -2.189227 0
M  V30 12 N -1.481638 -0.260623 -1.075535 0
M  V30 13 C -2.787195 -0.246508 -0.924135 0
M  V30 14 N -3.049926 -0.163835 0.492608 0
M  V30 15 C -3.147016 -1.359696 1.260150 0
M  V30 16 C -3.181151 -2.576194 0.616287 0
M  V30 17 C -3.250449 -3.736280 1.392495 0
M  V30 18 C -3.282861 -3.642980 2.778781 0
M  V30 19 C -3.247542 -2.413114 3.432087 0
M  V30 20 C -3.179403 -1.258198 2.655253 0
M  V30 21 C -3.263791 -2.605039 4.915376 0
M  V30 22 C -3.387613 -4.065604 5.084796 0
M  V30 23 O -3.492038 -4.679903 6.182346 0
M  V30 24 N -3.367639 -4.663543 3.770015 0
M  V30 25 N -3.510665 -0.305960 -2.052784 0
M  V30 26 C -2.881042 -0.374377 -3.238894 0
M  V30 27 C -1.483030 -0.386956 -3.356622 0
M  V30 28 C -0.846250 -0.462949 -4.676000 0
M  V30 29 F -0.063691 -1.628869 -4.684279 0
M  V30 30 F -0.008153 0.570793 -4.991867 0
M  V30 31 F -1.828052 -0.701304 -5.621948 0
M  V30 32 S 2.299186 2.448479 1.904140 0
M  V30 33 C 1.217440 3.182562 0.742578 0
M  V30 34 O 1.567781 2.461149 3.241391 0
M  V30 35 O 3.543756 3.248851 2.137685 0
M  V30 36 H 3.162482 -0.550804 3.005526 0
M  V30 37 H 1.554458 0.197324 3.214400 0
M  V30 38 H 1.795027 -1.107222 1.948607 0
M  V30 39 H 5.164093 0.451948 1.475796 0
M  V30 40 H 6.506804 -0.542554 -0.243840 0
M  V30 41 H 5.478370 -1.408263 -2.299366 0
M  V30 42 H 3.029770 -1.272681 -2.631412 0
M  V30 43 H 0.883426 0.633178 -0.360365 0
M  V30 44 H 0.847810 -1.121337 -0.263527 0
M  V30 45 H 1.142816 -0.397816 -3.181263 0
M  V30 46 H -3.157555 0.780047 0.886285 0
M  V30 47 H -3.157394 -2.680898 -0.470127 0
M  V30 48 H -3.280473 -4.725271 0.933653 0
M  V30 49 H -3.147195 -0.250639 3.082907 0
M  V30 50 H -4.057050 -2.051686 5.428840 0
M  V30 51 H -2.265334 -2.302295 5.318865 0
M  V30 52 H -3.415191 -5.711923 3.678595 0
M  V30 53 H -3.547025 -0.418708 -4.088576 0
M  V30 54 H 0.175034 2.794912 0.878439 0
M  V30 55 H 1.483528 2.996866 -0.318069 0
M  V30 56 H 1.106570 4.290284 0.930255 0
M  V30 END ATOM
M  V30 BEGIN BOND
M  V30 1 1 1 2
M  V30 2 1 2 3
M  V30 3 2 3 4
M  V30 4 1 4 5
M  V30 5 2 5 6
M  V30 6 1 6 7
M  V30 7 2 7 8
M  V30 8 1 8 9
M  V30 9 1 9 10
M  V30 10 1 10 11
M  V30 11 2 11 12
M  V30 12 1 12 13
M  V30 13 1 13 14
M  V30 14 1 14 15
M  V30 15 2 15 16
M  V30 16 1 16 17
M  V30 17 2 17 18
M  V30 18 1 18 19
M  V30 19 2 19 20
M  V30 20 1 19 21
M  V30 21 1 21 22
M  V30 22 2 22 23
M  V30 23 1 22 24
M  V30 24 2 13 25
M  V30 25 1 25 26
M  V30 26 2 26 27
M  V30 27 1 27 28
M  V30 28 1 28 29
M  V30 29 1 28 30
M  V30 30 1 28 31
M  V30 31 1 2 32
M  V30 32 1 32 33
M  V30 33 2 32 34
M  V30 34 2 32 35
M  V30 35 1 8 3
M  V30 36 1 27 11
M  V30 37 1 20 15
M  V30 38 1 24 18
M  V30 39 1 1 36
M  V30 40 1 1 37
M  V30 41 1 1 38
M  V30 42 1 4 39
M  V30 43 1 5 40
M  V30 44 1 6 41
M  V30 45 1 7 42
M  V30 46 1 9 43
M  V30 47 1 9 44
M  V30 48 1 10 45
M  V30 49 1 14 46
M  V30 50 1 16 47
M  V30 51 1 17 48
M  V30 52 1 20 49
M  V30 53 1 21 50
M  V30 54 1 21 51
M  V30 55 1 24 52
M  V30 56 1 26 53
M  V30 57 1 33 54
M  V30 58 1 33 55
M  V30 59 1 33 56
M  V30 END BOND
M  V30 END CTAB
M  END
>  <Dataset>  (247) 
ChEMBL_Kinases

>  <Ligand_Instance>  (247) 
nan

>  <PDB_ID>  (247) 
nan

>  <Standardized_SMILES>  (247) 
CN(c1ccccc1CNc1nc(Nc2ccc3c(c2)CC(=O)N3)ncc1C(F)(F)F)S(C)(=O)=O

>  <Name>  (247) 
nan

>  <Pocket>  (247) 
nan

>  <ATP_Site>  (247) 
nan

>  <Peripheral>  (247) 
nan

>  <Num_H_Atoms_ProtBoundConf>  (247) 
nan

>  <Num_Resolved_Atoms>  (247) 
nan

>  <Num_Not_Resolved_Atoms>  (247) 
nan

$$$$
CHEMBL472249
     RDKit          3D

  0  0  0  0  0  0  0  0  0  0999 V3000
M  V30 BEGIN CTAB
M  V30 COUNTS 39 42 0 0 0
M  V30 BEGIN ATOM
M  V30 1 F 1.443652 -1.373554 3.392680 0
M  V30 2 C 2.159206 -2.076613 2.449546 0
M  V30 3 F 1.305307 -2.583468 1.469093 0
M  V30 4 F 2.833085 -3.114091 3.067415 0
M  V30 5 C 3.186073 -1.254696 1.760457 0
M  V30 6 C 4.354597 -0.849139 2.409630 0
M  V30 7 C 5.270422 -0.075734 1.685375 0
M  V30 8 C 5.046987 0.290801 0.360023 0
M  V30 9 C 3.890226 -0.102799 -0.303287 0
M  V30 10 C 3.636041 0.268575 -1.696598 0
M  V30 11 S 2.767601 1.843102 -1.894511 0
M  V30 12 C 1.108800 1.726436 -1.245743 0
M  V30 13 N 0.383601 2.863609 -1.352987 0
M  V30 14 N -0.804491 2.581243 -0.823078 0
M  V30 15 C -0.824037 1.307455 -0.396979 0
M  V30 16 C -1.951255 0.637725 0.237841 0
M  V30 17 C -3.142067 1.333628 0.446857 0
M  V30 18 C -4.254504 0.774072 1.039508 0
M  V30 19 C -4.158715 -0.541786 1.436502 0
M  V30 20 C -2.985489 -1.270647 1.244758 0
M  V30 21 C -1.882177 -0.677293 0.644455 0
M  V30 22 C -3.223283 -2.648402 1.784190 0
M  V30 23 C -4.742757 -2.708351 1.865920 0
M  V30 24 O -5.117954 -1.361464 2.058299 0
M  V30 25 O 0.361613 0.820457 -0.672866 0
M  V30 26 C 3.027021 -0.861439 0.458837 0
M  V30 27 H 4.481124 -1.152202 3.419151 0
M  V30 28 H 6.167745 0.216786 2.233097 0
M  V30 29 H 5.787118 0.890395 -0.156267 0
M  V30 30 H 4.554693 0.248084 -2.327034 0
M  V30 31 H 2.997170 -0.547931 -2.148846 0
M  V30 32 H -3.156195 2.379228 0.108597 0
M  V30 33 H -5.157488 1.367669 1.175907 0
M  V30 34 H -0.995600 -1.258071 0.509734 0
M  V30 35 H -2.862294 -3.371792 1.033699 0
M  V30 36 H -2.772446 -2.768236 2.791852 0
M  V30 37 H -5.195120 -3.122165 0.958224 0
M  V30 38 H -5.062194 -3.279501 2.742980 0
M  V30 39 H 2.112950 -1.190696 -0.020321 0
M  V30 END ATOM
M  V30 BEGIN BOND
M  V30 1 1 1 2
M  V30 2 1 2 3
M  V30 3 1 2 4
M  V30 4 1 2 5
M  V30 5 2 5 6
M  V30 6 1 6 7
M  V30 7 2 7 8
M  V30 8 1 8 9
M  V30 9 1 9 10
M  V30 10 1 10 11
M  V30 11 1 11 12
M  V30 12 2 12 13
M  V30 13 1 13 14
M  V30 14 2 14 15
M  V30 15 1 15 16
M  V30 16 2 16 17
M  V30 17 1 17 18
M  V30 18 2 18 19
M  V30 19 1 19 20
M  V30 20 2 20 21
M  V30 21 1 20 22
M  V30 22 1 22 23
M  V30 23 1 23 24
M  V30 24 1 15 25
M  V30 25 2 9 26
M  V30 26 1 26 5
M  V30 27 1 25 12
M  V30 28 1 21 16
M  V30 29 1 24 19
M  V30 30 1 6 27
M  V30 31 1 7 28
M  V30 32 1 8 29
M  V30 33 1 10 30
M  V30 34 1 10 31
M  V30 35 1 17 32
M  V30 36 1 18 33
M  V30 37 1 21 34
M  V30 38 1 22 35
M  V30 39 1 22 36
M  V30 40 1 23 37
M  V30 41 1 23 38
M  V30 42 1 26 39
M  V30 END BOND
M  V30 END CTAB
M  END
>  <Dataset>  (248) 
ChEMBL_Kinases

>  <Ligand_Instance>  (248) 
nan

>  <PDB_ID>  (248) 
nan

>  <Standardized_SMILES>  (248) 
FC(F)(F)c1cccc(CSc2nnc(-c3ccc4c(c3)CCO4)o2)c1

>  <Name>  (248) 
nan

>  <Pocket>  (248) 
nan

>  <ATP_Site>  (248) 
nan

>  <Peripheral>  (248) 
nan

>  <Num_H_Atoms_ProtBoundConf>  (248) 
nan

>  <Num_Resolved_Atoms>  (248) 
nan

>  <Num_Not_Resolved_Atoms>  (248) 
nan

$$$$
CHEMBL472350
     RDKit          3D

  0  0  0  0  0  0  0  0  0  0999 V3000
M  V30 BEGIN CTAB
M  V30 COUNTS 54 55 0 0 0
M  V30 BEGIN ATOM
M  V30 1 C 1.729046 -5.141991 4.172934 0
M  V30 2 C 1.989291 -4.087762 5.197731 0
M  V30 3 C 2.079205 -2.695944 4.617222 0
M  V30 4 C 3.174331 -2.553848 3.610510 0
M  V30 5 C 3.251192 -1.133001 3.035618 0
M  V30 6 C 1.951440 -0.773809 2.353609 0
M  V30 7 C 1.969033 0.581991 1.779641 0
M  V30 8 C 1.833525 1.018041 0.548539 0
M  V30 9 C 1.829655 2.328347 -0.156236 0
M  V30 10 C 0.707558 2.007917 -1.161383 0
M  V30 11 C 0.527422 3.079852 -2.161938 0
M  V30 12 O 0.021453 4.206059 -1.509486 0
M  V30 13 C -0.573782 1.673578 -0.389752 0
M  V30 14 O -1.527470 1.081103 -1.095026 0
M  V30 15 C -2.432302 0.520908 -1.765535 0
M  V30 16 O -2.581564 1.448601 -2.592778 0
M  V30 17 C -3.200740 -0.703844 -1.808776 0
M  V30 18 C -2.998101 -1.690137 -0.878292 0
M  V30 19 C -3.726196 -2.877295 -0.900848 0
M  V30 20 C -4.668594 -3.040364 -1.894139 0
M  V30 21 C -4.839096 -2.028856 -2.804549 0
M  V30 22 C -4.130305 -0.824699 -2.816622 0
M  V30 23 C -4.370185 0.214067 -3.827526 0
M  V30 24 O 1.209094 0.781923 -1.653053 0
M  V30 25 C 1.626775 0.066250 -0.538004 0
M  V30 26 O 1.782289 -1.182538 -0.525736 0
M  V30 27 H 1.041928 -4.798447 3.373579 0
M  V30 28 H 2.657828 -5.599635 3.770874 0
M  V30 29 H 1.182780 -5.981676 4.693580 0
M  V30 30 H 2.895521 -4.310157 5.771389 0
M  V30 31 H 1.137640 -4.090032 5.920148 0
M  V30 32 H 1.101009 -2.543276 4.077506 0
M  V30 33 H 2.194447 -1.991880 5.463016 0
M  V30 34 H 4.126303 -2.825619 4.100279 0
M  V30 35 H 3.014937 -3.198522 2.722178 0
M  V30 36 H 4.034943 -1.061889 2.280209 0
M  V30 37 H 3.477914 -0.452648 3.863858 0
M  V30 38 H 1.657067 -1.582972 1.700702 0
M  V30 39 H 1.197361 -0.711636 3.203485 0
M  V30 40 H 2.123519 1.399527 2.501615 0
M  V30 41 H 1.536978 3.162200 0.501160 0
M  V30 42 H 2.735933 2.502337 -0.757617 0
M  V30 43 H 1.490362 3.316093 -2.670501 0
M  V30 44 H -0.221863 2.766729 -2.909778 0
M  V30 45 H -0.952254 4.229223 -1.455923 0
M  V30 46 H -0.260418 1.140010 0.560169 0
M  V30 47 H -0.876961 2.695435 0.028682 0
M  V30 48 H -2.230546 -1.491200 -0.115614 0
M  V30 49 H -3.537362 -3.625249 -0.153838 0
M  V30 50 H -5.258315 -3.935894 -1.958987 0
M  V30 51 H -5.586262 -2.144584 -3.601719 0
M  V30 52 H -5.196463 -0.160939 -4.500165 0
M  V30 53 H -4.758315 1.167939 -3.393825 0
M  V30 54 H -3.469727 0.328758 -4.441888 0
M  V30 END ATOM
M  V30 BEGIN BOND
M  V30 1 1 1 2
M  V30 2 1 2 3
M  V30 3 1 3 4
M  V30 4 1 4 5
M  V30 5 1 5 6
M  V30 6 1 6 7
M  V30 7 2 7 8
M  V30 8 1 8 9
M  V30 9 1 9 10
M  V30 10 1 10 11
M  V30 11 1 11 12
M  V30 12 1 10 13
M  V30 13 1 13 14
M  V30 14 1 14 15
M  V30 15 2 15 16
M  V30 16 1 15 17
M  V30 17 2 17 18
M  V30 18 1 18 19
M  V30 19 2 19 20
M  V30 20 1 20 21
M  V30 21 2 21 22
M  V30 22 1 22 23
M  V30 23 1 10 24
M  V30 24 1 24 25
M  V30 25 2 25 26
M  V30 26 1 25 8
M  V30 27 1 22 17
M  V30 28 1 1 27
M  V30 29 1 1 28
M  V30 30 1 1 29
M  V30 31 1 2 30
M  V30 32 1 2 31
M  V30 33 1 3 32
M  V30 34 1 3 33
M  V30 35 1 4 34
M  V30 36 1 4 35
M  V30 37 1 5 36
M  V30 38 1 5 37
M  V30 39 1 6 38
M  V30 40 1 6 39
M  V30 41 1 7 40
M  V30 42 1 9 41
M  V30 43 1 9 42
M  V30 44 1 11 43
M  V30 45 1 11 44
M  V30 46 1 12 45
M  V30 47 1 13 46
M  V30 48 1 13 47
M  V30 49 1 18 48
M  V30 50 1 19 49
M  V30 51 1 20 50
M  V30 52 1 21 51
M  V30 53 1 23 52
M  V30 54 1 23 53
M  V30 55 1 23 54
M  V30 END BOND
M  V30 END CTAB
M  END
>  <Dataset>  (249) 
ChEMBL_Kinases

>  <Ligand_Instance>  (249) 
nan

>  <PDB_ID>  (249) 
nan

>  <Standardized_SMILES>  (249) 
CCCCCC/C=C1/CC(CO)(COC(=O)c2ccccc2C)OC1=O

>  <Name>  (249) 
nan

>  <Pocket>  (249) 
nan

>  <ATP_Site>  (249) 
nan

>  <Peripheral>  (249) 
nan

>  <Num_H_Atoms_ProtBoundConf>  (249) 
nan

>  <Num_Resolved_Atoms>  (249) 
nan

>  <Num_Not_Resolved_Atoms>  (249) 
nan

$$$$
CHEMBL472351
     RDKit          3D

  0  0  0  0  0  0  0  0  0  0999 V3000
M  V30 BEGIN CTAB
M  V30 COUNTS 56 59 0 0 0
M  V30 BEGIN ATOM
M  V30 1 C 6.036211 -3.393590 2.850786 0
M  V30 2 N 4.731897 -3.139139 2.281811 0
M  V30 3 C 4.023030 -4.271714 1.714102 0
M  V30 4 C 4.098266 -1.866970 2.238311 0
M  V30 5 C 4.636655 -0.698911 2.732296 0
M  V30 6 C 4.015194 0.533460 2.685928 0
M  V30 7 C 2.768500 0.569311 2.098466 0
M  V30 8 C 2.038913 1.824671 2.003815 0
M  V30 9 O 2.243414 3.007025 2.340298 0
M  V30 10 O 0.803240 2.000632 1.449361 0
M  V30 11 C 0.122713 3.234586 1.373686 0
M  V30 12 C -1.200799 2.984052 0.690657 0
M  V30 13 C -1.971566 4.258748 0.462307 0
M  V30 14 O -2.316199 4.915184 1.615842 0
M  V30 15 C -0.919810 2.354251 -0.654143 0
M  V30 16 C -1.793550 1.135684 -0.598033 0
M  V30 17 C -2.352156 0.451080 -1.605753 0
M  V30 18 C -3.186955 -0.719612 -1.420941 0
M  V30 19 C -4.202951 -0.945852 -0.517140 0
M  V30 20 N -4.856154 -2.120012 -0.490857 0
M  V30 21 C -4.564681 -3.124835 -1.327918 0
M  V30 22 C -5.238303 -4.336631 -1.301199 0
M  V30 23 C -4.918387 -5.363130 -2.178826 0
M  V30 24 C -3.914120 -5.212824 -3.112937 0
M  V30 25 C -3.237637 -4.005316 -3.144705 0
M  V30 26 C -3.567470 -2.996391 -2.266417 0
M  V30 27 C -2.887885 -1.774001 -2.292813 0
M  V30 28 C -1.910850 0.794668 0.832513 0
M  V30 29 O -1.959194 -0.436335 1.161118 0
M  V30 30 O -1.935089 2.051819 1.459034 0
M  V30 31 C 2.147770 -0.543230 1.576618 0
M  V30 32 C 2.849156 -1.727190 1.670797 0
M  V30 33 H 5.945913 -4.143274 3.689220 0
M  V30 34 H 6.743544 -3.805689 2.099196 0
M  V30 35 H 6.482753 -2.498713 3.316131 0
M  V30 36 H 3.835826 -4.145305 0.620895 0
M  V30 37 H 4.528703 -5.204257 1.965127 0
M  V30 38 H 3.006167 -4.285587 2.200801 0
M  V30 39 H 5.598696 -0.706550 3.189839 0
M  V30 40 H 4.484893 1.416257 3.088492 0
M  V30 41 H -0.076319 3.529535 2.443980 0
M  V30 42 H 0.710006 4.035633 0.918891 0
M  V30 43 H -1.338242 4.862490 -0.240129 0
M  V30 44 H -2.888788 3.995052 -0.083186 0
M  V30 45 H -2.143099 4.423118 2.457151 0
M  V30 46 H 0.136339 2.081228 -0.761307 0
M  V30 47 H -1.271203 3.002976 -1.469189 0
M  V30 48 H -2.166743 0.798776 -2.635263 0
M  V30 49 H -4.420444 -0.126779 0.127397 0
M  V30 50 H -6.034645 -4.503136 -0.585329 0
M  V30 51 H -5.436183 -6.326352 -2.175428 0
M  V30 52 H -3.606395 -5.958414 -3.826912 0
M  V30 53 H -2.444399 -3.844232 -3.859546 0
M  V30 54 H -2.108543 -1.709840 -3.044743 0
M  V30 55 H 1.162617 -0.523025 1.111682 0
M  V30 56 H 2.341849 -2.609260 1.249017 0
M  V30 END ATOM
M  V30 BEGIN BOND
M  V30 1 1 1 2
M  V30 2 1 2 3
M  V30 3 1 2 4
M  V30 4 2 4 5
M  V30 5 1 5 6
M  V30 6 2 6 7
M  V30 7 1 7 8
M  V30 8 2 8 9
M  V30 9 1 8 10
M  V30 10 1 10 11
M  V30 11 1 11 12
M  V30 12 1 12 13
M  V30 13 1 13 14
M  V30 14 1 12 15
M  V30 15 1 15 16
M  V30 16 2 16 17
M  V30 17 1 17 18
M  V30 18 2 18 19
M  V30 19 1 19 20
M  V30 20 2 20 21
M  V30 21 1 21 22
M  V30 22 2 22 23
M  V30 23 1 23 24
M  V30 24 2 24 25
M  V30 25 1 25 26
M  V30 26 2 26 27
M  V30 27 1 16 28
M  V30 28 2 28 29
M  V30 29 1 28 30
M  V30 30 1 7 31
M  V30 31 2 31 32
M  V30 32 1 32 4
M  V30 33 1 30 12
M  V30 34 1 27 18
M  V30 35 1 26 21
M  V30 36 1 1 33
M  V30 37 1 1 34
M  V30 38 1 1 35
M  V30 39 1 3 36
M  V30 40 1 3 37
M  V30 41 1 3 38
M  V30 42 1 5 39
M  V30 43 1 6 40
M  V30 44 1 11 41
M  V30 45 1 11 42
M  V30 46 1 13 43
M  V30 47 1 13 44
M  V30 48 1 14 45
M  V30 49 1 15 46
M  V30 50 1 15 47
M  V30 51 1 17 48
M  V30 52 1 19 49
M  V30 53 1 22 50
M  V30 54 1 23 51
M  V30 55 1 24 52
M  V30 56 1 25 53
M  V30 57 1 27 54
M  V30 58 1 31 55
M  V30 59 1 32 56
M  V30 END BOND
M  V30 END CTAB
M  END
>  <Dataset>  (250) 
ChEMBL_Kinases

>  <Ligand_Instance>  (250) 
nan

>  <PDB_ID>  (250) 
nan

>  <Standardized_SMILES>  (250) 
CN(C)c1ccc(C(=O)OCC2(CO)C/C(=C/c3cnc4ccccc4c3)C(=O)O2)cc1

>  <Name>  (250) 
nan

>  <Pocket>  (250) 
nan

>  <ATP_Site>  (250) 
nan

>  <Peripheral>  (250) 
nan

>  <Num_H_Atoms_ProtBoundConf>  (250) 
nan

>  <Num_Resolved_Atoms>  (250) 
nan

>  <Num_Not_Resolved_Atoms>  (250) 
nan

$$$$
CHEMBL4467033
     RDKit          3D

  0  0  0  0  0  0  0  0  0  0999 V3000
M  V30 BEGIN CTAB
M  V30 COUNTS 50 53 0 0 0
M  V30 BEGIN ATOM
M  V30 1 C -0.407515 -5.846315 5.450805 0
M  V30 2 O -0.580893 -5.314399 4.173407 0
M  V30 3 C 0.278397 -4.413434 3.572987 0
M  V30 4 C 1.381307 -4.023422 4.304127 0
M  V30 5 C 2.267523 -3.124980 3.745136 0
M  V30 6 N 3.377471 -2.670275 4.359155 0
M  V30 7 C 4.204716 -1.781823 3.739931 0
M  V30 8 N 3.959972 -1.323815 2.510599 0
M  V30 9 C 2.854780 -1.753825 1.854619 0
M  V30 10 N 2.658548 -1.221407 0.545418 0
M  V30 11 C 1.930503 -0.033532 0.282157 0
M  V30 12 C 1.831329 0.351073 -1.036738 0
M  V30 13 C 1.132094 1.496611 -1.317096 0
M  V30 14 C 0.511495 2.310515 -0.401579 0
M  V30 15 O -0.215983 3.444908 -0.358255 0
M  V30 16 C -0.602196 4.223569 -1.427561 0
M  V30 17 C -1.461181 3.610126 -2.439397 0
M  V30 18 C -1.246846 3.015686 -3.663927 0
M  V30 19 C -2.256341 2.482837 -4.432459 0
M  V30 20 C -3.569081 2.514168 -4.012651 0
M  V30 21 C -3.835852 3.099278 -2.793288 0
M  V30 22 F -5.135905 3.102074 -2.433508 0
M  V30 23 C -2.809184 3.624982 -2.042900 0
M  V30 24 C 0.639498 1.877786 0.935998 0
M  V30 25 Cl -0.010928 2.644662 2.396787 0
M  V30 26 C 1.341665 0.717147 1.278480 0
M  V30 27 C 2.010329 -2.652814 2.471175 0
M  V30 28 C 0.896396 -3.063418 1.765414 0
M  V30 29 C -0.005980 -3.961064 2.300913 0
M  V30 30 O -1.152317 -4.436560 1.678429 0
M  V30 31 C -1.565998 -4.066829 0.393051 0
M  V30 32 H -1.114602 -6.719738 5.555450 0
M  V30 33 H -0.592392 -5.136659 6.268696 0
M  V30 34 H 0.598904 -6.314525 5.612883 0
M  V30 35 H 1.594770 -4.385566 5.303218 0
M  V30 36 H 5.068252 -1.492635 4.344220 0
M  V30 37 H 3.102587 -1.795050 -0.173611 0
M  V30 38 H 2.240360 -0.142982 -1.886288 0
M  V30 39 H 0.999320 1.887803 -2.292030 0
M  V30 40 H 0.295743 4.632220 -1.999260 0
M  V30 41 H -1.091158 5.190709 -1.081681 0
M  V30 42 H -0.201903 3.038811 -3.928874 0
M  V30 43 H -1.883857 2.070475 -5.342240 0
M  V30 44 H -4.243693 2.057998 -4.722271 0
M  V30 45 H -3.190964 4.049375 -1.107141 0
M  V30 46 H 1.493632 0.309912 2.252420 0
M  V30 47 H 0.688333 -2.700250 0.771613 0
M  V30 48 H -2.682938 -3.924415 0.466658 0
M  V30 49 H -1.449698 -4.955018 -0.274274 0
M  V30 50 H -1.148995 -3.139413 0.002546 0
M  V30 END ATOM
M  V30 BEGIN BOND
M  V30 1 1 1 2
M  V30 2 1 2 3
M  V30 3 2 3 4
M  V30 4 1 4 5
M  V30 5 2 5 6
M  V30 6 1 6 7
M  V30 7 2 7 8
M  V30 8 1 8 9
M  V30 9 1 9 10
M  V30 10 1 10 11
M  V30 11 2 11 12
M  V30 12 1 12 13
M  V30 13 2 13 14
M  V30 14 1 14 15
M  V30 15 1 15 16
M  V30 16 1 16 17
M  V30 17 2 17 18
M  V30 18 1 18 19
M  V30 19 2 19 20
M  V30 20 1 20 21
M  V30 21 1 21 22
M  V30 22 2 21 23
M  V30 23 1 14 24
M  V30 24 1 24 25
M  V30 25 2 24 26
M  V30 26 2 9 27
M  V30 27 1 27 28
M  V30 28 2 28 29
M  V30 29 1 29 30
M  V30 30 1 30 31
M  V30 31 1 29 3
M  V30 32 1 27 5
M  V30 33 1 26 11
M  V30 34 1 23 17
M  V30 35 1 1 32
M  V30 36 1 1 33
M  V30 37 1 1 34
M  V30 38 1 4 35
M  V30 39 1 7 36
M  V30 40 1 10 37
M  V30 41 1 12 38
M  V30 42 1 13 39
M  V30 43 1 16 40
M  V30 44 1 16 41
M  V30 45 1 18 42
M  V30 46 1 19 43
M  V30 47 1 20 44
M  V30 48 1 23 45
M  V30 49 1 26 46
M  V30 50 1 28 47
M  V30 51 1 31 48
M  V30 52 1 31 49
M  V30 53 1 31 50
M  V30 END BOND
M  V30 END CTAB
M  END
>  <Dataset>  (251) 
ChEMBL_Kinases

>  <Ligand_Instance>  (251) 
nan

>  <PDB_ID>  (251) 
nan

>  <Standardized_SMILES>  (251) 
COc1cc2ncnc(Nc3ccc(OCc4cccc(F)c4)c(Cl)c3)c2cc1OC

>  <Name>  (251) 
nan

>  <Pocket>  (251) 
nan

>  <ATP_Site>  (251) 
nan

>  <Peripheral>  (251) 
nan

>  <Num_H_Atoms_ProtBoundConf>  (251) 
nan

>  <Num_Resolved_Atoms>  (251) 
nan

>  <Num_Not_Resolved_Atoms>  (251) 
nan

$$$$
CHEMBL472352
     RDKit          3D

  0  0  0  0  0  0  0  0  0  0999 V3000
M  V30 BEGIN CTAB
M  V30 COUNTS 55 57 0 0 0
M  V30 BEGIN ATOM
M  V30 1 C 4.392946 -2.728807 2.561639 0
M  V30 2 C 3.351792 -3.667476 1.967290 0
M  V30 3 C 1.990897 -3.084186 2.319790 0
M  V30 4 C 1.890285 -1.728723 1.733532 0
M  V30 5 O 1.830588 -0.626653 2.373452 0
M  V30 6 O 1.837707 -1.335569 0.413492 0
M  V30 7 C 1.742979 0.070030 0.155314 0
M  V30 8 C 1.679988 0.372168 -1.301184 0
M  V30 9 C 2.966963 0.024961 -1.967196 0
M  V30 10 O 3.102308 -1.360610 -1.901013 0
M  V30 11 C 1.323241 1.856712 -1.439773 0
M  V30 12 C -0.125565 1.793045 -1.117268 0
M  V30 13 C -0.969976 2.723288 -0.736012 0
M  V30 14 C -2.381880 2.642989 -0.430351 0
M  V30 15 C -3.450459 2.097625 -1.112102 0
M  V30 16 C -4.715360 2.127118 -0.555601 0
M  V30 17 C -4.979375 2.686227 0.676687 0
M  V30 18 C -6.369691 2.687023 1.238819 0
M  V30 19 F -6.404332 3.347495 2.443100 0
M  V30 20 F -7.252183 3.160805 0.304520 0
M  V30 21 F -6.729683 1.360375 1.519586 0
M  V30 22 C -3.923940 3.236825 1.371784 0
M  V30 23 C -2.657538 3.211626 0.824053 0
M  V30 24 C -0.548134 0.385683 -1.251039 0
M  V30 25 O -1.643216 -0.109713 -0.852861 0
M  V30 26 O 0.545167 -0.224462 -1.907502 0
M  V30 27 C 0.878576 -3.983024 1.908467 0
M  V30 28 C 0.021850 -4.610544 2.812471 0
M  V30 29 C -0.996001 -5.438115 2.339700 0
M  V30 30 C -1.144203 -5.627929 0.960534 0
M  V30 31 C -0.278504 -4.992494 0.082252 0
M  V30 32 C 0.744155 -4.161582 0.536546 0
M  V30 33 H 3.935805 -2.113270 3.369460 0
M  V30 34 H 5.241020 -3.291244 3.005196 0
M  V30 35 H 4.771769 -2.011848 1.796653 0
M  V30 36 H 3.496539 -3.732529 0.883386 0
M  V30 37 H 3.510293 -4.640900 2.508597 0
M  V30 38 H 2.005845 -2.991786 3.452433 0
M  V30 39 H 0.765854 0.404863 0.600095 0
M  V30 40 H 2.555686 0.592201 0.652341 0
M  V30 41 H 3.783363 0.437560 -1.326985 0
M  V30 42 H 3.042816 0.384109 -3.017468 0
M  V30 43 H 3.427109 -1.728550 -2.753838 0
M  V30 44 H 1.915532 2.501314 -0.795086 0
M  V30 45 H 1.423822 2.133518 -2.521102 0
M  V30 46 H -0.489710 3.715945 -0.648101 0
M  V30 47 H -3.178921 1.695178 -2.066758 0
M  V30 48 H -5.508245 1.685039 -1.137596 0
M  V30 49 H -4.163209 3.668590 2.337541 0
M  V30 50 H -1.927233 3.681774 1.481596 0
M  V30 51 H 0.176082 -4.433456 3.870153 0
M  V30 52 H -1.665296 -5.927703 3.039869 0
M  V30 53 H -1.926731 -6.265798 0.554437 0
M  V30 54 H -0.382429 -5.131804 -0.982970 0
M  V30 55 H 1.405916 -3.676249 -0.165736 0
M  V30 END ATOM
M  V30 BEGIN BOND
M  V30 1 1 1 2
M  V30 2 1 2 3
M  V30 3 1 3 4
M  V30 4 2 4 5
M  V30 5 1 4 6
M  V30 6 1 6 7
M  V30 7 1 7 8
M  V30 8 1 8 9
M  V30 9 1 9 10
M  V30 10 1 8 11
M  V30 11 1 11 12
M  V30 12 2 12 13
M  V30 13 1 13 14
M  V30 14 2 14 15
M  V30 15 1 15 16
M  V30 16 2 16 17
M  V30 17 1 17 18
M  V30 18 1 18 19
M  V30 19 1 18 20
M  V30 20 1 18 21
M  V30 21 1 17 22
M  V30 22 2 22 23
M  V30 23 1 12 24
M  V30 24 2 24 25
M  V30 25 1 24 26
M  V30 26 1 3 27
M  V30 27 2 27 28
M  V30 28 1 28 29
M  V30 29 2 29 30
M  V30 30 1 30 31
M  V30 31 2 31 32
M  V30 32 1 26 8
M  V30 33 1 32 27
M  V30 34 1 23 14
M  V30 35 1 1 33
M  V30 36 1 1 34
M  V30 37 1 1 35
M  V30 38 1 2 36
M  V30 39 1 2 37
M  V30 40 1 3 38
M  V30 41 1 7 39
M  V30 42 1 7 40
M  V30 43 1 9 41
M  V30 44 1 9 42
M  V30 45 1 10 43
M  V30 46 1 11 44
M  V30 47 1 11 45
M  V30 48 1 13 46
M  V30 49 1 15 47
M  V30 50 1 16 48
M  V30 51 1 22 49
M  V30 52 1 23 50
M  V30 53 1 28 51
M  V30 54 1 29 52
M  V30 55 1 30 53
M  V30 56 1 31 54
M  V30 57 1 32 55
M  V30 END BOND
M  V30 END CTAB
M  END
>  <Dataset>  (252) 
ChEMBL_Kinases

>  <Ligand_Instance>  (252) 
nan

>  <PDB_ID>  (252) 
nan

>  <Standardized_SMILES>  (252) 
CCC(C(=O)OCC1(CO)C/C(=C/c2ccc(C(F)(F)F)cc2)C(=O)O1)c1ccccc1

>  <Name>  (252) 
nan

>  <Pocket>  (252) 
nan

>  <ATP_Site>  (252) 
nan

>  <Peripheral>  (252) 
nan

>  <Num_H_Atoms_ProtBoundConf>  (252) 
nan

>  <Num_Resolved_Atoms>  (252) 
nan

>  <Num_Not_Resolved_Atoms>  (252) 
nan

$$$$
CHEMBL472171
     RDKit          3D

  0  0  0  0  0  0  0  0  0  0999 V3000
M  V30 BEGIN CTAB
M  V30 COUNTS 53 55 0 0 0
M  V30 BEGIN ATOM
M  V30 1 C 3.324125 -5.225495 -1.570638 0
M  V30 2 N 2.460142 -4.621859 -0.558986 0
M  V30 3 C 1.809108 -5.550726 0.337138 0
M  V30 4 C 2.297576 -3.211827 -0.499136 0
M  V30 5 C 1.498511 -2.585725 0.435472 0
M  V30 6 C 1.321826 -1.220944 0.509966 0
M  V30 7 C 1.995020 -0.421267 -0.420279 0
M  V30 8 C 1.839726 1.051225 -0.398771 0
M  V30 9 O 2.412243 1.832385 -1.210439 0
M  V30 10 O 1.019232 1.606123 0.565295 0
M  V30 11 C 0.736994 2.958009 0.750691 0
M  V30 12 C -0.202316 3.044108 1.941800 0
M  V30 13 C -0.508390 4.494075 2.224412 0
M  V30 14 O -1.187232 5.126223 1.199124 0
M  V30 15 C -1.447201 2.230653 1.729734 0
M  V30 16 C -1.259474 1.085854 2.649582 0
M  V30 17 C -1.731625 -0.161841 2.653832 0
M  V30 18 C -2.620713 -0.582250 1.577163 0
M  V30 19 C -3.620794 0.137796 0.960945 0
M  V30 20 C -4.346582 -0.454654 -0.051935 0
M  V30 21 C -4.142511 -1.743995 -0.505310 0
M  V30 22 C -3.140174 -2.431490 0.129990 0
M  V30 23 N -2.887059 -3.763623 -0.298626 0 CHG=1 VAL=4
M  V30 24 O -3.520552 -4.315616 -1.201727 0
M  V30 25 O -1.937280 -4.611211 0.203516 0 CHG=-1 VAL=1
M  V30 26 C -2.373791 -1.896715 1.152747 0
M  V30 27 C -0.360137 1.609214 3.667462 0
M  V30 28 O -0.343720 1.290234 4.908679 0
M  V30 29 O 0.482880 2.519859 3.053682 0
M  V30 30 C 2.795458 -1.037791 -1.357079 0
M  V30 31 C 2.958774 -2.421229 -1.412773 0
M  V30 32 H 3.582198 -6.263256 -1.346120 0
M  V30 33 H 4.270816 -4.613442 -1.530293 0
M  V30 34 H 2.847894 -5.053797 -2.534809 0
M  V30 35 H 0.888943 -5.168401 0.800774 0
M  V30 36 H 1.497730 -6.474777 -0.223269 0
M  V30 37 H 2.520034 -5.932633 1.123471 0
M  V30 38 H 0.961312 -3.168857 1.171736 0
M  V30 39 H 0.720469 -0.688146 1.208155 0
M  V30 40 H 0.373589 3.497198 -0.139279 0
M  V30 41 H 1.680695 3.453114 1.072827 0
M  V30 42 H -1.192427 4.508931 3.105437 0
M  V30 43 H 0.456570 4.996134 2.440305 0
M  V30 44 H -0.719935 5.886532 0.800973 0
M  V30 45 H -2.300921 2.893092 2.017820 0
M  V30 46 H -1.572240 1.907193 0.676597 0
M  V30 47 H -1.464014 -0.870076 3.454183 0
M  V30 48 H -3.753121 1.125219 1.332313 0
M  V30 49 H -5.127297 0.128219 -0.522113 0
M  V30 50 H -4.754728 -2.134534 -1.304295 0
M  V30 51 H -1.598278 -2.540851 1.586642 0
M  V30 52 H 3.328176 -0.425061 -2.089977 0
M  V30 53 H 3.618536 -2.803284 -2.199002 0
M  V30 END ATOM
M  V30 BEGIN BOND
M  V30 1 1 1 2
M  V30 2 1 2 3
M  V30 3 1 2 4
M  V30 4 2 4 5
M  V30 5 1 5 6
M  V30 6 2 6 7
M  V30 7 1 7 8
M  V30 8 2 8 9
M  V30 9 1 8 10
M  V30 10 1 10 11
M  V30 11 1 11 12
M  V30 12 1 12 13
M  V30 13 1 13 14
M  V30 14 1 12 15
M  V30 15 1 15 16
M  V30 16 2 16 17
M  V30 17 1 17 18
M  V30 18 2 18 19
M  V30 19 1 19 20
M  V30 20 2 20 21
M  V30 21 1 21 22
M  V30 22 1 22 23
M  V30 23 2 23 24
M  V30 24 1 23 25
M  V30 25 2 22 26
M  V30 26 1 16 27
M  V30 27 2 27 28
M  V30 28 1 27 29
M  V30 29 1 7 30
M  V30 30 2 30 31
M  V30 31 1 31 4
M  V30 32 1 29 12
M  V30 33 1 26 18
M  V30 34 1 1 32
M  V30 35 1 1 33
M  V30 36 1 1 34
M  V30 37 1 3 35
M  V30 38 1 3 36
M  V30 39 1 3 37
M  V30 40 1 5 38
M  V30 41 1 6 39
M  V30 42 1 11 40
M  V30 43 1 11 41
M  V30 44 1 13 42
M  V30 45 1 13 43
M  V30 46 1 14 44
M  V30 47 1 15 45
M  V30 48 1 15 46
M  V30 49 1 17 47
M  V30 50 1 19 48
M  V30 51 1 20 49
M  V30 52 1 21 50
M  V30 53 1 26 51
M  V30 54 1 30 52
M  V30 55 1 31 53
M  V30 END BOND
M  V30 END CTAB
M  END
>  <Dataset>  (253) 
ChEMBL_Kinases

>  <Ligand_Instance>  (253) 
nan

>  <PDB_ID>  (253) 
nan

>  <Standardized_SMILES>  (253) 
CN(C)c1ccc(C(=O)OCC2(CO)C/C(=C\c3cccc([N+](=O)[O-])c3)C(=O)O2)cc1

>  <Name>  (253) 
nan

>  <Pocket>  (253) 
nan

>  <ATP_Site>  (253) 
nan

>  <Peripheral>  (253) 
nan

>  <Num_H_Atoms_ProtBoundConf>  (253) 
nan

>  <Num_Resolved_Atoms>  (253) 
nan

>  <Num_Not_Resolved_Atoms>  (253) 
nan

$$$$
CHEMBL4471850
     RDKit          3D

  0  0  0  0  0  0  0  0  0  0999 V3000
M  V30 BEGIN CTAB
M  V30 COUNTS 60 63 0 0 0
M  V30 BEGIN ATOM
M  V30 1 C 3.016423 -2.388618 4.227610 0
M  V30 2 C 1.626336 -1.986528 4.745338 0
M  V30 3 C 0.819193 -3.271390 4.750909 0
M  V30 4 C 1.001232 -0.948772 3.897432 0
M  V30 5 C 1.259710 0.396615 4.055566 0
M  V30 6 N 0.549457 1.061564 3.126415 0
M  V30 7 N -0.155997 0.217007 2.374347 0
M  V30 8 C -1.004092 0.380625 1.333984 0
M  V30 9 N -1.198488 1.758544 0.950513 0
M  V30 10 C -0.217317 2.167977 -0.066122 0
M  V30 11 C -0.334028 3.579390 -0.432749 0
M  V30 12 C 0.456322 4.461314 0.283222 0
M  V30 13 C 0.413467 5.816047 0.013699 0
M  V30 14 C -0.405519 6.328630 -0.962764 0
M  V30 15 C -1.205368 5.472757 -1.693162 0
M  V30 16 C -1.142706 4.128964 -1.403587 0
M  V30 17 C -1.618995 -0.683919 0.715379 0
M  V30 18 C -1.301550 -1.937946 1.243431 0
M  V30 19 N -1.857320 -3.119484 0.694097 0
M  V30 20 C -0.988139 -3.955069 -0.102780 0
M  V30 21 C -0.447105 -3.165007 -1.258074 0 CFG=2
M  V30 22 O 0.264819 -2.072936 -0.757083 0
M  V30 23 C -1.571244 -2.668358 -2.104042 0
M  V30 24 C -1.970098 -3.607407 -3.211793 0
M  V30 25 N -0.838546 -4.122832 -3.963668 0
M  V30 26 C 0.418546 -3.581555 -3.495832 0
M  V30 27 C 0.553199 -3.986231 -2.049586 0 CFG=1
M  V30 28 O 1.861576 -3.719008 -1.649869 0
M  V30 29 N -0.456982 -2.097695 2.277597 0
M  V30 30 C 0.116730 -1.021084 2.843597 0
M  V30 31 H 3.794314 -1.663765 4.560061 0
M  V30 32 H 3.260710 -3.385484 4.590954 0
M  V30 33 H 3.044530 -2.399283 3.120517 0
M  V30 34 H 1.795354 -1.573521 5.758702 0
M  V30 35 H -0.259462 -3.098415 4.784546 0
M  V30 36 H 1.115333 -3.828904 5.666553 0
M  V30 37 H 1.070388 -3.901729 3.876828 0
M  V30 38 H 1.881934 0.962415 4.738064 0
M  V30 39 H -2.009406 1.965401 1.570518 0
M  V30 40 H -0.322649 1.469886 -0.945377 0
M  V30 41 H 0.778902 1.934451 0.362253 0
M  V30 42 H 1.121958 4.132500 1.065281 0
M  V30 43 H 1.051477 6.494047 0.594362 0
M  V30 44 H -0.431264 7.405365 -1.169235 0
M  V30 45 H -1.852886 5.840825 -2.459715 0
M  V30 46 H -1.751880 3.415080 -1.948767 0
M  V30 47 H -2.285631 -0.526430 -0.102129 0
M  V30 48 H -2.858519 -3.389802 0.846857 0
M  V30 49 H -0.171411 -4.389218 0.509998 0
M  V30 50 H -1.591037 -4.793189 -0.538919 0
M  V30 51 H 0.984483 -2.324076 -0.141267 0
M  V30 52 H -1.324219 -1.660120 -2.471923 0
M  V30 53 H -2.469011 -2.600818 -1.428671 0
M  V30 54 H -2.608716 -4.423810 -2.806148 0
M  V30 55 H -2.616040 -3.035894 -3.914342 0
M  V30 56 H -0.939464 -3.930637 -4.965770 0
M  V30 57 H 1.222921 -3.941939 -4.136131 0
M  V30 58 H 0.308226 -2.475451 -3.532451 0
M  V30 59 H 0.326979 -5.053409 -1.885878 0
M  V30 60 H 2.047249 -4.004637 -0.715925 0
M  V30 END ATOM
M  V30 BEGIN BOND
M  V30 1 1 1 2
M  V30 2 1 2 3
M  V30 3 1 2 4
M  V30 4 1 4 5
M  V30 5 2 5 6
M  V30 6 1 6 7
M  V30 7 1 7 8
M  V30 8 1 8 9
M  V30 9 1 9 10
M  V30 10 1 10 11
M  V30 11 2 11 12
M  V30 12 1 12 13
M  V30 13 2 13 14
M  V30 14 1 14 15
M  V30 15 2 15 16
M  V30 16 2 8 17
M  V30 17 1 17 18
M  V30 18 1 18 19
M  V30 19 1 19 20
M  V30 20 1 20 21
M  V30 21 1 21 22 CFG=1
M  V30 22 1 21 23
M  V30 23 1 23 24
M  V30 24 1 24 25
M  V30 25 1 25 26
M  V30 26 1 26 27
M  V30 27 1 27 28
M  V30 28 2 18 29
M  V30 29 1 29 30
M  V30 30 2 30 4
M  V30 31 1 30 7
M  V30 32 1 16 11
M  V30 33 1 27 21
M  V30 34 1 1 31
M  V30 35 1 1 32
M  V30 36 1 1 33
M  V30 37 1 2 34
M  V30 38 1 3 35
M  V30 39 1 3 36
M  V30 40 1 3 37
M  V30 41 1 5 38
M  V30 42 1 9 39
M  V30 43 1 10 40
M  V30 44 1 10 41
M  V30 45 1 12 42
M  V30 46 1 13 43
M  V30 47 1 14 44
M  V30 48 1 15 45
M  V30 49 1 16 46
M  V30 50 1 17 47
M  V30 51 1 19 48
M  V30 52 1 20 49
M  V30 53 1 20 50
M  V30 54 1 22 51
M  V30 55 1 23 52
M  V30 56 1 23 53
M  V30 57 1 24 54
M  V30 58 1 24 55
M  V30 59 1 25 56
M  V30 60 1 26 57
M  V30 61 1 26 58
M  V30 62 1 27 59 CFG=3
M  V30 63 1 28 60
M  V30 END BOND
M  V30 END CTAB
M  END
>  <Dataset>  (254) 
ChEMBL_Kinases

>  <Ligand_Instance>  (254) 
nan

>  <PDB_ID>  (254) 
nan

>  <Standardized_SMILES>  (254) 
CC(C)c1cnn2c(NCc3ccccc3)cc(NC[C@]3(O)CCNC[C@H]3O)nc12

>  <Name>  (254) 
nan

>  <Pocket>  (254) 
nan

>  <ATP_Site>  (254) 
nan

>  <Peripheral>  (254) 
nan

>  <Num_H_Atoms_ProtBoundConf>  (254) 
nan

>  <Num_Resolved_Atoms>  (254) 
nan

>  <Num_Not_Resolved_Atoms>  (254) 
nan

$$$$
CHEMBL4471771
     RDKit          3D

  0  0  0  0  0  0  0  0  0  0999 V3000
M  V30 BEGIN CTAB
M  V30 COUNTS 50 54 0 0 0
M  V30 BEGIN ATOM
M  V30 1 O -0.315779 -3.427861 1.414195 0
M  V30 2 C -0.893199 -2.293740 1.335299 0
M  V30 3 C -0.069568 -1.105668 1.139657 0
M  V30 4 C 1.278198 -0.848124 1.004370 0
M  V30 5 C 1.788589 0.396027 0.826996 0
M  V30 6 C 3.203320 0.718463 0.679308 0
M  V30 7 C 4.189070 -0.241171 0.706725 0
M  V30 8 C 5.545148 0.022951 0.570137 0
M  V30 9 N 5.888325 1.332091 0.398892 0
M  V30 10 C 4.944376 2.289523 0.368403 0
M  V30 11 N 5.338546 3.646058 0.187910 0
M  V30 12 C 4.354193 4.674365 0.152880 0
M  V30 13 N 3.024830 4.533852 0.273791 0
M  V30 14 C 2.424685 5.748137 0.187825 0
M  V30 15 C 3.458550 6.642471 0.007431 0
M  V30 16 O 4.549205 5.950764 -0.002996 0
M  V30 17 N 3.641759 1.982790 0.505441 0
M  V30 18 C 0.880330 1.433529 0.784930 0
M  V30 19 C -0.497228 1.239354 0.915617 0
M  V30 20 C -0.969900 -0.061520 1.096253 0
M  V30 21 C -2.385272 -0.475120 1.254619 0
M  V30 22 N -2.282501 -1.912581 1.403330 0
M  V30 23 C -3.235089 -3.011630 1.601493 0
M  V30 24 C -3.045129 -3.669664 2.928685 0
M  V30 25 O -3.907387 -4.702764 3.197558 0
M  V30 26 C -3.207094 -3.937394 0.445670 0
M  V30 27 C -3.145395 -5.311545 0.367876 0
M  V30 28 C -3.135900 -5.947972 -0.853534 0
M  V30 29 C -3.186951 -5.248445 -2.040721 0
M  V30 30 C -3.248900 -3.871884 -1.978220 0
M  V30 31 Cl -3.310841 -3.059946 -3.528527 0
M  V30 32 C -3.259175 -3.218936 -0.754769 0
M  V30 33 H 1.961896 -1.684791 1.042168 0
M  V30 34 H 3.948811 -1.272142 0.839203 0
M  V30 35 H 6.283638 -0.746233 0.596204 0
M  V30 36 H 6.336481 3.902902 0.080500 0
M  V30 37 H 1.350598 5.896093 0.256756 0
M  V30 38 H 3.275573 7.707399 -0.095200 0
M  V30 39 H 1.183780 2.457967 0.648133 0
M  V30 40 H -1.180281 2.090577 0.876176 0
M  V30 41 H -2.818929 -0.096848 2.210378 0
M  V30 42 H -2.955559 -0.153237 0.374624 0
M  V30 43 H -4.261619 -2.546726 1.627222 0
M  V30 44 H -3.152799 -2.935843 3.754669 0
M  V30 45 H -2.013761 -4.089312 2.952560 0
M  V30 46 H -4.792279 -4.648620 2.746961 0
M  V30 47 H -3.106569 -5.774878 1.323621 0
M  V30 48 H -3.085476 -7.036426 -0.813352 0
M  V30 49 H -3.175352 -5.824050 -2.958020 0
M  V30 50 H -3.310451 -2.151680 -0.889863 0
M  V30 END ATOM
M  V30 BEGIN BOND
M  V30 1 2 1 2
M  V30 2 1 2 3
M  V30 3 2 3 4
M  V30 4 1 4 5
M  V30 5 1 5 6
M  V30 6 2 6 7
M  V30 7 1 7 8
M  V30 8 2 8 9
M  V30 9 1 9 10
M  V30 10 1 10 11
M  V30 11 1 11 12
M  V30 12 2 12 13
M  V30 13 1 13 14
M  V30 14 2 14 15
M  V30 15 1 15 16
M  V30 16 2 10 17
M  V30 17 2 5 18
M  V30 18 1 18 19
M  V30 19 2 19 20
M  V30 20 1 20 21
M  V30 21 1 21 22
M  V30 22 1 22 23
M  V30 23 1 23 24
M  V30 24 1 24 25
M  V30 25 1 23 26
M  V30 26 2 26 27
M  V30 27 1 27 28
M  V30 28 2 28 29
M  V30 29 1 29 30
M  V30 30 1 30 31
M  V30 31 2 30 32
M  V30 32 1 22 2
M  V30 33 1 32 26
M  V30 34 1 20 3
M  V30 35 1 17 6
M  V30 36 1 16 12
M  V30 37 1 4 33
M  V30 38 1 7 34
M  V30 39 1 8 35
M  V30 40 1 11 36
M  V30 41 1 14 37
M  V30 42 1 15 38
M  V30 43 1 18 39
M  V30 44 1 19 40
M  V30 45 1 21 41
M  V30 46 1 21 42
M  V30 47 1 23 43
M  V30 48 1 24 44
M  V30 49 1 24 45
M  V30 50 1 25 46
M  V30 51 1 27 47
M  V30 52 1 28 48
M  V30 53 1 29 49
M  V30 54 1 32 50
M  V30 END BOND
M  V30 END CTAB
M  END
>  <Dataset>  (255) 
ChEMBL_Kinases

>  <Ligand_Instance>  (255) 
nan

>  <PDB_ID>  (255) 
nan

>  <Standardized_SMILES>  (255) 
O=C1c2cc(-c3ccnc(Nc4ncco4)n3)ccc2CN1C(CO)c1cccc(Cl)c1

>  <Name>  (255) 
nan

>  <Pocket>  (255) 
nan

>  <ATP_Site>  (255) 
nan

>  <Peripheral>  (255) 
nan

>  <Num_H_Atoms_ProtBoundConf>  (255) 
nan

>  <Num_Resolved_Atoms>  (255) 
nan

>  <Num_Not_Resolved_Atoms>  (255) 
nan

$$$$
CHEMBL470097
     RDKit          3D

  0  0  0  0  0  0  0  0  0  0999 V3000
M  V30 BEGIN CTAB
M  V30 COUNTS 52 54 0 0 0
M  V30 BEGIN ATOM
M  V30 1 C -0.800742 -5.185226 2.131367 0
M  V30 2 C -0.281327 -3.807991 1.785205 0
M  V30 3 C 1.178983 -3.882839 1.374906 0
M  V30 4 C 1.685096 -2.503979 1.034391 0
M  V30 5 O 2.126030 -2.335255 -0.111014 0
M  V30 6 O 1.556070 -1.683105 2.084351 0
M  V30 7 C 1.870274 -0.353450 2.199490 0
M  V30 8 C 0.993461 0.590372 1.500368 0
M  V30 9 C 1.158673 0.852536 0.063178 0
M  V30 10 O 0.553637 -0.035601 -0.801930 0
M  V30 11 C 1.241045 2.031644 2.143213 0
M  V30 12 C 0.089248 2.731360 1.519451 0
M  V30 13 C -0.189910 3.887631 0.894001 0
M  V30 14 C -1.522499 4.245464 0.383786 0
M  V30 15 C -2.276290 3.360306 -0.396781 0
M  V30 16 C -3.550996 3.749469 -0.824056 0
M  V30 17 C -4.092029 4.977252 -0.503093 0
M  V30 18 Br -5.854000 5.329401 -1.178493 0
M  V30 19 C -3.355355 5.854073 0.264045 0
M  V30 20 C -2.079062 5.479631 0.699270 0
M  V30 21 C -0.929282 1.713491 1.810451 0
M  V30 22 O -2.191602 1.902347 1.935622 0
M  V30 23 O -0.345102 0.469254 1.942047 0
M  V30 24 C 1.314649 -4.826873 0.260170 0
M  V30 25 C 0.688294 -4.481911 -0.931418 0
M  V30 26 C 0.751353 -5.298827 -2.035267 0
M  V30 27 C 1.455910 -6.482031 -1.939678 0
M  V30 28 C 2.096111 -6.871275 -0.779979 0
M  V30 29 C 2.018122 -6.030050 0.321589 0
M  V30 30 H -0.018825 -5.983691 2.035710 0
M  V30 31 H -1.713425 -5.416008 1.539423 0
M  V30 32 H -1.123024 -5.231985 3.212895 0
M  V30 33 H -0.883078 -3.354124 0.943722 0
M  V30 34 H -0.458808 -3.155381 2.651423 0
M  V30 35 H 1.755893 -4.234288 2.251134 0
M  V30 36 H 2.969562 -0.158393 1.942344 0
M  V30 37 H 1.824273 -0.116520 3.314557 0
M  V30 38 H 2.278130 0.902355 -0.130629 0
M  V30 39 H 0.843164 1.908381 -0.222652 0
M  V30 40 H 0.895164 0.097108 -1.707936 0
M  V30 41 H 2.220597 2.392104 1.853349 0
M  V30 42 H 1.067757 1.902956 3.222994 0
M  V30 43 H 0.730577 4.482402 0.842969 0
M  V30 44 H -1.872175 2.395578 -0.677877 0
M  V30 45 H -4.113226 3.025652 -1.435632 0
M  V30 46 H -3.822120 6.796854 0.486630 0
M  V30 47 H -1.538435 6.220889 1.306637 0
M  V30 48 H 0.138516 -3.562874 -1.015994 0
M  V30 49 H 0.251499 -5.000664 -2.946374 0
M  V30 50 H 1.482170 -7.100740 -2.831865 0
M  V30 51 H 2.637591 -7.810984 -0.754328 0
M  V30 52 H 2.503805 -6.290987 1.257995 0
M  V30 END ATOM
M  V30 BEGIN BOND
M  V30 1 1 1 2
M  V30 2 1 2 3
M  V30 3 1 3 4
M  V30 4 2 4 5
M  V30 5 1 4 6
M  V30 6 1 6 7
M  V30 7 1 7 8
M  V30 8 1 8 9
M  V30 9 1 9 10
M  V30 10 1 8 11
M  V30 11 1 11 12
M  V30 12 2 12 13
M  V30 13 1 13 14
M  V30 14 2 14 15
M  V30 15 1 15 16
M  V30 16 2 16 17
M  V30 17 1 17 18
M  V30 18 1 17 19
M  V30 19 2 19 20
M  V30 20 1 12 21
M  V30 21 2 21 22
M  V30 22 1 21 23
M  V30 23 1 3 24
M  V30 24 2 24 25
M  V30 25 1 25 26
M  V30 26 2 26 27
M  V30 27 1 27 28
M  V30 28 2 28 29
M  V30 29 1 23 8
M  V30 30 1 29 24
M  V30 31 1 20 14
M  V30 32 1 1 30
M  V30 33 1 1 31
M  V30 34 1 1 32
M  V30 35 1 2 33
M  V30 36 1 2 34
M  V30 37 1 3 35
M  V30 38 1 7 36
M  V30 39 1 7 37
M  V30 40 1 9 38
M  V30 41 1 9 39
M  V30 42 1 10 40
M  V30 43 1 11 41
M  V30 44 1 11 42
M  V30 45 1 13 43
M  V30 46 1 15 44
M  V30 47 1 16 45
M  V30 48 1 19 46
M  V30 49 1 20 47
M  V30 50 1 25 48
M  V30 51 1 26 49
M  V30 52 1 27 50
M  V30 53 1 28 51
M  V30 54 1 29 52
M  V30 END BOND
M  V30 END CTAB
M  END
>  <Dataset>  (256) 
ChEMBL_Kinases

>  <Ligand_Instance>  (256) 
nan

>  <PDB_ID>  (256) 
nan

>  <Standardized_SMILES>  (256) 
CCC(C(=O)OCC1(CO)C/C(=C/c2ccc(Br)cc2)C(=O)O1)c1ccccc1

>  <Name>  (256) 
nan

>  <Pocket>  (256) 
nan

>  <ATP_Site>  (256) 
nan

>  <Peripheral>  (256) 
nan

>  <Num_H_Atoms_ProtBoundConf>  (256) 
nan

>  <Num_Resolved_Atoms>  (256) 
nan

>  <Num_Not_Resolved_Atoms>  (256) 
nan

$$$$
CHEMBL470098
     RDKit          3D

  0  0  0  0  0  0  0  0  0  0999 V3000
M  V30 BEGIN CTAB
M  V30 COUNTS 52 54 0 0 0
M  V30 BEGIN ATOM
M  V30 1 C -2.288324 -4.613842 -1.336256 0
M  V30 2 C -1.642036 -3.502516 -0.535594 0
M  V30 3 C -0.440991 -3.993109 0.231453 0
M  V30 4 C 0.133842 -2.861959 0.989416 0
M  V30 5 O 0.347091 -2.776004 2.227483 0
M  V30 6 O 0.546307 -1.663421 0.423394 0
M  V30 7 C 1.086255 -0.613423 1.161122 0
M  V30 8 C 1.471963 0.601703 0.396581 0
M  V30 9 C 2.589645 0.373465 -0.591707 0
M  V30 10 O 3.706324 -0.241002 -0.016332 0
M  V30 11 C 1.829827 1.742807 1.361317 0
M  V30 12 C 0.485700 2.295123 1.669345 0
M  V30 13 C 0.013864 3.037974 2.659272 0
M  V30 14 C -1.309032 3.571162 2.937256 0
M  V30 15 C -1.746264 3.300926 4.233109 0
M  V30 16 C -2.977090 3.772684 4.650608 0
M  V30 17 C -3.771391 4.504478 3.801014 0
M  V30 18 F -4.998299 5.012216 4.121874 0
M  V30 19 C -3.353749 4.784241 2.508072 0
M  V30 20 Cl -4.305359 5.717687 1.342720 0
M  V30 21 C -2.119520 4.296712 2.127551 0
M  V30 22 C -0.446974 1.824595 0.621204 0
M  V30 23 O -1.680601 1.932465 0.572591 0
M  V30 24 O 0.406964 1.222578 -0.304672 0
M  V30 25 C 0.584831 -4.433114 -0.758745 0
M  V30 26 C 1.047264 -5.753269 -0.692293 0
M  V30 27 C 2.000191 -6.156848 -1.611617 0
M  V30 28 C 2.496621 -5.303057 -2.575669 0
M  V30 29 C 2.001262 -4.023186 -2.585107 0
M  V30 30 C 1.047311 -3.541220 -1.700335 0
M  V30 31 H -2.781887 -5.316472 -0.616298 0
M  V30 32 H -1.567228 -5.226321 -1.909929 0
M  V30 33 H -3.005490 -4.164017 -2.045981 0
M  V30 34 H -2.411823 -3.157845 0.177669 0
M  V30 35 H -1.381851 -2.629090 -1.153661 0
M  V30 36 H -0.692559 -4.803817 0.937916 0
M  V30 37 H 0.419423 -0.291410 2.008628 0
M  V30 38 H 1.994230 -1.009364 1.676418 0
M  V30 39 H 2.879130 1.326010 -1.095235 0
M  V30 40 H 2.269507 -0.306711 -1.406195 0
M  V30 41 H 4.501018 0.244653 -0.344635 0
M  V30 42 H 2.333319 1.361156 2.262526 0
M  V30 43 H 2.474821 2.437835 0.802713 0
M  V30 44 H 0.790955 3.290449 3.403140 0
M  V30 45 H -1.205762 2.737371 4.982008 0
M  V30 46 H -3.440108 3.634327 5.635446 0
M  V30 47 H -1.780622 4.523231 1.138932 0
M  V30 48 H 0.633845 -6.394156 0.078223 0
M  V30 49 H 2.340623 -7.180367 -1.537208 0
M  V30 50 H 3.227865 -5.663508 -3.257621 0
M  V30 51 H 2.366190 -3.313670 -3.330550 0
M  V30 52 H 0.685114 -2.509677 -1.749671 0
M  V30 END ATOM
M  V30 BEGIN BOND
M  V30 1 1 1 2
M  V30 2 1 2 3
M  V30 3 1 3 4
M  V30 4 2 4 5
M  V30 5 1 4 6
M  V30 6 1 6 7
M  V30 7 1 7 8
M  V30 8 1 8 9
M  V30 9 1 9 10
M  V30 10 1 8 11
M  V30 11 1 11 12
M  V30 12 2 12 13
M  V30 13 1 13 14
M  V30 14 2 14 15
M  V30 15 1 15 16
M  V30 16 2 16 17
M  V30 17 1 17 18
M  V30 18 1 17 19
M  V30 19 1 19 20
M  V30 20 2 19 21
M  V30 21 1 12 22
M  V30 22 2 22 23
M  V30 23 1 22 24
M  V30 24 1 3 25
M  V30 25 2 25 26
M  V30 26 1 26 27
M  V30 27 2 27 28
M  V30 28 1 28 29
M  V30 29 2 29 30
M  V30 30 1 24 8
M  V30 31 1 30 25
M  V30 32 1 21 14
M  V30 33 1 1 31
M  V30 34 1 1 32
M  V30 35 1 1 33
M  V30 36 1 2 34
M  V30 37 1 2 35
M  V30 38 1 3 36
M  V30 39 1 7 37
M  V30 40 1 7 38
M  V30 41 1 9 39
M  V30 42 1 9 40
M  V30 43 1 10 41
M  V30 44 1 11 42
M  V30 45 1 11 43
M  V30 46 1 13 44
M  V30 47 1 15 45
M  V30 48 1 16 46
M  V30 49 1 21 47
M  V30 50 1 26 48
M  V30 51 1 27 49
M  V30 52 1 28 50
M  V30 53 1 29 51
M  V30 54 1 30 52
M  V30 END BOND
M  V30 END CTAB
M  END
>  <Dataset>  (257) 
ChEMBL_Kinases

>  <Ligand_Instance>  (257) 
nan

>  <PDB_ID>  (257) 
nan

>  <Standardized_SMILES>  (257) 
CCC(C(=O)OCC1(CO)C/C(=C/c2ccc(F)c(Cl)c2)C(=O)O1)c1ccccc1

>  <Name>  (257) 
nan

>  <Pocket>  (257) 
nan

>  <ATP_Site>  (257) 
nan

>  <Peripheral>  (257) 
nan

>  <Num_H_Atoms_ProtBoundConf>  (257) 
nan

>  <Num_Resolved_Atoms>  (257) 
nan

>  <Num_Not_Resolved_Atoms>  (257) 
nan

$$$$
CHEMBL470109
     RDKit          3D

  0  0  0  0  0  0  0  0  0  0999 V3000
M  V30 BEGIN CTAB
M  V30 COUNTS 57 58 0 0 0
M  V30 BEGIN ATOM
M  V30 1 C -1.785066 -4.169141 3.066851 0
M  V30 2 C -1.467191 -4.208305 1.558483 0
M  V30 3 C -0.074415 -3.727955 1.317412 0
M  V30 4 C 0.086640 -2.315140 1.839690 0
M  V30 5 O -0.972338 -1.888224 2.337658 0
M  V30 6 O 1.284428 -1.676493 1.729842 0
M  V30 7 C 1.668348 -0.403269 2.101836 0
M  V30 8 C 1.210881 0.778839 1.357509 0
M  V30 9 C -0.238174 1.085316 1.302417 0
M  V30 10 O -0.877607 0.250387 0.420044 0
M  V30 11 C 1.994285 2.040171 1.839710 0
M  V30 12 C 1.729895 2.945964 0.704522 0
M  V30 13 C 1.726818 4.273107 0.586627 0
M  V30 14 C 1.465426 5.141492 -0.552814 0
M  V30 15 C 1.967197 5.120482 -1.811017 0
M  V30 16 C 1.556497 6.026242 -2.773480 0
M  V30 17 C 0.614177 6.990823 -2.481418 0
M  V30 18 F 0.252376 7.848286 -3.462269 0
M  V30 19 C 0.064664 7.067203 -1.220344 0
M  V30 20 Br -1.235390 8.378958 -0.785995 0
M  V30 21 C 0.510038 6.134742 -0.289424 0
M  V30 22 C 1.379834 2.122320 -0.443930 0
M  V30 23 O 0.921439 2.485588 -1.585962 0
M  V30 24 O 1.659813 0.835759 -0.010246 0
M  V30 25 C -1.786900 -5.575087 1.084794 0
M  V30 26 C -1.589326 -5.936896 -0.333053 0
M  V30 27 C -0.207160 -5.873968 -0.882882 0
M  V30 28 C -2.099180 -7.379953 -0.506444 0
M  V30 29 C -2.502592 -5.120761 -1.259815 0
M  V30 30 H -0.857176 -3.882297 3.628834 0
M  V30 31 H -2.154247 -5.156446 3.345248 0
M  V30 32 H -2.561479 -3.396088 3.204359 0
M  V30 33 H -2.184831 -3.505235 1.079442 0
M  V30 34 H 0.646416 -4.423823 1.757738 0
M  V30 35 H 0.095003 -3.668321 0.211867 0
M  V30 36 H 1.504732 -0.250379 3.220657 0
M  V30 37 H 2.800848 -0.409806 2.042932 0
M  V30 38 H -0.342907 2.130076 0.886245 0
M  V30 39 H -0.729351 1.133248 2.295003 0
M  V30 40 H -0.412477 0.217563 -0.451693 0
M  V30 41 H 3.049408 1.735856 1.802696 0
M  V30 42 H 1.626805 2.389515 2.807888 0
M  V30 43 H 1.968322 4.812183 1.520498 0
M  V30 44 H 2.704433 4.387320 -2.018914 0
M  V30 45 H 2.027729 5.910699 -3.743433 0
M  V30 46 H 0.036140 6.244729 0.699323 0
M  V30 47 H -1.193234 -6.307175 1.707612 0
M  V30 48 H -2.855634 -5.863095 1.362343 0
M  V30 49 H 0.603950 -5.897597 -0.134594 0
M  V30 50 H -0.096962 -5.032079 -1.625485 0
M  V30 51 H -0.042945 -6.832817 -1.491233 0
M  V30 52 H -1.792067 -7.981399 0.358220 0
M  V30 53 H -3.205004 -7.382668 -0.646493 0
M  V30 54 H -1.679358 -7.855108 -1.416699 0
M  V30 55 H -2.565466 -5.700504 -2.203746 0
M  V30 56 H -3.521500 -5.042994 -0.842733 0
M  V30 57 H -2.064553 -4.137596 -1.513090 0
M  V30 END ATOM
M  V30 BEGIN BOND
M  V30 1 1 1 2
M  V30 2 1 2 3
M  V30 3 1 3 4
M  V30 4 2 4 5
M  V30 5 1 4 6
M  V30 6 1 6 7
M  V30 7 1 7 8
M  V30 8 1 8 9
M  V30 9 1 9 10
M  V30 10 1 8 11
M  V30 11 1 11 12
M  V30 12 2 12 13
M  V30 13 1 13 14
M  V30 14 2 14 15
M  V30 15 1 15 16
M  V30 16 2 16 17
M  V30 17 1 17 18
M  V30 18 1 17 19
M  V30 19 1 19 20
M  V30 20 2 19 21
M  V30 21 1 12 22
M  V30 22 2 22 23
M  V30 23 1 22 24
M  V30 24 1 2 25
M  V30 25 1 25 26
M  V30 26 1 26 27
M  V30 27 1 26 28
M  V30 28 1 26 29
M  V30 29 1 24 8
M  V30 30 1 21 14
M  V30 31 1 1 30
M  V30 32 1 1 31
M  V30 33 1 1 32
M  V30 34 1 2 33
M  V30 35 1 3 34
M  V30 36 1 3 35
M  V30 37 1 7 36
M  V30 38 1 7 37
M  V30 39 1 9 38
M  V30 40 1 9 39
M  V30 41 1 10 40
M  V30 42 1 11 41
M  V30 43 1 11 42
M  V30 44 1 13 43
M  V30 45 1 15 44
M  V30 46 1 16 45
M  V30 47 1 21 46
M  V30 48 1 25 47
M  V30 49 1 25 48
M  V30 50 1 27 49
M  V30 51 1 27 50
M  V30 52 1 27 51
M  V30 53 1 28 52
M  V30 54 1 28 53
M  V30 55 1 28 54
M  V30 56 1 29 55
M  V30 57 1 29 56
M  V30 58 1 29 57
M  V30 END BOND
M  V30 END CTAB
M  END
>  <Dataset>  (258) 
ChEMBL_Kinases

>  <Ligand_Instance>  (258) 
nan

>  <PDB_ID>  (258) 
nan

>  <Standardized_SMILES>  (258) 
CC(CC(=O)OCC1(CO)C/C(=C/c2ccc(F)c(Br)c2)C(=O)O1)CC(C)(C)C

>  <Name>  (258) 
nan

>  <Pocket>  (258) 
nan

>  <ATP_Site>  (258) 
nan

>  <Peripheral>  (258) 
nan

>  <Num_H_Atoms_ProtBoundConf>  (258) 
nan

>  <Num_Resolved_Atoms>  (258) 
nan

>  <Num_Not_Resolved_Atoms>  (258) 
nan

$$$$
CHEMBL4471578
     RDKit          3D

  0  0  0  0  0  0  0  0  0  0999 V3000
M  V30 BEGIN CTAB
M  V30 COUNTS 48 51 0 0 0
M  V30 BEGIN ATOM
M  V30 1 C -0.465479 -6.510645 -1.874219 0
M  V30 2 N 0.734218 -6.309808 -1.089516 0
M  V30 3 N 1.575774 -7.316972 -0.781855 0
M  V30 4 C 2.583946 -6.819298 -0.051961 0
M  V30 5 C 2.295811 -5.475472 0.054483 0
M  V30 6 Cl 3.566295 -4.685847 1.008680 0
M  V30 7 C 1.130267 -5.145529 -0.597436 0
M  V30 8 C 0.686342 -3.787557 -0.584085 0
M  V30 9 C 1.332989 -2.743511 0.039012 0
M  V30 10 C 0.679641 -1.536951 -0.110510 0
M  V30 11 C 1.023428 -0.210274 0.384575 0
M  V30 12 O 2.061660 -0.021733 1.069259 0
M  V30 13 N 0.178793 0.896025 0.094964 0
M  V30 14 C 0.496327 2.208506 0.570739 0
M  V30 15 C 0.702266 3.214415 -0.569435 0
M  V30 16 N 0.452321 4.534889 -0.068861 0
M  V30 17 C 0.807185 4.692659 1.339554 0
M  V30 18 C -0.102121 3.878461 2.236816 0
M  V30 19 C -0.621618 2.736600 1.414924 0
M  V30 20 C -1.333376 1.702933 2.181982 0
M  V30 21 C -2.685270 1.464466 1.909999 0
M  V30 22 C -3.346430 0.482264 2.644556 0
M  V30 23 C -2.711647 -0.261005 3.629483 0
M  V30 24 C -1.380618 0.041890 3.829003 0
M  V30 25 C -0.654115 0.993282 3.150025 0
M  V30 26 O -0.378055 -1.828681 -0.829136 0
M  V30 27 C -0.375136 -3.121801 -1.101829 0
M  V30 28 Cl -1.708529 -3.681277 -2.048594 0
M  V30 29 H -0.511378 -7.623202 -2.120508 0
M  V30 30 H -0.426800 -6.046037 -2.871154 0
M  V30 31 H -1.373468 -6.364055 -1.278046 0
M  V30 32 H 3.290513 -7.576389 0.225124 0
M  V30 33 H 2.259099 -2.668898 0.629874 0
M  V30 34 H -0.699874 0.823055 -0.466114 0
M  V30 35 H 1.426196 2.270975 1.161396 0
M  V30 36 H 0.025745 2.977541 -1.411978 0
M  V30 37 H 1.750722 3.123503 -0.975839 0
M  V30 38 H 1.073074 5.217571 -0.578041 0
M  V30 39 H 1.878900 4.485452 1.506404 0
M  V30 40 H 0.634579 5.761703 1.583095 0
M  V30 41 H -0.910630 4.510440 2.682545 0
M  V30 42 H 0.503373 3.484041 3.087760 0
M  V30 43 H -1.375774 3.169959 0.695168 0
M  V30 44 H -3.250988 2.003853 1.155528 0
M  V30 45 H -4.403469 0.270219 2.457541 0
M  V30 46 H -3.214454 -1.025973 4.206159 0
M  V30 47 H -0.864598 -0.524139 4.591387 0
M  V30 48 H 0.388389 1.173140 3.363806 0
M  V30 END ATOM
M  V30 BEGIN BOND
M  V30 1 1 1 2
M  V30 2 1 2 3
M  V30 3 2 3 4
M  V30 4 1 4 5
M  V30 5 1 5 6
M  V30 6 2 5 7
M  V30 7 1 7 8
M  V30 8 1 8 9
M  V30 9 2 9 10
M  V30 10 1 10 11
M  V30 11 2 11 12
M  V30 12 1 11 13
M  V30 13 1 13 14
M  V30 14 1 14 15
M  V30 15 1 15 16
M  V30 16 1 16 17
M  V30 17 1 17 18
M  V30 18 1 18 19
M  V30 19 1 19 20
M  V30 20 2 20 21
M  V30 21 1 21 22
M  V30 22 2 22 23
M  V30 23 1 23 24
M  V30 24 2 24 25
M  V30 25 1 10 26
M  V30 26 1 26 27
M  V30 27 1 27 28
M  V30 28 1 7 2
M  V30 29 2 27 8
M  V30 30 1 19 14
M  V30 31 1 25 20
M  V30 32 1 1 29
M  V30 33 1 1 30
M  V30 34 1 1 31
M  V30 35 1 4 32
M  V30 36 1 9 33
M  V30 37 1 13 34
M  V30 38 1 14 35
M  V30 39 1 15 36
M  V30 40 1 15 37
M  V30 41 1 16 38
M  V30 42 1 17 39
M  V30 43 1 17 40
M  V30 44 1 18 41
M  V30 45 1 18 42
M  V30 46 1 19 43
M  V30 47 1 21 44
M  V30 48 1 22 45
M  V30 49 1 23 46
M  V30 50 1 24 47
M  V30 51 1 25 48
M  V30 END BOND
M  V30 END CTAB
M  END
>  <Dataset>  (259) 
ChEMBL_Kinases

>  <Ligand_Instance>  (259) 
nan

>  <PDB_ID>  (259) 
nan

>  <Standardized_SMILES>  (259) 
Cn1ncc(Cl)c1-c1cc(C(=O)NC2CNCCC2c2ccccc2)oc1Cl

>  <Name>  (259) 
nan

>  <Pocket>  (259) 
nan

>  <ATP_Site>  (259) 
nan

>  <Peripheral>  (259) 
nan

>  <Num_H_Atoms_ProtBoundConf>  (259) 
nan

>  <Num_Resolved_Atoms>  (259) 
nan

>  <Num_Not_Resolved_Atoms>  (259) 
nan

$$$$
CHEMBL4471478
     RDKit          3D

  0  0  0  0  0  0  0  0  0  0999 V3000
M  V30 BEGIN CTAB
M  V30 COUNTS 37 40 0 0 0
M  V30 BEGIN ATOM
M  V30 1 C 0.756486 -3.954013 2.741736 0
M  V30 2 N 1.559976 -3.956431 1.561810 0
M  V30 3 C 0.904554 -3.610079 0.343649 0
M  V30 4 C 0.663423 -2.186987 0.081263 0
M  V30 5 C 1.781913 -1.305297 0.579158 0
M  V30 6 C 2.718907 -1.942360 1.318384 0
M  V30 7 S 3.894771 -0.679288 1.763583 0
M  V30 8 C 2.955135 0.655295 0.860037 0
M  V30 9 N 3.273934 1.998113 0.738795 0
M  V30 10 C 2.468324 2.795461 0.038362 0
M  V30 11 N 1.417378 2.206531 -0.484455 0
M  V30 12 C 1.083219 0.933580 -0.390632 0
M  V30 13 N -0.112275 0.498585 -1.043867 0
M  V30 14 C -1.354678 0.967325 -0.539325 0
M  V30 15 C -1.547323 2.336551 -0.344285 0
M  V30 16 C -2.702505 2.898030 0.147394 0
M  V30 17 C -3.751945 2.059995 0.474087 0
M  V30 18 C -3.626005 0.710363 0.306505 0
M  V30 19 Cl -4.968184 -0.324907 0.733868 0
M  V30 20 C -2.436688 0.212480 -0.191928 0
M  V30 21 C 1.847423 0.030276 0.308562 0
M  V30 22 C 2.836954 -3.319989 1.712518 0
M  V30 23 H -0.227387 -3.487428 2.668871 0
M  V30 24 H 1.321830 -3.471011 3.562862 0
M  V30 25 H 0.645581 -5.028034 3.049551 0
M  V30 26 H 1.505638 -4.062345 -0.498549 0
M  V30 27 H -0.071842 -4.136369 0.328545 0
M  V30 28 H 0.554876 -2.084222 -1.040316 0
M  V30 29 H -0.313018 -1.844722 0.489236 0
M  V30 30 H 2.786679 3.820132 -0.004707 0
M  V30 31 H -0.439283 -0.094967 -1.849893 0
M  V30 32 H -0.780798 3.078120 -0.573517 0
M  V30 33 H -2.829641 3.961633 0.288492 0
M  V30 34 H -4.662160 2.515159 0.863128 0
M  V30 35 H -2.346141 -0.868709 -0.321622 0
M  V30 36 H 3.245650 -3.440302 2.729056 0
M  V30 37 H 3.544867 -3.836593 1.036613 0
M  V30 END ATOM
M  V30 BEGIN BOND
M  V30 1 1 1 2
M  V30 2 1 2 3
M  V30 3 1 3 4
M  V30 4 1 4 5
M  V30 5 2 5 6
M  V30 6 1 6 7
M  V30 7 1 7 8
M  V30 8 2 8 9
M  V30 9 1 9 10
M  V30 10 2 10 11
M  V30 11 1 11 12
M  V30 12 1 12 13
M  V30 13 1 13 14
M  V30 14 2 14 15
M  V30 15 1 15 16
M  V30 16 2 16 17
M  V30 17 1 17 18
M  V30 18 1 18 19
M  V30 19 2 18 20
M  V30 20 2 12 21
M  V30 21 1 6 22
M  V30 22 1 22 2
M  V30 23 1 21 5
M  V30 24 1 21 8
M  V30 25 1 20 14
M  V30 26 1 1 23
M  V30 27 1 1 24
M  V30 28 1 1 25
M  V30 29 1 3 26
M  V30 30 1 3 27
M  V30 31 1 4 28
M  V30 32 1 4 29
M  V30 33 1 10 30
M  V30 34 1 13 31
M  V30 35 1 15 32
M  V30 36 1 16 33
M  V30 37 1 17 34
M  V30 38 1 20 35
M  V30 39 1 22 36
M  V30 40 1 22 37
M  V30 END BOND
M  V30 END CTAB
M  END
>  <Dataset>  (260) 
ChEMBL_Kinases

>  <Ligand_Instance>  (260) 
nan

>  <PDB_ID>  (260) 
nan

>  <Standardized_SMILES>  (260) 
CN1CCc2c(sc3ncnc(Nc4cccc(Cl)c4)c23)C1

>  <Name>  (260) 
nan

>  <Pocket>  (260) 
nan

>  <ATP_Site>  (260) 
nan

>  <Peripheral>  (260) 
nan

>  <Num_H_Atoms_ProtBoundConf>  (260) 
nan

>  <Num_Resolved_Atoms>  (260) 
nan

>  <Num_Not_Resolved_Atoms>  (260) 
nan

$$$$
CHEMBL470113
     RDKit          3D

  0  0  0  0  0  0  0  0  0  0999 V3000
M  V30 BEGIN CTAB
M  V30 COUNTS 47 51 0 0 0
M  V30 BEGIN ATOM
M  V30 1 N 1.449291 -4.618989 1.616984 0
M  V30 2 C 1.173018 -3.236884 1.915719 0
M  V30 3 O 0.101930 -3.664966 1.415362 0
M  V30 4 C 2.394468 -2.658151 2.512274 0
M  V30 5 C 2.216885 -1.195945 2.862051 0
M  V30 6 N 1.899116 -0.409734 1.685995 0
M  V30 7 C 2.778842 0.205147 0.841415 0
M  V30 8 C 4.157285 0.195114 0.945968 0
M  V30 9 C 4.929890 0.861837 0.018360 0
M  V30 10 C 4.274007 1.535815 -1.012996 0
M  V30 11 O 5.074479 2.199258 -1.933985 0
M  V30 12 C 2.899388 1.501582 -1.052372 0
M  V30 13 C 2.098534 0.858243 -0.160902 0
M  V30 14 C 0.795944 0.630523 0.088266 0
M  V30 15 C -0.314116 1.039537 -0.583408 0
M  V30 16 C -1.563027 0.683796 -0.142279 0
M  V30 17 C -1.715166 -0.101634 0.999998 0
M  V30 18 C -3.003591 -0.502755 1.505043 0
M  V30 19 C -3.737532 0.223560 2.418503 0
M  V30 20 Cl -3.045980 1.717575 2.985413 0
M  V30 21 C -4.972913 -0.189926 2.883869 0
M  V30 22 C -5.484657 -1.391616 2.401353 0
M  V30 23 C -4.765791 -2.136658 1.484604 0
M  V30 24 C -3.532022 -1.707523 1.030456 0
M  V30 25 Cl -2.723756 -2.742631 -0.129666 0
M  V30 26 C -0.598015 -0.503289 1.661315 0
M  V30 27 C 0.646204 -0.142958 1.213098 0
M  V30 28 C -2.640247 1.201147 -0.970752 0
M  V30 29 O -3.880527 1.049077 -0.827814 0
M  V30 30 N -1.950527 1.930227 -1.995633 0
M  V30 31 C -0.557630 1.830196 -1.758919 0
M  V30 32 O 0.169719 2.414845 -2.569528 0
M  V30 33 H 2.086333 -5.278039 1.080401 0
M  V30 34 H 2.027230 -5.352952 1.121987 0
M  V30 35 H 3.218285 -2.754905 1.770276 0
M  V30 36 H 2.665218 -3.239996 3.414289 0
M  V30 37 H 3.159024 -0.858855 3.343837 0
M  V30 38 H 1.426615 -1.127296 3.628513 0
M  V30 39 H 4.668920 -0.316861 1.730314 0
M  V30 40 H 6.005742 0.846513 0.110966 0
M  V30 41 H 4.698605 2.329329 -2.873889 0
M  V30 42 H 2.496407 2.039547 -1.867757 0
M  V30 43 H -5.558477 0.376381 3.604047 0
M  V30 44 H -6.451969 -1.708616 2.770164 0
M  V30 45 H -5.209978 -3.074570 1.134681 0
M  V30 46 H -0.696905 -1.116803 2.555301 0
M  V30 47 H -2.518465 2.419031 -2.749326 0
M  V30 END ATOM
M  V30 BEGIN BOND
M  V30 1 1 1 2
M  V30 2 2 2 3
M  V30 3 1 2 4
M  V30 4 1 4 5
M  V30 5 1 5 6
M  V30 6 1 6 7
M  V30 7 2 7 8
M  V30 8 1 8 9
M  V30 9 2 9 10
M  V30 10 1 10 11
M  V30 11 1 10 12
M  V30 12 2 12 13
M  V30 13 1 13 14
M  V30 14 2 14 15
M  V30 15 1 15 16
M  V30 16 2 16 17
M  V30 17 1 17 18
M  V30 18 2 18 19
M  V30 19 1 19 20
M  V30 20 1 19 21
M  V30 21 2 21 22
M  V30 22 1 22 23
M  V30 23 2 23 24
M  V30 24 1 24 25
M  V30 25 1 17 26
M  V30 26 2 26 27
M  V30 27 1 16 28
M  V30 28 2 28 29
M  V30 29 1 28 30
M  V30 30 1 30 31
M  V30 31 2 31 32
M  V30 32 1 27 6
M  V30 33 1 13 7
M  V30 34 1 27 14
M  V30 35 1 31 15
M  V30 36 1 24 18
M  V30 37 1 1 33
M  V30 38 1 1 34
M  V30 39 1 4 35
M  V30 40 1 4 36
M  V30 41 1 5 37
M  V30 42 1 5 38
M  V30 43 1 8 39
M  V30 44 1 9 40
M  V30 45 1 11 41
M  V30 46 1 12 42
M  V30 47 1 21 43
M  V30 48 1 22 44
M  V30 49 1 23 45
M  V30 50 1 26 46
M  V30 51 1 30 47
M  V30 END BOND
M  V30 END CTAB
M  END
>  <Dataset>  (261) 
ChEMBL_Kinases

>  <Ligand_Instance>  (261) 
nan

>  <PDB_ID>  (261) 
nan

>  <Standardized_SMILES>  (261) 
NC(=O)CCn1c2ccc(O)cc2c2c3c(c(-c4c(Cl)cccc4Cl)cc21)C(=O)NC3=O

>  <Name>  (261) 
nan

>  <Pocket>  (261) 
nan

>  <ATP_Site>  (261) 
nan

>  <Peripheral>  (261) 
nan

>  <Num_H_Atoms_ProtBoundConf>  (261) 
nan

>  <Num_Resolved_Atoms>  (261) 
nan

>  <Num_Not_Resolved_Atoms>  (261) 
nan

$$$$
CHEMBL470117
     RDKit          3D

  0  0  0  0  0  0  0  0  0  0999 V3000
M  V30 BEGIN CTAB
M  V30 COUNTS 47 51 0 0 0
M  V30 BEGIN ATOM
M  V30 1 O 3.491799 2.138191 -1.435218 0
M  V30 2 C 3.204771 1.565174 -0.353382 0
M  V30 3 N 4.091463 1.397966 0.772466 0
M  V30 4 C 3.373845 0.701343 1.775980 0
M  V30 5 O 4.000835 0.475080 2.820506 0
M  V30 6 C 2.037472 0.402238 1.347627 0
M  V30 7 C 1.966896 0.927503 0.080935 0
M  V30 8 C 0.797710 0.815849 -0.653576 0
M  V30 9 C 0.535696 1.330881 -1.993678 0
M  V30 10 C 0.026165 0.369583 -2.857453 0
M  V30 11 C -0.308972 0.622937 -4.171344 0
M  V30 12 C -0.132944 1.897535 -4.666575 0
M  V30 13 C 0.369298 2.853909 -3.821700 0
M  V30 14 C 0.702156 2.597797 -2.512123 0
M  V30 15 C -0.283021 0.155210 -0.054723 0
M  V30 16 C -0.233592 -0.388391 1.235268 0
M  V30 17 C 0.967837 -0.228838 1.889238 0
M  V30 18 C 0.811955 -0.817249 3.109702 0
M  V30 19 C 1.527714 -1.042025 4.247649 0
M  V30 20 C 1.059345 -1.694420 5.362833 0
M  V30 21 O 1.821847 -1.907516 6.513328 0
M  V30 22 C -0.252967 -2.182844 5.371854 0
M  V30 23 C -0.995872 -1.966550 4.230412 0
M  V30 24 C -0.475087 -1.302342 3.131553 0
M  V30 25 N -1.151570 -1.059110 1.995740 0
M  V30 26 C -2.459020 -1.338583 1.471061 0
M  V30 27 C -2.545564 -2.602564 0.668595 0
M  V30 28 C -2.201120 -3.846110 1.422443 0
M  V30 29 O -3.029675 -4.088470 2.497528 0
M  V30 30 H 5.080258 1.776701 0.727186 0
M  V30 31 H -0.153578 -0.664420 -2.577021 0
M  V30 32 H -0.703952 -0.114505 -4.847440 0
M  V30 33 H -0.371930 2.178056 -5.688236 0
M  V30 34 H 0.541958 3.889275 -4.126410 0
M  V30 35 H 1.090382 3.307577 -1.800369 0
M  V30 36 H -1.221868 0.055460 -0.623115 0
M  V30 37 H 2.517918 -0.719517 4.349252 0
M  V30 38 H 2.462806 -1.159233 6.779241 0
M  V30 39 H -0.645038 -2.696375 6.229851 0
M  V30 40 H -2.001661 -2.351435 4.282885 0
M  V30 41 H -2.802980 -0.509353 0.819588 0
M  V30 42 H -3.146118 -1.366681 2.350136 0
M  V30 43 H -1.936786 -2.542966 -0.269783 0
M  V30 44 H -3.596213 -2.749193 0.279291 0
M  V30 45 H -2.233885 -4.733106 0.759166 0
M  V30 46 H -1.129018 -3.742077 1.727351 0
M  V30 47 H -3.877609 -3.588662 2.325077 0
M  V30 END ATOM
M  V30 BEGIN BOND
M  V30 1 2 1 2
M  V30 2 1 2 3
M  V30 3 1 3 4
M  V30 4 2 4 5
M  V30 5 1 4 6
M  V30 6 2 6 7
M  V30 7 1 7 8
M  V30 8 1 8 9
M  V30 9 2 9 10
M  V30 10 1 10 11
M  V30 11 2 11 12
M  V30 12 1 12 13
M  V30 13 2 13 14
M  V30 14 2 8 15
M  V30 15 1 15 16
M  V30 16 2 16 17
M  V30 17 1 17 18
M  V30 18 2 18 19
M  V30 19 1 19 20
M  V30 20 1 20 21
M  V30 21 2 20 22
M  V30 22 1 22 23
M  V30 23 2 23 24
M  V30 24 1 24 25
M  V30 25 1 25 26
M  V30 26 1 26 27
M  V30 27 1 27 28
M  V30 28 1 28 29
M  V30 29 1 7 2
M  V30 30 1 14 9
M  V30 31 1 25 16
M  V30 32 1 17 6
M  V30 33 1 24 18
M  V30 34 1 3 30
M  V30 35 1 10 31
M  V30 36 1 11 32
M  V30 37 1 12 33
M  V30 38 1 13 34
M  V30 39 1 14 35
M  V30 40 1 15 36
M  V30 41 1 19 37
M  V30 42 1 21 38
M  V30 43 1 22 39
M  V30 44 1 23 40
M  V30 45 1 26 41
M  V30 46 1 26 42
M  V30 47 1 27 43
M  V30 48 1 27 44
M  V30 49 1 28 45
M  V30 50 1 28 46
M  V30 51 1 29 47
M  V30 END BOND
M  V30 END CTAB
M  END
>  <Dataset>  (262) 
ChEMBL_Kinases

>  <Ligand_Instance>  (262) 
nan

>  <PDB_ID>  (262) 
nan

>  <Standardized_SMILES>  (262) 
O=C1NC(=O)c2c1c(-c1ccccc1)cc1c2c2cc(O)ccc2n1CCCO

>  <Name>  (262) 
nan

>  <Pocket>  (262) 
nan

>  <ATP_Site>  (262) 
nan

>  <Peripheral>  (262) 
nan

>  <Num_H_Atoms_ProtBoundConf>  (262) 
nan

>  <Num_Resolved_Atoms>  (262) 
nan

>  <Num_Not_Resolved_Atoms>  (262) 
nan

$$$$
CHEMBL470167
     RDKit          3D

  0  0  0  0  0  0  0  0  0  0999 V3000
M  V30 BEGIN CTAB
M  V30 COUNTS 40 43 0 0 0
M  V30 BEGIN ATOM
M  V30 1 C 2.191053 -3.582272 3.027203 0
M  V30 2 O 1.927866 -4.190485 1.797661 0
M  V30 3 C 2.068505 -3.517977 0.601716 0
M  V30 4 C 2.472617 -2.206640 0.469534 0
M  V30 5 C 2.612692 -1.536151 -0.726175 0
M  V30 6 C 2.320900 -2.249257 -1.871163 0
M  V30 7 C 2.462482 -1.547887 -3.182848 0
M  V30 8 S 0.908449 -0.728444 -3.644507 0
M  V30 9 C 0.613203 0.594334 -2.446204 0
M  V30 10 N 1.049543 1.865664 -2.560571 0
M  V30 11 N 0.624019 2.515540 -1.478031 0
M  V30 12 C -0.073575 1.657940 -0.691709 0
M  V30 13 C -0.712166 1.977612 0.595464 0
M  V30 14 C -0.639300 3.245132 1.140000 0
M  V30 15 C -1.269779 3.466127 2.358608 0
M  V30 16 C -1.939439 2.432080 2.980204 0
M  V30 17 C -2.016477 1.146092 2.432617 0
M  V30 18 C -1.389345 0.932386 1.224063 0
M  V30 19 C -2.815641 0.291064 3.370106 0
M  V30 20 C -3.666270 1.374100 4.031355 0
M  V30 21 O -2.650441 2.377936 4.194149 0
M  V30 22 O -0.043892 0.504520 -1.336624 0
M  V30 23 C 1.915549 -3.557921 -1.772208 0
M  V30 24 C 1.783202 -4.206271 -0.565259 0
M  V30 25 Cl 1.268457 -5.859865 -0.489912 0
M  V30 26 H 1.985998 -4.310566 3.855330 0
M  V30 27 H 1.539715 -2.702459 3.205380 0
M  V30 28 H 3.237502 -3.255980 3.132270 0
M  V30 29 H 2.695996 -1.667141 1.381921 0
M  V30 30 H 2.931962 -0.510695 -0.779130 0
M  V30 31 H 3.282093 -0.818825 -3.073513 0
M  V30 32 H 2.713993 -2.266509 -3.991376 0
M  V30 33 H -0.094192 3.958277 0.565474 0
M  V30 34 H -1.206481 4.448425 2.770693 0
M  V30 35 H -1.421224 -0.037844 0.765098 0
M  V30 36 H -3.502928 -0.376779 2.798104 0
M  V30 37 H -2.177743 -0.245511 4.084541 0
M  V30 38 H -4.377442 1.731449 3.260771 0
M  V30 39 H -4.106804 1.073364 4.976676 0
M  V30 40 H 1.700824 -4.065008 -2.703883 0
M  V30 END ATOM
M  V30 BEGIN BOND
M  V30 1 1 1 2
M  V30 2 1 2 3
M  V30 3 2 3 4
M  V30 4 1 4 5
M  V30 5 2 5 6
M  V30 6 1 6 7
M  V30 7 1 7 8
M  V30 8 1 8 9
M  V30 9 2 9 10
M  V30 10 1 10 11
M  V30 11 2 11 12
M  V30 12 1 12 13
M  V30 13 2 13 14
M  V30 14 1 14 15
M  V30 15 2 15 16
M  V30 16 1 16 17
M  V30 17 2 17 18
M  V30 18 1 17 19
M  V30 19 1 19 20
M  V30 20 1 20 21
M  V30 21 1 12 22
M  V30 22 1 6 23
M  V30 23 2 23 24
M  V30 24 1 24 25
M  V30 25 1 24 3
M  V30 26 1 22 9
M  V30 27 1 18 13
M  V30 28 1 21 16
M  V30 29 1 1 26
M  V30 30 1 1 27
M  V30 31 1 1 28
M  V30 32 1 4 29
M  V30 33 1 5 30
M  V30 34 1 7 31
M  V30 35 1 7 32
M  V30 36 1 14 33
M  V30 37 1 15 34
M  V30 38 1 18 35
M  V30 39 1 19 36
M  V30 40 1 19 37
M  V30 41 1 20 38
M  V30 42 1 20 39
M  V30 43 1 23 40
M  V30 END BOND
M  V30 END CTAB
M  END
>  <Dataset>  (263) 
ChEMBL_Kinases

>  <Ligand_Instance>  (263) 
nan

>  <PDB_ID>  (263) 
nan

>  <Standardized_SMILES>  (263) 
COc1ccc(CSc2nnc(-c3ccc4c(c3)CCO4)o2)cc1Cl

>  <Name>  (263) 
nan

>  <Pocket>  (263) 
nan

>  <ATP_Site>  (263) 
nan

>  <Peripheral>  (263) 
nan

>  <Num_H_Atoms_ProtBoundConf>  (263) 
nan

>  <Num_Resolved_Atoms>  (263) 
nan

>  <Num_Not_Resolved_Atoms>  (263) 
nan

$$$$
CHEMBL4471416
     RDKit          3D

  0  0  0  0  0  0  0  0  0  0999 V3000
M  V30 BEGIN CTAB
M  V30 COUNTS 50 53 0 0 0
M  V30 BEGIN ATOM
M  V30 1 N -0.879470 -4.824875 2.238340 0
M  V30 2 C -0.616739 -3.493391 1.803956 0
M  V30 3 N 0.373886 -2.833276 2.472307 0
M  V30 4 C 0.674008 -1.554777 2.104261 0
M  V30 5 C -0.005829 -0.934977 1.077974 0
M  V30 6 C 0.387315 0.432093 0.758697 0
M  V30 7 C -0.617242 1.244819 0.277933 0
M  V30 8 C -0.275310 2.543690 -0.032649 0
M  V30 9 C 1.024125 2.969198 0.144774 0
M  V30 10 C 2.035284 2.170076 0.622973 0
M  V30 11 N 3.360883 2.644845 0.792720 0
M  V30 12 C 3.808932 3.991189 0.502772 0
M  V30 13 C 4.139556 4.592782 1.876116 0
M  V30 14 N 5.244694 3.813962 2.404643 0
M  V30 15 C 4.859781 2.448505 2.614529 0
M  V30 16 C 4.453173 1.834685 1.286487 0
M  V30 17 C 1.668434 0.893432 0.921005 0
M  V30 18 C -1.012691 -1.572891 0.381181 0
M  V30 19 C -1.288389 -2.859948 0.778914 0
M  V30 20 C -2.329231 -3.643331 0.124727 0
M  V30 21 O -2.554280 -4.819007 0.516250 0
M  V30 22 N -3.146109 -3.201315 -0.948426 0
M  V30 23 C -4.062084 -4.227681 -1.345390 0
M  V30 24 C -5.278939 -4.188297 -0.666386 0
M  V30 25 C -6.237681 -5.154975 -0.989206 0
M  V30 26 N -6.013579 -6.099397 -1.920004 0
M  V30 27 C -4.834571 -6.130343 -2.571698 0
M  V30 28 C -3.831803 -5.196267 -2.300253 0
M  V30 29 H -1.705167 -4.968732 2.886102 0
M  V30 30 H -0.352701 -5.709045 1.998219 0
M  V30 31 H 1.475884 -1.069501 2.671291 0
M  V30 32 H -1.627333 0.886952 0.148246 0
M  V30 33 H -1.062921 3.188878 -0.411923 0
M  V30 34 H 1.176940 3.998369 -0.128728 0
M  V30 35 H 4.791688 3.986922 -0.031242 0
M  V30 36 H 3.080871 4.628859 0.008923 0
M  V30 37 H 3.229135 4.461579 2.516133 0
M  V30 38 H 4.407862 5.649908 1.806665 0
M  V30 39 H 5.418123 4.217052 3.374030 0
M  V30 40 H 4.046349 2.429025 3.369453 0
M  V30 41 H 5.706220 1.895692 3.064158 0
M  V30 42 H 4.256906 0.769073 1.352968 0
M  V30 43 H 5.328131 1.977454 0.611640 0
M  V30 44 H 2.340450 0.167037 1.298244 0
M  V30 45 H -1.544293 -1.085790 -0.422589 0
M  V30 46 H -2.986949 -2.228299 -1.300435 0
M  V30 47 H -5.513416 -3.457861 0.085970 0
M  V30 48 H -7.208164 -5.205339 -0.517906 0
M  V30 49 H -4.537330 -6.850351 -3.348268 0
M  V30 50 H -2.864890 -5.167849 -2.788233 0
M  V30 END ATOM
M  V30 BEGIN BOND
M  V30 1 1 1 2
M  V30 2 2 2 3
M  V30 3 1 3 4
M  V30 4 2 4 5
M  V30 5 1 5 6
M  V30 6 2 6 7
M  V30 7 1 7 8
M  V30 8 2 8 9
M  V30 9 1 9 10
M  V30 10 1 10 11
M  V30 11 1 11 12
M  V30 12 1 12 13
M  V30 13 1 13 14
M  V30 14 1 14 15
M  V30 15 1 15 16
M  V30 16 2 10 17
M  V30 17 1 5 18
M  V30 18 2 18 19
M  V30 19 1 19 20
M  V30 20 2 20 21
M  V30 21 1 20 22
M  V30 22 1 22 23
M  V30 23 2 23 24
M  V30 24 1 24 25
M  V30 25 2 25 26
M  V30 26 1 26 27
M  V30 27 2 27 28
M  V30 28 1 19 2
M  V30 29 1 28 23
M  V30 30 1 17 6
M  V30 31 1 16 11
M  V30 32 1 1 29
M  V30 33 1 1 30
M  V30 34 1 4 31
M  V30 35 1 7 32
M  V30 36 1 8 33
M  V30 37 1 9 34
M  V30 38 1 12 35
M  V30 39 1 12 36
M  V30 40 1 13 37
M  V30 41 1 13 38
M  V30 42 1 14 39
M  V30 43 1 15 40
M  V30 44 1 15 41
M  V30 45 1 16 42
M  V30 46 1 16 43
M  V30 47 1 17 44
M  V30 48 1 18 45
M  V30 49 1 22 46
M  V30 50 1 24 47
M  V30 51 1 25 48
M  V30 52 1 27 49
M  V30 53 1 28 50
M  V30 END BOND
M  V30 END CTAB
M  END
>  <Dataset>  (264) 
ChEMBL_Kinases

>  <Ligand_Instance>  (264) 
nan

>  <PDB_ID>  (264) 
nan

>  <Standardized_SMILES>  (264) 
Nc1ncc(-c2cccc(N3CCNCC3)c2)cc1C(=O)Nc1ccncc1

>  <Name>  (264) 
nan

>  <Pocket>  (264) 
nan

>  <ATP_Site>  (264) 
nan

>  <Peripheral>  (264) 
nan

>  <Num_H_Atoms_ProtBoundConf>  (264) 
nan

>  <Num_Resolved_Atoms>  (264) 
nan

>  <Num_Not_Resolved_Atoms>  (264) 
nan

$$$$
CHEMBL4468389
     RDKit          3D

  0  0  0  0  0  0  0  0  0  0999 V3000
M  V30 BEGIN CTAB
M  V30 COUNTS 69 72 0 0 0
M  V30 BEGIN ATOM
M  V30 1 C -0.615844 -3.103006 6.364420 0
M  V30 2 O -0.329971 -4.251520 5.588858 0
M  V30 3 C 0.242470 -4.056416 4.339346 0
M  V30 4 C 0.554625 -2.829004 3.793874 0
M  V30 5 C 1.126684 -2.695581 2.537602 0
M  V30 6 C 1.364787 -1.300545 2.178920 0
M  V30 7 C 1.950544 -0.458440 3.132718 0
M  V30 8 N 2.216498 0.847283 2.917729 0
M  V30 9 C 1.916250 1.409701 1.731309 0
M  V30 10 C 1.329996 0.598360 0.754510 0
M  V30 11 C 1.037304 1.279761 -0.504634 0
M  V30 12 C 0.384467 2.512080 -0.377440 0
M  V30 13 C 0.050613 3.263424 -1.497121 0
M  V30 14 C 0.339398 2.842690 -2.768562 0
M  V30 15 N 0.001595 3.590052 -3.920794 0
M  V30 16 C -0.727857 4.834597 -4.019261 0
M  V30 17 C -2.049111 4.554170 -4.697843 0
M  V30 18 N -2.112530 3.287757 -5.274288 0
M  V30 19 C -3.177146 2.422172 -5.116241 0
M  V30 20 C -3.528168 1.987330 -3.723766 0
M  V30 21 C -2.970609 1.129792 -5.899975 0
M  V30 22 C -0.977319 2.920479 -6.030079 0
M  V30 23 C 0.329057 3.246072 -5.289761 0
M  V30 24 C 0.975759 1.640529 -2.880346 0
M  V30 25 C 1.312959 0.886685 -1.796586 0
M  V30 26 C 1.061494 -0.732464 0.980242 0
M  V30 27 C 0.443631 -1.550316 -0.062918 0
M  V30 28 C 1.385759 -3.846515 1.822309 0
M  V30 29 C 1.079712 -5.078554 2.353613 0
M  V30 30 O 1.389060 -6.155299 1.535098 0
M  V30 31 C 1.963222 -6.085906 0.267295 0
M  V30 32 C 0.510893 -5.192866 3.604615 0
M  V30 33 C 0.252378 -6.566134 4.013765 0
M  V30 34 N -0.329458 -6.990474 5.258151 0
M  V30 35 O 0.482361 -7.625622 3.373060 0
M  V30 36 H -1.227984 -3.344539 7.257215 0
M  V30 37 H 0.321215 -2.604029 6.727870 0
M  V30 38 H -1.187614 -2.332595 5.802960 0
M  V30 39 H 0.302860 -2.003610 4.453066 0
M  V30 40 H 2.211153 -0.872942 4.110534 0
M  V30 41 H 2.131198 2.472998 1.552239 0
M  V30 42 H 0.127755 2.900859 0.621042 0
M  V30 43 H -0.450465 4.199308 -1.301771 0
M  V30 44 H -0.870906 5.211390 -2.981871 0
M  V30 45 H -0.134481 5.622516 -4.572433 0
M  V30 46 H -2.913266 4.841458 -4.062626 0
M  V30 47 H -2.111584 5.304536 -5.545440 0
M  V30 48 H -4.109447 2.870116 -5.559135 0
M  V30 49 H -4.028812 2.743053 -3.122120 0
M  V30 50 H -4.216459 1.118697 -3.813072 0
M  V30 51 H -2.597865 1.567712 -3.241547 0
M  V30 52 H -2.236308 0.477190 -5.385080 0
M  V30 53 H -2.780905 1.304532 -6.965749 0
M  V30 54 H -3.951350 0.588424 -5.838295 0
M  V30 55 H -0.986399 3.548435 -6.960958 0
M  V30 56 H -0.921052 1.884465 -6.348604 0
M  V30 57 H 0.987588 2.369983 -5.396472 0
M  V30 58 H 0.882556 4.073048 -5.819944 0
M  V30 59 H 1.267653 1.177565 -3.811548 0
M  V30 60 H 1.818534 -0.067266 -1.851641 0
M  V30 61 H -0.212014 -0.861099 -0.658978 0
M  V30 62 H -0.266150 -2.312193 0.340729 0
M  V30 63 H 1.116458 -2.060331 -0.750302 0
M  V30 64 H 1.826967 -3.663515 0.867235 0
M  V30 65 H 2.153654 -7.116017 -0.079415 0
M  V30 66 H 2.859934 -5.442157 0.253282 0
M  V30 67 H 1.249623 -5.623219 -0.452802 0
M  V30 68 H -1.255283 -7.264843 5.689635 0
M  V30 69 H 0.395308 -7.058209 6.010291 0
M  V30 END ATOM
M  V30 BEGIN BOND
M  V30 1 1 1 2
M  V30 2 1 2 3
M  V30 3 2 3 4
M  V30 4 1 4 5
M  V30 5 1 5 6
M  V30 6 2 6 7
M  V30 7 1 7 8
M  V30 8 2 8 9
M  V30 9 1 9 10
M  V30 10 1 10 11
M  V30 11 2 11 12
M  V30 12 1 12 13
M  V30 13 2 13 14
M  V30 14 1 14 15
M  V30 15 1 15 16
M  V30 16 1 16 17
M  V30 17 1 17 18
M  V30 18 1 18 19
M  V30 19 1 19 20
M  V30 20 1 19 21
M  V30 21 1 18 22
M  V30 22 1 22 23
M  V30 23 1 14 24
M  V30 24 2 24 25
M  V30 25 2 10 26
M  V30 26 1 26 27
M  V30 27 2 5 28
M  V30 28 1 28 29
M  V30 29 1 29 30
M  V30 30 1 30 31
M  V30 31 2 29 32
M  V30 32 1 32 33
M  V30 33 1 33 34
M  V30 34 2 33 35
M  V30 35 1 32 3
M  V30 36 1 26 6
M  V30 37 1 25 11
M  V30 38 1 23 15
M  V30 39 1 1 36
M  V30 40 1 1 37
M  V30 41 1 1 38
M  V30 42 1 4 39
M  V30 43 1 7 40
M  V30 44 1 9 41
M  V30 45 1 12 42
M  V30 46 1 13 43
M  V30 47 1 16 44
M  V30 48 1 16 45
M  V30 49 1 17 46
M  V30 50 1 17 47
M  V30 51 1 19 48
M  V30 52 1 20 49
M  V30 53 1 20 50
M  V30 54 1 20 51
M  V30 55 1 21 52
M  V30 56 1 21 53
M  V30 57 1 21 54
M  V30 58 1 22 55
M  V30 59 1 22 56
M  V30 60 1 23 57
M  V30 61 1 23 58
M  V30 62 1 24 59
M  V30 63 1 25 60
M  V30 64 1 27 61
M  V30 65 1 27 62
M  V30 66 1 27 63
M  V30 67 1 28 64
M  V30 68 1 31 65
M  V30 69 1 31 66
M  V30 70 1 31 67
M  V30 71 1 34 68
M  V30 72 1 34 69
M  V30 END BOND
M  V30 END CTAB
M  END
>  <Dataset>  (265) 
ChEMBL_Kinases

>  <Ligand_Instance>  (265) 
nan

>  <PDB_ID>  (265) 
nan

>  <Standardized_SMILES>  (265) 
COc1cc(-c2cncc(-c3ccc(N4CCN(C(C)C)CC4)cc3)c2C)cc(OC)c1C(N)=O

>  <Name>  (265) 
nan

>  <Pocket>  (265) 
nan

>  <ATP_Site>  (265) 
nan

>  <Peripheral>  (265) 
nan

>  <Num_H_Atoms_ProtBoundConf>  (265) 
nan

>  <Num_Resolved_Atoms>  (265) 
nan

>  <Num_Not_Resolved_Atoms>  (265) 
nan

$$$$
CHEMBL4471372
     RDKit          3D

  0  0  0  0  0  0  0  0  0  0999 V3000
M  V30 BEGIN CTAB
M  V30 COUNTS 44 46 0 0 0
M  V30 BEGIN ATOM
M  V30 1 C 0.532606 -5.695361 2.045133 0
M  V30 2 C -0.227671 -5.552856 0.743220 0
M  V30 3 C -1.584136 -4.980647 1.035652 0
M  V30 4 C 0.545136 -4.681208 -0.189355 0
M  V30 5 C 0.808467 -3.354487 0.143977 0
M  V30 6 C 1.535837 -2.876109 -0.950049 0
M  V30 7 C 2.054195 -1.516703 -1.085814 0
M  V30 8 C 2.754099 -1.205174 -2.232684 0
M  V30 9 C 3.234215 0.086331 -2.338151 0
M  V30 10 C 3.043546 1.046309 -1.365296 0
M  V30 11 C 2.340882 0.708391 -0.229811 0
M  V30 12 N 2.024817 1.536079 0.900094 0
M  V30 13 C 0.858733 2.348617 1.059658 0
M  V30 14 O -0.047598 2.430027 0.199509 0
M  V30 15 N 0.719868 3.101638 2.252737 0
M  V30 16 C -0.486326 3.877092 2.301650 0
M  V30 17 C -0.719890 5.177944 1.872162 0
M  V30 18 C -1.965806 5.691139 2.032454 0
M  V30 19 Cl -2.172664 7.347564 1.459716 0
M  V30 20 C -2.998954 4.997175 2.592434 0
M  V30 21 C -2.792767 3.703573 3.026978 0
M  V30 22 Cl -4.124778 2.800796 3.752017 0
M  V30 23 C -1.522219 3.135509 2.880577 0
M  V30 24 C 1.840186 -0.589655 -0.088958 0
M  V30 25 N 1.686116 -3.857940 -1.859401 0
M  V30 26 N 1.085758 -4.944079 -1.393534 0
M  V30 27 H 0.759068 -6.777759 2.248157 0
M  V30 28 H 1.452920 -5.094848 2.033040 0
M  V30 29 H -0.090188 -5.366837 2.916040 0
M  V30 30 H -0.303440 -6.541088 0.263872 0
M  V30 31 H -2.388757 -5.615615 0.615727 0
M  V30 32 H -1.713175 -3.981333 0.573847 0
M  V30 33 H -1.762491 -4.904981 2.131175 0
M  V30 34 H 0.514455 -2.813523 1.050535 0
M  V30 35 H 2.941409 -1.897675 -3.030043 0
M  V30 36 H 3.803137 0.464560 -3.191366 0
M  V30 37 H 3.385084 2.056522 -1.382484 0
M  V30 38 H 2.764353 1.498649 1.653883 0
M  V30 39 H 1.430947 3.104156 3.046270 0
M  V30 40 H 0.169156 5.612211 1.452432 0
M  V30 41 H -3.972527 5.494713 2.680872 0
M  V30 42 H -1.460107 2.125828 3.247977 0
M  V30 43 H 1.271750 -0.937768 0.782406 0
M  V30 44 H 2.174639 -3.830000 -2.779667 0
M  V30 END ATOM
M  V30 BEGIN BOND
M  V30 1 1 1 2
M  V30 2 1 2 3
M  V30 3 1 2 4
M  V30 4 1 4 5
M  V30 5 2 5 6
M  V30 6 1 6 7
M  V30 7 2 7 8
M  V30 8 1 8 9
M  V30 9 2 9 10
M  V30 10 1 10 11
M  V30 11 1 11 12
M  V30 12 1 12 13
M  V30 13 2 13 14
M  V30 14 1 13 15
M  V30 15 1 15 16
M  V30 16 2 16 17
M  V30 17 1 17 18
M  V30 18 1 18 19
M  V30 19 2 18 20
M  V30 20 1 20 21
M  V30 21 1 21 22
M  V30 22 2 21 23
M  V30 23 2 11 24
M  V30 24 1 6 25
M  V30 25 1 25 26
M  V30 26 2 26 4
M  V30 27 1 24 7
M  V30 28 1 23 16
M  V30 29 1 1 27
M  V30 30 1 1 28
M  V30 31 1 1 29
M  V30 32 1 2 30
M  V30 33 1 3 31
M  V30 34 1 3 32
M  V30 35 1 3 33
M  V30 36 1 5 34
M  V30 37 1 8 35
M  V30 38 1 9 36
M  V30 39 1 10 37
M  V30 40 1 12 38
M  V30 41 1 15 39
M  V30 42 1 17 40
M  V30 43 1 20 41
M  V30 44 1 23 42
M  V30 45 1 24 43
M  V30 46 1 25 44
M  V30 END BOND
M  V30 END CTAB
M  END
>  <Dataset>  (266) 
ChEMBL_Kinases

>  <Ligand_Instance>  (266) 
nan

>  <PDB_ID>  (266) 
nan

>  <Standardized_SMILES>  (266) 
CC(C)c1cc(-c2cccc(NC(=O)Nc3cc(Cl)cc(Cl)c3)c2)[nH]n1

>  <Name>  (266) 
nan

>  <Pocket>  (266) 
nan

>  <ATP_Site>  (266) 
nan

>  <Peripheral>  (266) 
nan

>  <Num_H_Atoms_ProtBoundConf>  (266) 
nan

>  <Num_Resolved_Atoms>  (266) 
nan

>  <Num_Not_Resolved_Atoms>  (266) 
nan

$$$$
CHEMBL4471323
     RDKit          3D

  0  0  0  0  0  0  0  0  0  0999 V3000
M  V30 BEGIN CTAB
M  V30 COUNTS 47 50 0 0 0
M  V30 BEGIN ATOM
M  V30 1 C 0.633200 -2.662338 -1.844735 0
M  V30 2 C 2.024493 -2.086634 -1.961082 0
M  V30 3 C 2.410757 -1.254257 -0.787250 0
M  V30 4 S 4.112675 -0.584314 -0.967698 0
M  V30 5 C 3.779268 0.922534 0.036202 0
M  V30 6 C 2.357923 1.140626 -0.424552 0
M  V30 7 O 1.944746 2.336090 -0.632585 0
M  V30 8 N 1.631031 -0.068642 -0.573888 0
M  V30 9 C 0.190531 0.028872 -0.489987 0
M  V30 10 C -0.564043 0.281376 -1.641804 0
M  V30 11 C -0.062134 0.473083 -2.989673 0
M  V30 12 N 0.355950 0.630775 -4.060790 0
M  V30 13 C -1.866672 0.306490 -1.194834 0
M  V30 14 N -1.944665 0.089877 0.124916 0
M  V30 15 C -0.694406 -0.083811 0.584043 0
M  V30 16 C -0.151563 -0.348106 1.908386 0
M  V30 17 O 1.074412 -0.483226 2.072801 0
M  V30 18 N -0.926568 -0.471836 3.086139 0
M  V30 19 C -0.070686 -0.731612 4.210619 0
M  V30 20 C 0.361836 0.421255 4.837499 0
M  V30 21 C 1.191493 0.316053 5.934140 0
M  V30 22 C 1.556732 -0.941147 6.361596 0
M  V30 23 C 1.135070 -2.109689 5.748420 0
M  V30 24 C 0.307310 -1.981102 4.655366 0
M  V30 25 C -3.308523 0.120605 0.555551 0
M  V30 26 C -4.129662 0.006409 -0.690783 0
M  V30 27 C -3.204049 0.507880 -1.765082 0
M  V30 28 H 0.688780 -3.790909 -1.851609 0
M  V30 29 H 0.127811 -2.428510 -0.890898 0
M  V30 30 H 0.020500 -2.403561 -2.748141 0
M  V30 31 H 2.731902 -2.937910 -2.027287 0
M  V30 32 H 2.134604 -1.540443 -2.933376 0
M  V30 33 H 2.429082 -1.902086 0.110898 0
M  V30 34 H 3.822867 0.674610 1.101592 0
M  V30 35 H 4.416054 1.749801 -0.283561 0
M  V30 36 H -1.959232 -0.370926 3.034590 0
M  V30 37 H 0.116476 1.437881 4.558204 0
M  V30 38 H 1.559550 1.185956 6.462497 0
M  V30 39 H 2.210478 -1.056059 7.224263 0
M  V30 40 H 1.425676 -3.091909 6.089357 0
M  V30 41 H -0.077414 -2.811841 4.106676 0
M  V30 42 H -3.457879 1.138876 1.013548 0
M  V30 43 H -3.573012 -0.660556 1.307676 0
M  V30 44 H -4.354948 -1.059128 -0.909484 0
M  V30 45 H -5.082178 0.570606 -0.647176 0
M  V30 46 H -3.368443 -0.024627 -2.719194 0
M  V30 47 H -3.365041 1.601251 -1.967915 0
M  V30 END ATOM
M  V30 BEGIN BOND
M  V30 1 1 1 2
M  V30 2 1 2 3
M  V30 3 1 3 4
M  V30 4 1 4 5
M  V30 5 1 5 6
M  V30 6 2 6 7
M  V30 7 1 6 8
M  V30 8 1 8 9
M  V30 9 1 9 10
M  V30 10 1 10 11
M  V30 11 3 11 12
M  V30 12 2 10 13
M  V30 13 1 13 14
M  V30 14 1 14 15
M  V30 15 1 15 16
M  V30 16 2 16 17
M  V30 17 1 16 18
M  V30 18 1 18 19
M  V30 19 2 19 20
M  V30 20 1 20 21
M  V30 21 2 21 22
M  V30 22 1 22 23
M  V30 23 2 23 24
M  V30 24 1 14 25
M  V30 25 1 25 26
M  V30 26 1 26 27
M  V30 27 1 8 3
M  V30 28 2 15 9
M  V30 29 1 24 19
M  V30 30 1 27 13
M  V30 31 1 1 28
M  V30 32 1 1 29
M  V30 33 1 1 30
M  V30 34 1 2 31
M  V30 35 1 2 32
M  V30 36 1 3 33
M  V30 37 1 5 34
M  V30 38 1 5 35
M  V30 39 1 18 36
M  V30 40 1 20 37
M  V30 41 1 21 38
M  V30 42 1 22 39
M  V30 43 1 23 40
M  V30 44 1 24 41
M  V30 45 1 25 42
M  V30 46 1 25 43
M  V30 47 1 26 44
M  V30 48 1 26 45
M  V30 49 1 27 46
M  V30 50 1 27 47
M  V30 END BOND
M  V30 END CTAB
M  END
>  <Dataset>  (267) 
ChEMBL_Kinases

>  <Ligand_Instance>  (267) 
nan

>  <PDB_ID>  (267) 
nan

>  <Standardized_SMILES>  (267) 
CCC1SCC(=O)N1c1c(C#N)c2n(c1C(=O)Nc1ccccc1)CCC2

>  <Name>  (267) 
nan

>  <Pocket>  (267) 
nan

>  <ATP_Site>  (267) 
nan

>  <Peripheral>  (267) 
nan

>  <Num_H_Atoms_ProtBoundConf>  (267) 
nan

>  <Num_Resolved_Atoms>  (267) 
nan

>  <Num_Not_Resolved_Atoms>  (267) 
nan

$$$$
CHEMBL4471276
     RDKit          3D

  0  0  0  0  0  0  0  0  0  0999 V3000
M  V30 BEGIN CTAB
M  V30 COUNTS 43 45 0 0 0
M  V30 BEGIN ATOM
M  V30 1 C -1.251967 -5.739549 1.554542 0
M  V30 2 C -0.929907 -4.639652 0.566353 0
M  V30 3 C -1.821721 -3.463043 0.905265 0
M  V30 4 N 0.472689 -4.281248 0.620563 0
M  V30 5 C 1.141260 -3.365429 -0.150723 0
M  V30 6 S 1.218238 -1.595189 0.165128 0
M  V30 7 C 2.250389 -1.169364 -1.245857 0
M  V30 8 C 2.727546 0.185199 -1.607219 0
M  V30 9 O 3.453729 0.638556 -2.478232 0
M  V30 10 C 2.187786 1.229361 -0.687337 0
M  V30 11 C 2.361679 2.609884 -0.623336 0
M  V30 12 C 1.689520 3.258288 0.346246 0
M  V30 13 C 0.891559 2.671079 1.221777 0
M  V30 14 C 0.069097 3.168763 2.328054 0
M  V30 15 C -0.002701 4.487172 2.703771 0
M  V30 16 C -0.823809 4.875649 3.763916 0
M  V30 17 C -1.540422 3.909033 4.400971 0
M  V30 18 O -2.356656 4.333086 5.461621 0
M  V30 19 C -1.511791 2.555693 4.069417 0
M  V30 20 C -0.683220 2.241986 3.017066 0
M  V30 21 S 0.995550 0.934239 0.740671 0
M  V30 22 C 2.476212 -2.415416 -1.878476 0
M  V30 23 N 3.282861 -2.377335 -3.049617 0
M  V30 24 C 1.891322 -3.483811 -1.279620 0
M  V30 25 C 2.059240 -4.814674 -1.857571 0
M  V30 26 N 2.199632 -5.897372 -2.315944 0
M  V30 27 H -1.704641 -6.627546 1.046244 0
M  V30 28 H -0.283127 -6.075149 2.004820 0
M  V30 29 H -1.869474 -5.365088 2.389949 0
M  V30 30 H -1.172162 -4.988848 -0.431535 0
M  V30 31 H -1.831086 -3.263016 2.017019 0
M  V30 32 H -1.531261 -2.522489 0.427866 0
M  V30 33 H -2.868940 -3.740824 0.660188 0
M  V30 34 H 1.173895 -4.712150 1.298808 0
M  V30 35 H 3.025722 3.035285 -1.364317 0
M  V30 36 H 1.782635 4.339005 0.449779 0
M  V30 37 H 0.624097 5.160813 2.110914 0
M  V30 38 H -0.844116 5.922992 4.021053 0
M  V30 39 H -3.381316 4.307527 5.361813 0
M  V30 40 H -2.102541 1.808678 4.606336 0
M  V30 41 H -0.668227 1.178477 2.765095 0
M  V30 42 H 4.302489 -2.582420 -3.174553 0
M  V30 43 H 2.876906 -2.110532 -3.992120 0
M  V30 END ATOM
M  V30 BEGIN BOND
M  V30 1 1 1 2
M  V30 2 1 2 3
M  V30 3 1 2 4
M  V30 4 1 4 5
M  V30 5 1 5 6
M  V30 6 1 6 7
M  V30 7 1 7 8
M  V30 8 2 8 9
M  V30 9 1 8 10
M  V30 10 2 10 11
M  V30 11 1 11 12
M  V30 12 2 12 13
M  V30 13 1 13 14
M  V30 14 2 14 15
M  V30 15 1 15 16
M  V30 16 2 16 17
M  V30 17 1 17 18
M  V30 18 1 17 19
M  V30 19 2 19 20
M  V30 20 1 13 21
M  V30 21 2 7 22
M  V30 22 1 22 23
M  V30 23 1 22 24
M  V30 24 1 24 25
M  V30 25 3 25 26
M  V30 26 2 24 5
M  V30 27 1 21 10
M  V30 28 1 20 14
M  V30 29 1 1 27
M  V30 30 1 1 28
M  V30 31 1 1 29
M  V30 32 1 2 30
M  V30 33 1 3 31
M  V30 34 1 3 32
M  V30 35 1 3 33
M  V30 36 1 4 34
M  V30 37 1 11 35
M  V30 38 1 12 36
M  V30 39 1 15 37
M  V30 40 1 16 38
M  V30 41 1 18 39
M  V30 42 1 19 40
M  V30 43 1 20 41
M  V30 44 1 23 42
M  V30 45 1 23 43
M  V30 END BOND
M  V30 END CTAB
M  END
>  <Dataset>  (268) 
ChEMBL_Kinases

>  <Ligand_Instance>  (268) 
nan

>  <PDB_ID>  (268) 
nan

>  <Standardized_SMILES>  (268) 
CC(C)Nc1sc(C(=O)c2ccc(-c3ccc(O)cc3)s2)c(N)c1C#N

>  <Name>  (268) 
nan

>  <Pocket>  (268) 
nan

>  <ATP_Site>  (268) 
nan

>  <Peripheral>  (268) 
nan

>  <Num_H_Atoms_ProtBoundConf>  (268) 
nan

>  <Num_Resolved_Atoms>  (268) 
nan

>  <Num_Not_Resolved_Atoms>  (268) 
nan

$$$$
CHEMBL4471243
     RDKit          3D

  0  0  0  0  0  0  0  0  0  0999 V3000
M  V30 BEGIN CTAB
M  V30 COUNTS 36 39 0 0 0
M  V30 BEGIN ATOM
M  V30 1 C -0.327633 -4.364456 0.539076 0
M  V30 2 C -0.353873 -3.300653 -0.578109 0
M  V30 3 N 0.191376 -2.044704 -0.241064 0
M  V30 4 C 0.127339 -0.823134 0.460268 0
M  V30 5 N 1.107897 0.128311 0.415882 0
M  V30 6 C 1.041444 1.282902 1.076560 0
M  V30 7 C 2.200460 2.145665 0.883096 0
M  V30 8 C 3.363361 2.185381 1.628437 0
M  V30 9 F 3.414313 1.321670 2.645483 0
M  V30 10 C 4.331409 3.094421 1.252526 0
M  V30 11 N 4.177668 3.926074 0.202069 0
M  V30 12 C 3.052537 3.893125 -0.525295 0
M  V30 13 C 2.040836 2.996563 -0.193251 0
M  V30 14 F 0.949807 3.058370 -1.005208 0
M  V30 15 N -0.028552 1.551788 1.829941 0
M  V30 16 C -1.070888 0.716505 1.971378 0
M  V30 17 C -2.158159 1.037175 2.753473 0
M  V30 18 N -3.176999 0.158989 2.848084 0
M  V30 19 C -3.138169 -1.030288 2.182088 0
M  V30 20 C -2.023995 -1.292587 1.416804 0
M  V30 21 C -0.936424 -0.458524 1.260833 0
M  V30 22 C -1.446928 -3.432414 -1.590799 0
M  V30 23 C -0.057315 -3.854454 -1.965974 0
M  V30 24 H -0.084239 -3.894256 1.522305 0
M  V30 25 H -1.290493 -4.893614 0.624473 0
M  V30 26 H 0.435363 -5.117953 0.263460 0
M  V30 27 H 1.106247 -2.047213 -0.787608 0
M  V30 28 H 5.234308 3.082317 1.880065 0
M  V30 29 H 3.048016 4.604273 -1.337255 0
M  V30 30 H -2.163024 1.991531 3.272985 0
M  V30 31 H -3.968107 -1.716403 2.274597 0
M  V30 32 H -2.060179 -2.232178 0.916369 0
M  V30 33 H -2.223285 -4.186751 -1.399731 0
M  V30 34 H -1.820725 -2.464002 -1.998640 0
M  V30 35 H 0.520332 -3.218276 -2.666831 0
M  V30 36 H 0.199939 -4.930074 -2.035505 0
M  V30 END ATOM
M  V30 BEGIN BOND
M  V30 1 1 1 2
M  V30 2 1 2 3
M  V30 3 1 3 4
M  V30 4 2 4 5
M  V30 5 1 5 6
M  V30 6 1 6 7
M  V30 7 2 7 8
M  V30 8 1 8 9
M  V30 9 1 8 10
M  V30 10 2 10 11
M  V30 11 1 11 12
M  V30 12 2 12 13
M  V30 13 1 13 14
M  V30 14 2 6 15
M  V30 15 1 15 16
M  V30 16 2 16 17
M  V30 17 1 17 18
M  V30 18 2 18 19
M  V30 19 1 19 20
M  V30 20 2 20 21
M  V30 21 1 2 22
M  V30 22 1 22 23
M  V30 23 1 23 2
M  V30 24 1 21 4
M  V30 25 1 13 7
M  V30 26 1 21 16
M  V30 27 1 1 24
M  V30 28 1 1 25
M  V30 29 1 1 26
M  V30 30 1 3 27
M  V30 31 1 10 28
M  V30 32 1 12 29
M  V30 33 1 17 30
M  V30 34 1 19 31
M  V30 35 1 20 32
M  V30 36 1 22 33
M  V30 37 1 22 34
M  V30 38 1 23 35
M  V30 39 1 23 36
M  V30 END BOND
M  V30 END CTAB
M  END
>  <Dataset>  (269) 
ChEMBL_Kinases

>  <Ligand_Instance>  (269) 
nan

>  <PDB_ID>  (269) 
nan

>  <Standardized_SMILES>  (269) 
CC1(Nc2nc(-c3c(F)cncc3F)nc3cnccc23)CC1

>  <Name>  (269) 
nan

>  <Pocket>  (269) 
nan

>  <ATP_Site>  (269) 
nan

>  <Peripheral>  (269) 
nan

>  <Num_H_Atoms_ProtBoundConf>  (269) 
nan

>  <Num_Resolved_Atoms>  (269) 
nan

>  <Num_Not_Resolved_Atoms>  (269) 
nan

$$$$
CHEMBL4471240
     RDKit          3D

  0  0  0  0  0  0  0  0  0  0999 V3000
M  V30 BEGIN CTAB
M  V30 COUNTS 49 52 0 0 0
M  V30 BEGIN ATOM
M  V30 1 C 0.472376 -6.178690 4.111511 0
M  V30 2 O 0.237707 -6.197208 2.738585 0
M  V30 3 C 0.325546 -5.126768 1.891811 0
M  V30 4 C 0.681762 -3.883336 2.421583 0
M  V30 5 C 0.772254 -2.795113 1.568315 0
M  V30 6 C 0.508060 -2.956962 0.202799 0
M  V30 7 C 0.617596 -1.775053 -0.655796 0
M  V30 8 C 0.995931 -1.787967 -1.982701 0
M  V30 9 N 1.072725 -0.656196 -2.706567 0
M  V30 10 C 0.789149 0.555262 -2.193719 0
M  V30 11 C 0.408740 0.592183 -0.869261 0
M  V30 12 C 0.319254 -0.545813 -0.098030 0
M  V30 13 C 0.159669 1.914725 -0.523286 0
M  V30 14 N -0.256508 2.416098 0.740814 0
M  V30 15 C -0.506886 3.765342 1.076262 0
M  V30 16 O -0.343992 4.614168 0.157772 0
M  V30 17 C -0.932243 4.200625 2.398887 0
M  V30 18 C -1.141511 3.379098 3.472877 0
M  V30 19 C -1.544610 3.806220 4.719454 0
M  V30 20 C -1.753053 5.176344 4.893914 0
M  V30 21 N -1.548421 6.008238 3.832081 0
M  V30 22 C -1.155356 5.537886 2.638558 0
M  V30 23 C 0.411943 2.607322 -1.689208 0
M  V30 24 N 0.790079 1.801607 -2.697061 0
M  V30 25 C 1.136456 2.149046 -4.054595 0
M  V30 26 C 0.156885 -4.207848 -0.287582 0
M  V30 27 C 0.063942 -5.293192 0.547446 0
M  V30 28 O -0.282868 -6.564495 0.109178 0
M  V30 29 C -0.581902 -6.933896 -1.197741 0
M  V30 30 H 1.522230 -5.929773 4.398295 0
M  V30 31 H -0.218529 -5.499634 4.665785 0
M  V30 32 H 0.284397 -7.200916 4.511621 0
M  V30 33 H 0.888330 -3.754818 3.486394 0
M  V30 34 H 1.053481 -1.848966 2.031758 0
M  V30 35 H 1.223678 -2.775715 -2.389079 0
M  V30 36 H 0.019980 -0.473919 0.926506 0
M  V30 37 H -0.394084 1.721078 1.508888 0
M  V30 38 H -0.985434 2.320219 3.356065 0
M  V30 39 H -1.695740 3.112546 5.536080 0
M  V30 40 H -2.072815 5.519977 5.880755 0
M  V30 41 H -1.019489 6.275176 1.857625 0
M  V30 42 H 0.337663 3.661191 -1.850821 0
M  V30 43 H 0.341738 1.864415 -4.755527 0
M  V30 44 H 2.054367 1.588230 -4.355439 0
M  V30 45 H 1.420408 3.229415 -4.146245 0
M  V30 46 H -0.047011 -4.331705 -1.343468 0
M  V30 47 H -1.277242 -7.816546 -1.137073 0
M  V30 48 H -1.047323 -6.127747 -1.776796 0
M  V30 49 H 0.331570 -7.261584 -1.726025 0
M  V30 END ATOM
M  V30 BEGIN BOND
M  V30 1 1 1 2
M  V30 2 1 2 3
M  V30 3 2 3 4
M  V30 4 1 4 5
M  V30 5 2 5 6
M  V30 6 1 6 7
M  V30 7 2 7 8
M  V30 8 1 8 9
M  V30 9 2 9 10
M  V30 10 1 10 11
M  V30 11 2 11 12
M  V30 12 1 11 13
M  V30 13 1 13 14
M  V30 14 1 14 15
M  V30 15 2 15 16
M  V30 16 1 15 17
M  V30 17 2 17 18
M  V30 18 1 18 19
M  V30 19 2 19 20
M  V30 20 1 20 21
M  V30 21 2 21 22
M  V30 22 2 13 23
M  V30 23 1 23 24
M  V30 24 1 24 25
M  V30 25 1 6 26
M  V30 26 2 26 27
M  V30 27 1 27 28
M  V30 28 1 28 29
M  V30 29 1 27 3
M  V30 30 1 12 7
M  V30 31 1 22 17
M  V30 32 1 24 10
M  V30 33 1 1 30
M  V30 34 1 1 31
M  V30 35 1 1 32
M  V30 36 1 4 33
M  V30 37 1 5 34
M  V30 38 1 8 35
M  V30 39 1 12 36
M  V30 40 1 14 37
M  V30 41 1 18 38
M  V30 42 1 19 39
M  V30 43 1 20 40
M  V30 44 1 22 41
M  V30 45 1 23 42
M  V30 46 1 25 43
M  V30 47 1 25 44
M  V30 48 1 25 45
M  V30 49 1 26 46
M  V30 50 1 29 47
M  V30 51 1 29 48
M  V30 52 1 29 49
M  V30 END BOND
M  V30 END CTAB
M  END
>  <Dataset>  (270) 
ChEMBL_Kinases

>  <Ligand_Instance>  (270) 
nan

>  <PDB_ID>  (270) 
nan

>  <Standardized_SMILES>  (270) 
COc1ccc(-c2cnc3c(c2)c(NC(=O)c2cccnc2)cn3C)cc1OC

>  <Name>  (270) 
nan

>  <Pocket>  (270) 
nan

>  <ATP_Site>  (270) 
nan

>  <Peripheral>  (270) 
nan

>  <Num_H_Atoms_ProtBoundConf>  (270) 
nan

>  <Num_Resolved_Atoms>  (270) 
nan

>  <Num_Not_Resolved_Atoms>  (270) 
nan

$$$$
CHEMBL470168
     RDKit          3D

  0  0  0  0  0  0  0  0  0  0999 V3000
M  V30 BEGIN CTAB
M  V30 COUNTS 41 44 0 0 0
M  V30 BEGIN ATOM
M  V30 1 C 3.375375 -3.366075 3.707234 0
M  V30 2 O 3.461441 -3.888931 2.409165 0
M  V30 3 C 2.571782 -3.654124 1.376216 0
M  V30 4 C 1.427617 -2.881878 1.362866 0
M  V30 5 C 0.660539 -2.766604 0.229114 0
M  V30 6 C 0.962671 -3.393839 -0.950610 0
M  V30 7 C 0.149860 -3.282471 -2.174733 0
M  V30 8 S 0.641628 -1.908425 -3.249065 0
M  V30 9 C 0.306216 -0.360597 -2.425452 0
M  V30 10 N 0.637041 0.751654 -3.144756 0
M  V30 11 N 0.332881 1.815292 -2.409940 0
M  V30 12 C -0.173590 1.392918 -1.263857 0
M  V30 13 C -0.648959 2.198893 -0.145980 0
M  V30 14 C -0.606547 3.576747 -0.197965 0
M  V30 15 C -1.065764 4.298549 0.882945 0
M  V30 16 C -1.574783 3.742608 2.035884 0
M  V30 17 C -1.608151 2.358846 2.066841 0
M  V30 18 C -1.154361 1.616201 0.997895 0
M  V30 19 C -2.177917 1.898400 3.365201 0
M  V30 20 C -2.898150 3.154130 3.834080 0
M  V30 21 O -2.095535 4.170451 3.248591 0
M  V30 22 O -0.181656 0.083326 -1.291573 0
M  V30 23 C 2.116038 -4.164336 -0.915243 0
M  V30 24 C 2.928305 -4.316523 0.201317 0
M  V30 25 C 4.079031 -5.144156 0.073550 0
M  V30 26 N 5.026966 -5.807771 -0.034698 0
M  V30 27 H 4.150440 -2.592409 3.888950 0
M  V30 28 H 3.501598 -4.194938 4.461190 0
M  V30 29 H 2.348070 -3.000032 3.870309 0
M  V30 30 H 1.213695 -2.401467 2.298340 0
M  V30 31 H -0.204916 -2.152049 0.305293 0
M  V30 32 H 0.086115 -4.239184 -2.724408 0
M  V30 33 H -0.888961 -3.024543 -1.825642 0
M  V30 34 H -0.222713 4.077073 -1.064403 0
M  V30 35 H -1.034670 5.382121 0.847907 0
M  V30 36 H -1.190526 0.536217 1.045631 0
M  V30 37 H -1.380077 1.678537 4.105023 0
M  V30 38 H -2.866624 1.045665 3.269948 0
M  V30 39 H -3.921997 3.140408 3.391916 0
M  V30 40 H -2.916470 3.205577 4.936626 0
M  V30 41 H 2.387893 -4.679313 -1.838628 0
M  V30 END ATOM
M  V30 BEGIN BOND
M  V30 1 1 1 2
M  V30 2 1 2 3
M  V30 3 2 3 4
M  V30 4 1 4 5
M  V30 5 2 5 6
M  V30 6 1 6 7
M  V30 7 1 7 8
M  V30 8 1 8 9
M  V30 9 2 9 10
M  V30 10 1 10 11
M  V30 11 2 11 12
M  V30 12 1 12 13
M  V30 13 2 13 14
M  V30 14 1 14 15
M  V30 15 2 15 16
M  V30 16 1 16 17
M  V30 17 2 17 18
M  V30 18 1 17 19
M  V30 19 1 19 20
M  V30 20 1 20 21
M  V30 21 1 12 22
M  V30 22 1 6 23
M  V30 23 2 23 24
M  V30 24 1 24 25
M  V30 25 3 25 26
M  V30 26 1 24 3
M  V30 27 1 22 9
M  V30 28 1 18 13
M  V30 29 1 21 16
M  V30 30 1 1 27
M  V30 31 1 1 28
M  V30 32 1 1 29
M  V30 33 1 4 30
M  V30 34 1 5 31
M  V30 35 1 7 32
M  V30 36 1 7 33
M  V30 37 1 14 34
M  V30 38 1 15 35
M  V30 39 1 18 36
M  V30 40 1 19 37
M  V30 41 1 19 38
M  V30 42 1 20 39
M  V30 43 1 20 40
M  V30 44 1 23 41
M  V30 END BOND
M  V30 END CTAB
M  END
>  <Dataset>  (271) 
ChEMBL_Kinases

>  <Ligand_Instance>  (271) 
nan

>  <PDB_ID>  (271) 
nan

>  <Standardized_SMILES>  (271) 
COc1ccc(CSc2nnc(-c3ccc4c(c3)CCO4)o2)cc1C#N

>  <Name>  (271) 
nan

>  <Pocket>  (271) 
nan

>  <ATP_Site>  (271) 
nan

>  <Peripheral>  (271) 
nan

>  <Num_H_Atoms_ProtBoundConf>  (271) 
nan

>  <Num_Resolved_Atoms>  (271) 
nan

>  <Num_Not_Resolved_Atoms>  (271) 
nan

$$$$
CHEMBL4471215
     RDKit          3D

  0  0  0  0  0  0  0  0  0  0999 V3000
M  V30 BEGIN CTAB
M  V30 COUNTS 49 53 0 0 0
M  V30 BEGIN ATOM
M  V30 1 C 2.801820 -4.506512 1.834036 0
M  V30 2 C 2.499471 -3.436727 2.848136 0
M  V30 3 C 2.886796 -3.536727 4.165382 0
M  V30 4 C 2.629143 -2.578502 5.122253 0
M  V30 5 C 1.930968 -1.447518 4.699942 0
M  V30 6 C 1.532964 -1.324886 3.388913 0
M  V30 7 C 0.807626 -0.253496 2.723792 0
M  V30 8 N 1.090580 1.029540 2.428862 0
M  V30 9 N 0.065842 1.575891 1.791237 0
M  V30 10 C -0.115142 2.930204 1.247312 0
M  V30 11 C 0.345351 2.943057 -0.184944 0
M  V30 12 O 1.507879 3.315069 -0.480652 0
M  V30 13 N -0.494370 2.541424 -1.264458 0
M  V30 14 C -0.277929 2.475256 -2.659439 0
M  V30 15 C 0.856988 2.886057 -3.257305 0
M  V30 16 C 1.035674 2.783994 -4.639818 0
M  V30 17 C 0.026427 2.246716 -5.431104 0
M  V30 18 C -1.120490 1.839269 -4.761090 0
M  V30 19 F -2.122331 1.307960 -5.512765 0
M  V30 20 C -1.335947 1.926070 -3.376116 0
M  V30 21 C -0.950588 0.669110 1.634567 0
M  V30 22 C -0.472872 -0.506696 2.234447 0
M  V30 23 C -1.372941 -1.682549 2.219303 0
M  V30 24 C -2.205865 -2.105408 3.224134 0
M  V30 25 C -2.967828 -3.223561 3.022891 0
M  V30 26 C -2.890361 -3.889450 1.849889 0
M  V30 27 N -3.709965 -5.119915 1.592581 0
M  V30 28 S -3.235100 -5.553013 -0.008931 0
M  V30 29 N -2.085780 -4.302817 -0.376030 0
M  V30 30 C -2.075529 -3.484222 0.854997 0
M  V30 31 C -1.313430 -2.375649 1.040191 0
M  V30 32 N 1.835362 -2.318754 2.536643 0
M  V30 33 H 1.957648 -5.233688 1.774617 0
M  V30 34 H 2.785927 -4.001217 0.826399 0
M  V30 35 H 3.773081 -4.952901 2.048843 0
M  V30 36 H 3.438698 -4.434999 4.482107 0
M  V30 37 H 2.917532 -2.627002 6.157876 0
M  V30 38 H 1.646712 -0.611885 5.312246 0
M  V30 39 H -1.161447 3.279753 1.350159 0
M  V30 40 H 0.563049 3.602348 1.793623 0
M  V30 41 H -1.440418 2.256393 -0.858660 0
M  V30 42 H 1.674458 3.307006 -2.747086 0
M  V30 43 H 1.926051 3.096192 -5.187500 0
M  V30 44 H 0.072772 2.125957 -6.503212 0
M  V30 45 H -2.278223 1.571210 -2.993318 0
M  V30 46 H -1.907899 0.837763 1.153519 0
M  V30 47 H -2.189464 -1.503807 4.109464 0
M  V30 48 H -3.613568 -3.551220 3.798774 0
M  V30 49 H -0.678434 -2.090572 0.220894 0
M  V30 END ATOM
M  V30 BEGIN BOND
M  V30 1 1 1 2
M  V30 2 2 2 3
M  V30 3 1 3 4
M  V30 4 2 4 5
M  V30 5 1 5 6
M  V30 6 1 6 7
M  V30 7 2 7 8
M  V30 8 1 8 9
M  V30 9 1 9 10
M  V30 10 1 10 11
M  V30 11 2 11 12
M  V30 12 1 11 13
M  V30 13 1 13 14
M  V30 14 2 14 15
M  V30 15 1 15 16
M  V30 16 2 16 17
M  V30 17 1 17 18
M  V30 18 1 18 19
M  V30 19 2 18 20
M  V30 20 1 9 21
M  V30 21 2 21 22
M  V30 22 1 22 23
M  V30 23 1 23 24
M  V30 24 2 24 25
M  V30 25 1 25 26
M  V30 26 2 26 27
M  V30 27 1 27 28
M  V30 28 1 28 29
M  V30 29 2 29 30
M  V30 30 1 30 31
M  V30 31 2 6 32
M  V30 32 1 32 2
M  V30 33 1 22 7
M  V30 34 2 31 23
M  V30 35 1 20 14
M  V30 36 1 30 26
M  V30 37 1 1 33
M  V30 38 1 1 34
M  V30 39 1 1 35
M  V30 40 1 3 36
M  V30 41 1 4 37
M  V30 42 1 5 38
M  V30 43 1 10 39
M  V30 44 1 10 40
M  V30 45 1 13 41
M  V30 46 1 15 42
M  V30 47 1 16 43
M  V30 48 1 17 44
M  V30 49 1 20 45
M  V30 50 1 21 46
M  V30 51 1 24 47
M  V30 52 1 25 48
M  V30 53 1 31 49
M  V30 END BOND
M  V30 END CTAB
M  END
>  <Dataset>  (272) 
ChEMBL_Kinases

>  <Ligand_Instance>  (272) 
nan

>  <PDB_ID>  (272) 
nan

>  <Standardized_SMILES>  (272) 
Cc1cccc(-c2nn(CC(=O)Nc3cccc(F)c3)cc2-c2ccc3nsnc3c2)n1

>  <Name>  (272) 
nan

>  <Pocket>  (272) 
nan

>  <ATP_Site>  (272) 
nan

>  <Peripheral>  (272) 
nan

>  <Num_H_Atoms_ProtBoundConf>  (272) 
nan

>  <Num_Resolved_Atoms>  (272) 
nan

>  <Num_Not_Resolved_Atoms>  (272) 
nan

$$$$
CHEMBL470360
     RDKit          3D

  0  0  0  0  0  0  0  0  0  0999 V3000
M  V30 BEGIN CTAB
M  V30 COUNTS 36 39 0 0 0
M  V30 BEGIN ATOM
M  V30 1 F 1.139877 -2.515512 3.088726 0
M  V30 2 C 1.170295 -3.123332 1.882811 0
M  V30 3 C 0.176886 -3.979840 1.453211 0
M  V30 4 C 0.196763 -4.616087 0.208275 0
M  V30 5 C 1.278471 -4.341620 -0.586890 0
M  V30 6 C 2.311539 -3.505645 -0.245322 0
M  V30 7 C 3.513416 -3.157117 -1.041863 0
M  V30 8 S 3.279375 -1.710048 -2.092415 0
M  V30 9 C 3.053459 -0.285296 -1.022091 0
M  V30 10 N 3.748513 0.684593 -0.383805 0
M  V30 11 N 2.888237 1.449795 0.269389 0
M  V30 12 C 1.646274 0.974598 0.052223 0
M  V30 13 C 0.411078 1.553542 0.607552 0
M  V30 14 C 0.467770 2.676919 1.433283 0
M  V30 15 C -0.716114 3.183918 1.928465 0
M  V30 16 C -1.884931 2.550610 1.578395 0
M  V30 17 C -1.991224 1.453908 0.777388 0
M  V30 18 C -0.792308 0.943291 0.277763 0
M  V30 19 C -3.441774 1.073164 0.640786 0
M  V30 20 C -4.055789 2.451478 0.903442 0
M  V30 21 O -3.199420 2.885981 1.959768 0
M  V30 22 O 1.795968 -0.071893 -0.731931 0
M  V30 23 C 2.216367 -2.911531 1.010736 0
M  V30 24 H -0.655905 -4.168015 2.110870 0
M  V30 25 H -0.578531 -5.275157 -0.108169 0
M  V30 26 H 1.380600 -4.795266 -1.582044 0
M  V30 27 H 4.372834 -3.019916 -0.332559 0
M  V30 28 H 3.750707 -4.037436 -1.695607 0
M  V30 29 H 1.461166 3.062045 1.618669 0
M  V30 30 H -0.650686 4.054633 2.566313 0
M  V30 31 H -0.849087 0.071543 -0.362383 0
M  V30 32 H -3.613743 0.723087 -0.384287 0
M  V30 33 H -3.718464 0.352157 1.427390 0
M  V30 34 H -5.103977 2.417028 1.178262 0
M  V30 35 H -3.794341 3.057199 0.035920 0
M  V30 36 H 3.000362 -2.232651 1.354711 0
M  V30 END ATOM
M  V30 BEGIN BOND
M  V30 1 1 1 2
M  V30 2 2 2 3
M  V30 3 1 3 4
M  V30 4 2 4 5
M  V30 5 1 5 6
M  V30 6 1 6 7
M  V30 7 1 7 8
M  V30 8 1 8 9
M  V30 9 2 9 10
M  V30 10 1 10 11
M  V30 11 2 11 12
M  V30 12 1 12 13
M  V30 13 2 13 14
M  V30 14 1 14 15
M  V30 15 2 15 16
M  V30 16 1 16 17
M  V30 17 2 17 18
M  V30 18 1 17 19
M  V30 19 1 19 20
M  V30 20 1 20 21
M  V30 21 1 12 22
M  V30 22 2 6 23
M  V30 23 1 23 2
M  V30 24 1 22 9
M  V30 25 1 18 13
M  V30 26 1 21 16
M  V30 27 1 3 24
M  V30 28 1 4 25
M  V30 29 1 5 26
M  V30 30 1 7 27
M  V30 31 1 7 28
M  V30 32 1 14 29
M  V30 33 1 15 30
M  V30 34 1 18 31
M  V30 35 1 19 32
M  V30 36 1 19 33
M  V30 37 1 20 34
M  V30 38 1 20 35
M  V30 39 1 23 36
M  V30 END BOND
M  V30 END CTAB
M  END
>  <Dataset>  (273) 
ChEMBL_Kinases

>  <Ligand_Instance>  (273) 
nan

>  <PDB_ID>  (273) 
nan

>  <Standardized_SMILES>  (273) 
Fc1cccc(CSc2nnc(-c3ccc4c(c3)CCO4)o2)c1

>  <Name>  (273) 
nan

>  <Pocket>  (273) 
nan

>  <ATP_Site>  (273) 
nan

>  <Peripheral>  (273) 
nan

>  <Num_H_Atoms_ProtBoundConf>  (273) 
nan

>  <Num_Resolved_Atoms>  (273) 
nan

>  <Num_Not_Resolved_Atoms>  (273) 
nan

$$$$
CHEMBL447111
     RDKit          3D

  0  0  0  0  0  0  0  0  0  0999 V3000
M  V30 BEGIN CTAB
M  V30 COUNTS 32 33 0 0 0
M  V30 BEGIN ATOM
M  V30 1 C -3.530101 -2.368925 2.365698 0
M  V30 2 C -2.117564 -2.036515 2.042880 0
M  V30 3 C -1.111196 -2.932688 2.387899 0
M  V30 4 C 0.214485 -2.584192 2.071548 0
M  V30 5 C 0.540235 -1.371047 1.424134 0
M  V30 6 O 1.842933 -1.336823 1.264018 0
M  V30 7 C 2.880179 -0.602185 0.798937 0
M  V30 8 C 2.807090 -0.170966 -0.641751 0
M  V30 9 C 3.202335 -0.815303 -1.800385 0
M  V30 10 C 2.825585 -0.022620 -2.842245 0
M  V30 11 O 2.232548 1.055009 -2.382982 0
M  V30 12 C 2.207032 0.998257 -1.052870 0
M  V30 13 C 1.585326 2.138702 -0.347481 0
M  V30 14 O 1.048411 3.129987 -0.864405 0
M  V30 15 O 1.594915 2.120263 1.033731 0
M  V30 16 C -0.569141 -0.613198 1.160634 0
M  V30 17 C -1.877625 -0.846744 1.418488 0
M  V30 18 C -2.876674 0.160268 1.023415 0
M  V30 19 H -4.229481 -1.685765 1.865357 0
M  V30 20 H -3.704749 -3.428842 2.056575 0
M  V30 21 H -3.646775 -2.241435 3.451534 0
M  V30 22 H -1.432169 -3.837211 2.879692 0
M  V30 23 H 0.872332 -3.397372 2.408702 0
M  V30 24 H 3.870384 -1.137130 0.925491 0
M  V30 25 H 3.028492 0.307687 1.448804 0
M  V30 26 H 3.706609 -1.765392 -1.709755 0
M  V30 27 H 3.015763 -0.295821 -3.884840 0
M  V30 28 H 1.011384 2.737949 1.557338 0
M  V30 29 H -0.297979 0.293196 0.657673 0
M  V30 30 H -3.679592 -0.347664 0.439819 0
M  V30 31 H -3.332792 0.630184 1.892670 0
M  V30 32 H -2.382315 0.922039 0.359049 0
M  V30 END ATOM
M  V30 BEGIN BOND
M  V30 1 1 1 2
M  V30 2 2 2 3
M  V30 3 1 3 4
M  V30 4 2 4 5
M  V30 5 1 5 6
M  V30 6 1 6 7
M  V30 7 1 7 8
M  V30 8 1 8 9
M  V30 9 2 9 10
M  V30 10 1 10 11
M  V30 11 1 11 12
M  V30 12 1 12 13
M  V30 13 2 13 14
M  V30 14 1 13 15
M  V30 15 1 5 16
M  V30 16 2 16 17
M  V30 17 1 17 18
M  V30 18 1 17 2
M  V30 19 2 12 8
M  V30 20 1 1 19
M  V30 21 1 1 20
M  V30 22 1 1 21
M  V30 23 1 3 22
M  V30 24 1 4 23
M  V30 25 1 7 24
M  V30 26 1 7 25
M  V30 27 1 9 26
M  V30 28 1 10 27
M  V30 29 1 15 28
M  V30 30 1 16 29
M  V30 31 1 18 30
M  V30 32 1 18 31
M  V30 33 1 18 32
M  V30 END BOND
M  V30 END CTAB
M  END
>  <Dataset>  (274) 
ChEMBL_Kinases

>  <Ligand_Instance>  (274) 
nan

>  <PDB_ID>  (274) 
nan

>  <Standardized_SMILES>  (274) 
Cc1ccc(OCc2ccoc2C(=O)O)cc1C

>  <Name>  (274) 
nan

>  <Pocket>  (274) 
nan

>  <ATP_Site>  (274) 
nan

>  <Peripheral>  (274) 
nan

>  <Num_H_Atoms_ProtBoundConf>  (274) 
nan

>  <Num_Resolved_Atoms>  (274) 
nan

>  <Num_Not_Resolved_Atoms>  (274) 
nan

$$$$
CHEMBL4470981
     RDKit          3D

  0  0  0  0  0  0  0  0  0  0999 V3000
M  V30 BEGIN CTAB
M  V30 COUNTS 34 37 0 0 0
M  V30 BEGIN ATOM
M  V30 1 O -1.669992 -1.403418 3.449566 0
M  V30 2 C -0.658448 -1.351351 2.719129 0
M  V30 3 N 0.709132 -1.281611 3.164500 0
M  V30 4 C 1.687491 -1.245599 2.126041 0
M  V30 5 N 2.840071 -0.691059 2.120759 0
M  V30 6 C 3.576865 -0.853763 0.887198 0
M  V30 7 C 3.921891 -2.158773 0.538761 0
M  V30 8 C 4.624381 -2.449729 -0.612018 0
M  V30 9 C 4.991630 -1.397165 -1.438331 0
M  V30 10 C 4.650246 -0.101951 -1.094316 0
M  V30 11 C 3.945716 0.187776 0.060193 0
M  V30 12 Cl 3.497478 1.811035 0.526322 0
M  V30 13 S 0.757150 -2.219446 0.881659 0
M  V30 14 C -0.806310 -1.366842 1.282919 0
M  V30 15 C -1.641748 -0.907911 0.400973 0
M  V30 16 C -1.624516 -1.042947 -1.043675 0
M  V30 17 O -0.727279 -1.712046 -1.613471 0
M  V30 18 N -2.740311 -0.311825 -1.519769 0
M  V30 19 C -3.388603 0.237892 -0.358527 0
M  V30 20 C -4.511485 1.032535 -0.449587 0
M  V30 21 C -5.041945 1.533344 0.717151 0
M  V30 22 C -4.427277 1.220727 1.937579 0
M  V30 23 F -5.029930 1.766299 3.021694 0
M  V30 24 C -3.314768 0.419500 1.901933 0
M  V30 25 C -2.739317 -0.110613 0.797507 0
M  V30 26 H 0.937864 -1.254964 4.211019 0
M  V30 27 H 3.664756 -3.020457 1.140588 0
M  V30 28 H 4.891531 -3.464966 -0.880909 0
M  V30 29 H 5.544067 -1.642415 -2.340233 0
M  V30 30 H 4.941648 0.709355 -1.745509 0
M  V30 31 H -2.957931 -0.249590 -2.537542 0
M  V30 32 H -5.011887 1.295410 -1.362141 0
M  V30 33 H -5.921937 2.158218 0.674274 0
M  V30 34 H -2.969837 0.322865 2.894504 0
M  V30 END ATOM
M  V30 BEGIN BOND
M  V30 1 2 1 2
M  V30 2 1 2 3
M  V30 3 1 3 4
M  V30 4 2 4 5
M  V30 5 1 5 6
M  V30 6 2 6 7
M  V30 7 1 7 8
M  V30 8 2 8 9
M  V30 9 1 9 10
M  V30 10 2 10 11
M  V30 11 1 11 12
M  V30 12 1 4 13
M  V30 13 1 13 14
M  V30 14 2 14 15
M  V30 15 1 15 16
M  V30 16 2 16 17
M  V30 17 1 16 18
M  V30 18 1 18 19
M  V30 19 2 19 20
M  V30 20 1 20 21
M  V30 21 2 21 22
M  V30 22 1 22 23
M  V30 23 1 22 24
M  V30 24 2 24 25
M  V30 25 1 14 2
M  V30 26 1 25 15
M  V30 27 1 11 6
M  V30 28 1 25 19
M  V30 29 1 3 26
M  V30 30 1 7 27
M  V30 31 1 8 28
M  V30 32 1 9 29
M  V30 33 1 10 30
M  V30 34 1 18 31
M  V30 35 1 20 32
M  V30 36 1 21 33
M  V30 37 1 24 34
M  V30 END BOND
M  V30 END CTAB
M  END
>  <Dataset>  (275) 
ChEMBL_Kinases

>  <Ligand_Instance>  (275) 
nan

>  <PDB_ID>  (275) 
nan

>  <Standardized_SMILES>  (275) 
O=C1N/C(=N/c2ccccc2Cl)S/C1=C1\C(=O)Nc2ccc(F)cc21

>  <Name>  (275) 
nan

>  <Pocket>  (275) 
nan

>  <ATP_Site>  (275) 
nan

>  <Peripheral>  (275) 
nan

>  <Num_H_Atoms_ProtBoundConf>  (275) 
nan

>  <Num_Resolved_Atoms>  (275) 
nan

>  <Num_Not_Resolved_Atoms>  (275) 
nan

$$$$
CHEMBL4470980
     RDKit          3D

  0  0  0  0  0  0  0  0  0  0999 V3000
M  V30 BEGIN CTAB
M  V30 COUNTS 51 54 0 0 0
M  V30 BEGIN ATOM
M  V30 1 C 1.197349 3.127097 6.353980 0
M  V30 2 N 0.634076 2.127540 5.501356 0
M  V30 3 C 1.374483 0.888265 5.490702 0
M  V30 4 C 2.716380 0.997546 4.846321 0
M  V30 5 N 2.703366 1.410860 3.469592 0
M  V30 6 C 2.055940 0.687333 2.436688 0
M  V30 7 O 1.527242 -0.333534 2.942617 0
M  V30 8 C 2.048952 1.110212 1.074741 0
M  V30 9 C 2.691362 2.272463 0.708134 0
M  V30 10 N 2.720865 2.725398 -0.558158 0
M  V30 11 C 2.112288 2.058748 -1.569520 0
M  V30 12 C 1.450255 0.884801 -1.266387 0
M  V30 13 C 1.440581 0.451867 0.038041 0
M  V30 14 N 0.749995 -0.763851 0.285322 0
M  V30 15 C 0.095654 -1.587102 -0.669997 0
M  V30 16 C -1.257252 -1.903062 -0.710798 0
M  V30 17 C -1.861670 -2.708843 -1.636362 0
M  V30 18 C -3.286222 -2.966574 -1.577797 0
M  V30 19 C -4.166756 -2.482120 -0.651802 0
M  V30 20 C -5.511412 -2.737690 -0.614755 0
M  V30 21 C -6.020586 -3.557034 -1.600318 0
M  V30 22 F -7.363099 -3.829305 -1.587336 0
M  V30 23 C -5.191244 -4.096532 -2.587964 0
M  V30 24 C -3.837196 -3.784669 -2.549835 0
M  V30 25 F -3.100523 -4.344769 -3.539253 0
M  V30 26 N -1.075045 -3.229628 -2.574192 0
M  V30 27 C 0.244575 -2.970584 -2.600941 0
M  V30 28 N 1.143440 -3.445652 -3.500800 0
M  V30 29 C 2.364384 -2.959534 -3.183939 0
M  V30 30 C 2.215942 -2.162782 -2.058262 0
M  V30 31 C 0.890642 -2.152368 -1.670546 0
M  V30 32 H 1.088515 4.159658 5.940804 0
M  V30 33 H 0.603754 3.144329 7.305234 0
M  V30 34 H 2.282138 2.982422 6.587333 0
M  V30 35 H -0.341218 1.928254 5.788151 0
M  V30 36 H 0.789707 0.053585 5.098317 0
M  V30 37 H 1.560053 0.627164 6.573747 0
M  V30 38 H 3.178458 -0.032272 4.931794 0
M  V30 39 H 3.343589 1.630202 5.488553 0
M  V30 40 H 3.226839 2.319827 3.277183 0
M  V30 41 H 3.228748 2.936167 1.368596 0
M  V30 42 H 2.161255 2.462270 -2.581714 0
M  V30 43 H 0.992283 0.424778 -2.122042 0
M  V30 44 H 0.546700 -1.338419 1.130923 0
M  V30 45 H -1.790889 -1.415800 0.108771 0
M  V30 46 H -3.774744 -1.840539 0.120539 0
M  V30 47 H -6.166116 -2.331655 0.137569 0
M  V30 48 H -5.615108 -4.735633 -3.348586 0
M  V30 49 H 0.955407 -4.078949 -4.309164 0
M  V30 50 H 3.310453 -3.135061 -3.688848 0
M  V30 51 H 2.961113 -1.613535 -1.521031 0
M  V30 END ATOM
M  V30 BEGIN BOND
M  V30 1 1 1 2
M  V30 2 1 2 3
M  V30 3 1 3 4
M  V30 4 1 4 5
M  V30 5 1 5 6
M  V30 6 2 6 7
M  V30 7 1 6 8
M  V30 8 2 8 9
M  V30 9 1 9 10
M  V30 10 2 10 11
M  V30 11 1 11 12
M  V30 12 2 12 13
M  V30 13 1 13 14
M  V30 14 1 14 15
M  V30 15 2 15 16
M  V30 16 1 16 17
M  V30 17 1 17 18
M  V30 18 2 18 19
M  V30 19 1 19 20
M  V30 20 2 20 21
M  V30 21 1 21 22
M  V30 22 1 21 23
M  V30 23 2 23 24
M  V30 24 1 24 25
M  V30 25 2 17 26
M  V30 26 1 26 27
M  V30 27 1 27 28
M  V30 28 1 28 29
M  V30 29 2 29 30
M  V30 30 1 30 31
M  V30 31 1 13 8
M  V30 32 1 31 15
M  V30 33 1 24 18
M  V30 34 2 31 27
M  V30 35 1 1 32
M  V30 36 1 1 33
M  V30 37 1 1 34
M  V30 38 1 2 35
M  V30 39 1 3 36
M  V30 40 1 3 37
M  V30 41 1 4 38
M  V30 42 1 4 39
M  V30 43 1 5 40
M  V30 44 1 9 41
M  V30 45 1 11 42
M  V30 46 1 12 43
M  V30 47 1 14 44
M  V30 48 1 16 45
M  V30 49 1 19 46
M  V30 50 1 20 47
M  V30 51 1 23 48
M  V30 52 1 28 49
M  V30 53 1 29 50
M  V30 54 1 30 51
M  V30 END BOND
M  V30 END CTAB
M  END
>  <Dataset>  (276) 
ChEMBL_Kinases

>  <Ligand_Instance>  (276) 
nan

>  <PDB_ID>  (276) 
nan

>  <Standardized_SMILES>  (276) 
CNCCNC(=O)c1cnccc1Nc1cc(-c2ccc(F)cc2F)nc2[nH]ccc12

>  <Name>  (276) 
nan

>  <Pocket>  (276) 
nan

>  <ATP_Site>  (276) 
nan

>  <Peripheral>  (276) 
nan

>  <Num_H_Atoms_ProtBoundConf>  (276) 
nan

>  <Num_Resolved_Atoms>  (276) 
nan

>  <Num_Not_Resolved_Atoms>  (276) 
nan

$$$$
CHEMBL4471414
     RDKit          3D

  0  0  0  0  0  0  0  0  0  0999 V3000
M  V30 BEGIN CTAB
M  V30 COUNTS 32 34 0 0 0
M  V30 BEGIN ATOM
M  V30 1 C 0.102620 -3.505122 1.699397 0
M  V30 2 C 1.313954 -2.720239 2.019442 0
M  V30 3 N 2.306519 -3.101369 2.862816 0
M  V30 4 N 3.241018 -2.170918 2.925070 0
M  V30 5 C 2.859463 -1.167196 2.114333 0
M  V30 6 C 3.501059 0.014225 1.849025 0
M  V30 7 C 2.845632 0.843944 0.963985 0
M  V30 8 N 1.657904 0.510776 0.402796 0
M  V30 9 C 1.020070 -0.640473 0.653361 0
M  V30 10 N -0.223647 -0.907874 0.019801 0
M  V30 11 C -0.675941 0.137236 -0.858999 0
M  V30 12 C -1.996411 -0.267687 -1.466604 0
M  V30 13 C -2.966146 0.035542 -0.344060 0
M  V30 14 C -2.389927 1.168354 0.451206 0
M  V30 15 C -1.036776 1.417902 -0.184964 0
M  V30 16 C 1.650421 -1.493876 1.535964 0
M  V30 17 H 0.189712 -4.492651 2.250996 0
M  V30 18 H -0.841223 -3.079554 2.024334 0
M  V30 19 H 0.114390 -3.813293 0.634634 0
M  V30 20 H 4.113644 -2.213092 3.500276 0
M  V30 21 H 4.443643 0.355279 2.250902 0
M  V30 22 H 3.218871 1.803670 0.654970 0
M  V30 23 H -0.831932 -1.742270 0.109613 0
M  V30 24 H 0.071266 0.352221 -1.651222 0
M  V30 25 H -2.256146 0.339028 -2.359636 0
M  V30 26 H -1.927277 -1.346210 -1.707429 0
M  V30 27 H -3.049560 -0.842527 0.337047 0
M  V30 28 H -3.983844 0.223478 -0.727065 0
M  V30 29 H -3.047508 2.059693 0.433871 0
M  V30 30 H -2.208660 0.892486 1.511521 0
M  V30 31 H -1.207832 2.161233 -0.993358 0
M  V30 32 H -0.309471 1.844986 0.495352 0
M  V30 END ATOM
M  V30 BEGIN BOND
M  V30 1 1 1 2
M  V30 2 2 2 3
M  V30 3 1 3 4
M  V30 4 1 4 5
M  V30 5 2 5 6
M  V30 6 1 6 7
M  V30 7 2 7 8
M  V30 8 1 8 9
M  V30 9 1 9 10
M  V30 10 1 10 11
M  V30 11 1 11 12
M  V30 12 1 12 13
M  V30 13 1 13 14
M  V30 14 1 14 15
M  V30 15 2 9 16
M  V30 16 1 16 2
M  V30 17 1 16 5
M  V30 18 1 15 11
M  V30 19 1 1 17
M  V30 20 1 1 18
M  V30 21 1 1 19
M  V30 22 1 4 20
M  V30 23 1 6 21
M  V30 24 1 7 22
M  V30 25 1 10 23
M  V30 26 1 11 24
M  V30 27 1 12 25
M  V30 28 1 12 26
M  V30 29 1 13 27
M  V30 30 1 13 28
M  V30 31 1 14 29
M  V30 32 1 14 30
M  V30 33 1 15 31
M  V30 34 1 15 32
M  V30 END BOND
M  V30 END CTAB
M  END
>  <Dataset>  (277) 
ChEMBL_Kinases

>  <Ligand_Instance>  (277) 
nan

>  <PDB_ID>  (277) 
nan

>  <Standardized_SMILES>  (277) 
Cc1n[nH]c2ccnc(NC3CCCC3)c12

>  <Name>  (277) 
nan

>  <Pocket>  (277) 
nan

>  <ATP_Site>  (277) 
nan

>  <Peripheral>  (277) 
nan

>  <Num_H_Atoms_ProtBoundConf>  (277) 
nan

>  <Num_Resolved_Atoms>  (277) 
nan

>  <Num_Not_Resolved_Atoms>  (277) 
nan

$$$$
CHEMBL4472827
     RDKit          3D

  0  0  0  0  0  0  0  0  0  0999 V3000
M  V30 BEGIN CTAB
M  V30 COUNTS 54 57 0 0 0
M  V30 BEGIN ATOM
M  V30 1 C 3.521217 -4.887033 4.161070 0
M  V30 2 N 2.426997 -5.280831 3.332866 0
M  V30 3 C 1.807967 -6.582406 3.487874 0
M  V30 4 C 1.910404 -4.412756 2.332868 0
M  V30 5 C 2.418782 -3.150231 2.096542 0
M  V30 6 C 1.916270 -2.307846 1.125077 0
M  V30 7 C 0.855968 -2.704218 0.328677 0
M  V30 8 C 0.227715 -1.918497 -0.731919 0
M  V30 9 C 0.135332 -0.543218 -0.694831 0
M  V30 10 C -0.449687 0.222082 -1.678874 0
M  V30 11 N -0.519634 1.631626 -1.630767 0
M  V30 12 C -0.072752 2.537244 -0.622208 0
M  V30 13 C -0.838378 2.525685 0.659323 0 CFG=1
M  V30 14 C -0.282289 3.523842 1.657902 0
M  V30 15 C -0.966743 3.416700 2.995929 0
M  V30 16 C -2.381690 2.901492 2.873172 0
M  V30 17 N -2.993983 3.266224 1.623645 0
M  V30 18 C -2.311967 2.758855 0.478759 0
M  V30 19 C -0.955360 -0.489472 -2.741433 0
M  V30 20 C -1.573410 0.112034 -3.813945 0
M  V30 21 C -2.084399 -0.578705 -4.883631 0
M  V30 22 C -1.980846 -1.974187 -4.903288 0
M  V30 23 N -1.374419 -2.554801 -3.849339 0
M  V30 24 C -0.879778 -1.860579 -2.809886 0
M  V30 25 C -0.289316 -2.604142 -1.811374 0
M  V30 26 C 0.357971 -3.978906 0.582101 0
M  V30 27 N 0.880742 -4.766673 1.541563 0
M  V30 28 H 3.522727 -5.485150 5.116144 0
M  V30 29 H 3.431665 -3.838035 4.510786 0
M  V30 30 H 4.507474 -4.954655 3.660252 0
M  V30 31 H 1.520838 -7.032950 2.504528 0
M  V30 32 H 0.815560 -6.426680 4.002611 0
M  V30 33 H 2.381533 -7.275767 4.119021 0
M  V30 34 H 3.248399 -2.796668 2.694367 0
M  V30 35 H 2.303030 -1.316495 0.927334 0
M  V30 36 H 0.572453 -0.120135 0.172797 0
M  V30 37 H -0.943343 2.180811 -2.395334 0
M  V30 38 H 0.967457 2.163079 -0.333067 0
M  V30 39 H 0.129492 3.572226 -0.964521 0
M  V30 40 H -0.731109 1.544962 1.145143 0
M  V30 41 H 0.811705 3.452811 1.742428 0
M  V30 42 H -0.512263 4.533921 1.255772 0
M  V30 43 H -0.404803 2.679186 3.605312 0
M  V30 44 H -0.912751 4.384403 3.538146 0
M  V30 45 H -2.972212 3.366935 3.690793 0
M  V30 46 H -2.431257 1.810357 3.046515 0
M  V30 47 H -3.299345 4.241267 1.579478 0
M  V30 48 H -2.531277 3.375912 -0.415899 0
M  V30 49 H -2.773928 1.759646 0.240317 0
M  V30 50 H -1.691004 1.163054 -3.873308 0
M  V30 51 H -2.569862 -0.118390 -5.728074 0
M  V30 52 H -2.352207 -2.600904 -5.700199 0
M  V30 53 H -0.233691 -3.677966 -1.871510 0
M  V30 54 H -0.467038 -4.409512 0.032995 0
M  V30 END ATOM
M  V30 BEGIN BOND
M  V30 1 1 1 2
M  V30 2 1 2 3
M  V30 3 1 2 4
M  V30 4 2 4 5
M  V30 5 1 5 6
M  V30 6 2 6 7
M  V30 7 1 7 8
M  V30 8 2 8 9
M  V30 9 1 9 10
M  V30 10 1 10 11
M  V30 11 1 11 12
M  V30 12 1 12 13
M  V30 13 1 13 14
M  V30 14 1 14 15
M  V30 15 1 15 16
M  V30 16 1 16 17
M  V30 17 1 17 18
M  V30 18 2 10 19
M  V30 19 1 19 20
M  V30 20 2 20 21
M  V30 21 1 21 22
M  V30 22 2 22 23
M  V30 23 1 23 24
M  V30 24 2 24 25
M  V30 25 1 7 26
M  V30 26 2 26 27
M  V30 27 1 27 4
M  V30 28 1 25 8
M  V30 29 1 18 13
M  V30 30 1 24 19
M  V30 31 1 1 28
M  V30 32 1 1 29
M  V30 33 1 1 30
M  V30 34 1 3 31
M  V30 35 1 3 32
M  V30 36 1 3 33
M  V30 37 1 5 34
M  V30 38 1 6 35
M  V30 39 1 9 36
M  V30 40 1 11 37
M  V30 41 1 12 38
M  V30 42 1 12 39
M  V30 43 1 13 40 CFG=1
M  V30 44 1 14 41
M  V30 45 1 14 42
M  V30 46 1 15 43
M  V30 47 1 15 44
M  V30 48 1 16 45
M  V30 49 1 16 46
M  V30 50 1 17 47
M  V30 51 1 18 48
M  V30 52 1 18 49
M  V30 53 1 20 50
M  V30 54 1 21 51
M  V30 55 1 22 52
M  V30 56 1 25 53
M  V30 57 1 26 54
M  V30 END BOND
M  V30 END CTAB
M  END
>  <Dataset>  (278) 
ChEMBL_Kinases

>  <Ligand_Instance>  (278) 
nan

>  <PDB_ID>  (278) 
nan

>  <Standardized_SMILES>  (278) 
CN(C)c1ccc(-c2cc(NC[C@H]3CCCNC3)c3cccnc3c2)cn1

>  <Name>  (278) 
nan

>  <Pocket>  (278) 
nan

>  <ATP_Site>  (278) 
nan

>  <Peripheral>  (278) 
nan

>  <Num_H_Atoms_ProtBoundConf>  (278) 
nan

>  <Num_Resolved_Atoms>  (278) 
nan

>  <Num_Not_Resolved_Atoms>  (278) 
nan

$$$$
CHEMBL4472671
     RDKit          3D

  0  0  0  0  0  0  0  0  0  0999 V3000
M  V30 BEGIN CTAB
M  V30 COUNTS 40 43 0 0 0
M  V30 BEGIN ATOM
M  V30 1 C 1.741138 -3.959035 2.939459 0
M  V30 2 C 0.410401 -4.127907 2.296096 0
M  V30 3 O -0.455764 -4.932185 3.019917 0
M  V30 4 C -0.291445 -2.832675 2.125507 0
M  V30 5 C -0.846166 -1.768259 1.993095 0
M  V30 6 C -1.494355 -0.496699 1.814721 0
M  V30 7 C -0.982676 0.447094 0.945046 0
M  V30 8 C -1.555166 1.687518 0.726602 0
M  V30 9 N -0.893532 2.539881 -0.207030 0
M  V30 10 C -1.376768 3.288458 -1.234277 0
M  V30 11 C -0.311426 3.947952 -1.848878 0
M  V30 12 C 0.835803 3.587544 -1.176184 0
M  V30 13 C 2.176904 3.922752 -1.332836 0
M  V30 14 N 3.099820 3.396236 -0.496758 0
M  V30 15 C 2.721553 2.548984 0.485706 0
M  V30 16 N 3.577101 1.925121 1.430011 0
M  V30 17 N 1.420321 2.228680 0.631545 0
M  V30 18 C 0.444191 2.726152 -0.178693 0
M  V30 19 C -2.705169 1.975424 1.431250 0
M  V30 20 F -3.240851 3.200443 1.193461 0
M  V30 21 C -3.220000 1.043027 2.297353 0
M  V30 22 N -2.624579 -0.151156 2.474774 0
M  V30 23 C 0.515469 -4.805900 0.933649 0
M  V30 24 N -0.146734 -5.144144 0.093792 0
M  V30 25 C 0.133539 -5.734336 -1.049934 0
M  V30 26 C 1.472967 -5.980454 -1.252936 0
M  V30 27 S 2.233621 -5.295559 0.317639 0
M  V30 28 H 2.072719 -4.881823 3.435298 0
M  V30 29 H 2.483622 -3.742451 2.118990 0
M  V30 30 H 1.759803 -3.062441 3.590733 0
M  V30 31 H -1.057022 -4.395813 3.563262 0
M  V30 32 H -0.065264 0.145250 0.420370 0
M  V30 33 H -2.417034 3.330293 -1.489042 0
M  V30 34 H -0.347310 4.610389 -2.681622 0
M  V30 35 H 2.480645 4.602322 -2.120772 0
M  V30 36 H 4.156018 1.049015 1.352626 0
M  V30 37 H 3.641002 2.414888 2.346955 0
M  V30 38 H -4.113875 1.328324 2.813146 0
M  V30 39 H -0.729013 -5.957297 -1.699013 0
M  V30 40 H 1.700991 -6.526062 -2.317202 0
M  V30 END ATOM
M  V30 BEGIN BOND
M  V30 1 1 1 2
M  V30 2 1 2 3
M  V30 3 1 2 4
M  V30 4 3 4 5
M  V30 5 1 5 6
M  V30 6 2 6 7
M  V30 7 1 7 8
M  V30 8 1 8 9
M  V30 9 1 9 10
M  V30 10 2 10 11
M  V30 11 1 11 12
M  V30 12 2 12 13
M  V30 13 1 13 14
M  V30 14 2 14 15
M  V30 15 1 15 16
M  V30 16 1 15 17
M  V30 17 2 17 18
M  V30 18 2 8 19
M  V30 19 1 19 20
M  V30 20 1 19 21
M  V30 21 2 21 22
M  V30 22 1 2 23
M  V30 23 2 23 24
M  V30 24 1 24 25
M  V30 25 2 25 26
M  V30 26 1 26 27
M  V30 27 1 22 6
M  V30 28 1 27 23
M  V30 29 1 18 9
M  V30 30 1 18 12
M  V30 31 1 1 28
M  V30 32 1 1 29
M  V30 33 1 1 30
M  V30 34 1 3 31
M  V30 35 1 7 32
M  V30 36 1 10 33
M  V30 37 1 11 34
M  V30 38 1 13 35
M  V30 39 1 16 36
M  V30 40 1 16 37
M  V30 41 1 21 38
M  V30 42 1 25 39
M  V30 43 1 26 40
M  V30 END BOND
M  V30 END CTAB
M  END
>  <Dataset>  (279) 
ChEMBL_Kinases

>  <Ligand_Instance>  (279) 
nan

>  <PDB_ID>  (279) 
nan

>  <Standardized_SMILES>  (279) 
CC(O)(C#Cc1cc(-n2ccc3cnc(N)nc32)c(F)cn1)c1nccs1

>  <Name>  (279) 
nan

>  <Pocket>  (279) 
nan

>  <ATP_Site>  (279) 
nan

>  <Peripheral>  (279) 
nan

>  <Num_H_Atoms_ProtBoundConf>  (279) 
nan

>  <Num_Resolved_Atoms>  (279) 
nan

>  <Num_Not_Resolved_Atoms>  (279) 
nan

$$$$
CHEMBL4472604
     RDKit          3D

  0  0  0  0  0  0  0  0  0  0999 V3000
M  V30 BEGIN CTAB
M  V30 COUNTS 38 40 0 0 0
M  V30 BEGIN ATOM
M  V30 1 C 1.603034 -3.045966 2.263880 0
M  V30 2 S 2.966612 -1.935842 2.480029 0
M  V30 3 O 3.469903 -2.103812 3.897993 0
M  V30 4 O 4.051684 -2.352723 1.537373 0
M  V30 5 C 2.559582 -0.262365 2.173213 0
M  V30 6 C 1.492448 0.294237 3.058888 0
M  V30 7 N 0.257604 -0.431515 2.909247 0
M  V30 8 C -0.409012 -0.409669 1.654128 0
M  V30 9 N 0.059704 0.271396 0.597759 0
M  V30 10 C -0.530550 0.332285 -0.607788 0
M  V30 11 C 0.096969 1.115615 -1.667457 0
M  V30 12 C -0.506049 1.183152 -2.913291 0
M  V30 13 C 0.166536 1.951199 -3.851509 0
M  V30 14 N 1.320292 2.592605 -3.594835 0
M  V30 15 C 1.905366 2.527363 -2.386859 0
M  V30 16 C 1.280246 1.768292 -1.390018 0
M  V30 17 N -1.686525 -0.327304 -0.818656 0
M  V30 18 C -2.267101 -1.058543 0.179594 0
M  V30 19 C -3.449473 -1.744799 -0.004363 0
M  V30 20 N -3.989603 -2.455830 1.008836 0
M  V30 21 C -3.375098 -2.503869 2.221459 0
M  V30 22 C -2.195319 -1.808037 2.374445 0
M  V30 23 C -1.591845 -1.064213 1.382087 0
M  V30 24 H 0.979321 -2.990718 3.174059 0
M  V30 25 H 1.972842 -4.112996 2.255167 0
M  V30 26 H 1.053176 -2.867124 1.317488 0
M  V30 27 H 2.311276 -0.150171 1.095581 0
M  V30 28 H 3.526203 0.318215 2.273777 0
M  V30 29 H 1.352220 1.373110 2.794742 0
M  V30 30 H 1.801530 0.222993 4.133339 0
M  V30 31 H -0.110628 -0.949361 3.731599 0
M  V30 32 H -1.441162 0.668703 -3.136237 0
M  V30 33 H -0.245342 2.056227 -4.865008 0
M  V30 34 H 2.837453 3.041453 -2.168230 0
M  V30 35 H 1.723869 1.692342 -0.401019 0
M  V30 36 H -3.889190 -1.667417 -0.990778 0
M  V30 37 H -3.842834 -3.082849 2.997431 0
M  V30 38 H -1.783420 -1.905198 3.366115 0
M  V30 END ATOM
M  V30 BEGIN BOND
M  V30 1 1 1 2
M  V30 2 2 2 3
M  V30 3 2 2 4
M  V30 4 1 2 5
M  V30 5 1 5 6
M  V30 6 1 6 7
M  V30 7 1 7 8
M  V30 8 2 8 9
M  V30 9 1 9 10
M  V30 10 1 10 11
M  V30 11 2 11 12
M  V30 12 1 12 13
M  V30 13 2 13 14
M  V30 14 1 14 15
M  V30 15 2 15 16
M  V30 16 2 10 17
M  V30 17 1 17 18
M  V30 18 2 18 19
M  V30 19 1 19 20
M  V30 20 2 20 21
M  V30 21 1 21 22
M  V30 22 2 22 23
M  V30 23 1 23 8
M  V30 24 1 16 11
M  V30 25 1 23 18
M  V30 26 1 1 24
M  V30 27 1 1 25
M  V30 28 1 1 26
M  V30 29 1 5 27
M  V30 30 1 5 28
M  V30 31 1 6 29
M  V30 32 1 6 30
M  V30 33 1 7 31
M  V30 34 1 12 32
M  V30 35 1 13 33
M  V30 36 1 15 34
M  V30 37 1 16 35
M  V30 38 1 19 36
M  V30 39 1 21 37
M  V30 40 1 22 38
M  V30 END BOND
M  V30 END CTAB
M  END
>  <Dataset>  (280) 
ChEMBL_Kinases

>  <Ligand_Instance>  (280) 
nan

>  <PDB_ID>  (280) 
nan

>  <Standardized_SMILES>  (280) 
CS(=O)(=O)CCNc1nc(-c2ccncc2)nc2cnccc12

>  <Name>  (280) 
nan

>  <Pocket>  (280) 
nan

>  <ATP_Site>  (280) 
nan

>  <Peripheral>  (280) 
nan

>  <Num_H_Atoms_ProtBoundConf>  (280) 
nan

>  <Num_Resolved_Atoms>  (280) 
nan

>  <Num_Not_Resolved_Atoms>  (280) 
nan

$$$$
CHEMBL4472601
     RDKit          3D

  0  0  0  0  0  0  0  0  0  0999 V3000
M  V30 BEGIN CTAB
M  V30 COUNTS 45 48 0 0 0
M  V30 BEGIN ATOM
M  V30 1 O -0.757803 -3.927759 2.224960 0
M  V30 2 C -0.641964 -2.673691 2.207789 0
M  V30 3 C 0.353109 -1.955457 1.421678 0
M  V30 4 C 1.243785 -2.494105 0.642541 0
M  V30 5 C 2.267533 -1.820694 -0.170471 0
M  V30 6 C 3.156743 -2.535083 -0.957061 0
M  V30 7 N 4.077195 -1.860114 -1.684989 0
M  V30 8 C 4.167796 -0.523986 -1.679135 0
M  V30 9 N 4.987206 0.354795 -2.312281 0
M  V30 10 C 4.656267 1.626769 -1.959631 0
M  V30 11 C 3.589617 1.611861 -1.067540 0
M  V30 12 C 2.898078 2.718028 -0.418473 0
M  V30 13 C 2.514988 3.805729 -1.170648 0
M  V30 14 C 1.860345 4.870289 -0.589598 0
M  V30 15 C 1.548947 4.921984 0.754151 0
M  V30 16 C 1.934692 3.825756 1.513625 0
M  V30 17 C 2.599144 2.744367 0.926587 0
M  V30 18 C 3.311251 0.254676 -0.915699 0
M  V30 19 C 2.376510 -0.443067 -0.177403 0
M  V30 20 N -1.559665 -1.992578 3.019213 0
M  V30 21 C -2.544797 -2.719114 3.796120 0
M  V30 22 C -3.663889 -3.207648 2.951958 0
M  V30 23 C -4.772010 -2.386698 2.769331 0
M  V30 24 C -5.908694 -2.650614 2.028716 0
M  V30 25 C -5.898673 -3.905221 1.406394 0
M  V30 26 C -4.801205 -4.743771 1.574731 0
M  V30 27 N -3.744285 -4.395349 2.314825 0
M  V30 28 H 0.369475 -0.877973 1.477950 0
M  V30 29 H 1.223252 -3.593385 0.590219 0
M  V30 30 H 3.111330 -3.632002 -0.986484 0
M  V30 31 H 5.772472 0.138258 -2.981942 0
M  V30 32 H 5.096581 2.564923 -2.272374 0
M  V30 33 H 2.690803 3.906801 -2.240159 0
M  V30 34 H 1.554235 5.739460 -1.188084 0
M  V30 35 H 1.040040 5.726413 1.255998 0
M  V30 36 H 1.735232 3.765990 2.586474 0
M  V30 37 H 2.877670 1.924467 1.555090 0
M  V30 38 H 1.717408 0.179124 0.409758 0
M  V30 39 H -1.507456 -0.941352 3.043009 0
M  V30 40 H -2.083040 -3.550483 4.366443 0
M  V30 41 H -2.971603 -2.008212 4.530758 0
M  V30 42 H -4.757065 -1.404480 3.269700 0
M  V30 43 H -6.697130 -1.932144 1.965665 0
M  V30 44 H -6.770447 -4.162374 0.810104 0
M  V30 45 H -4.823146 -5.715339 1.078333 0
M  V30 END ATOM
M  V30 BEGIN BOND
M  V30 1 2 1 2
M  V30 2 1 2 3
M  V30 3 2 3 4
M  V30 4 1 4 5
M  V30 5 2 5 6
M  V30 6 1 6 7
M  V30 7 2 7 8
M  V30 8 1 8 9
M  V30 9 1 9 10
M  V30 10 2 10 11
M  V30 11 1 11 12
M  V30 12 2 12 13
M  V30 13 1 13 14
M  V30 14 2 14 15
M  V30 15 1 15 16
M  V30 16 2 16 17
M  V30 17 1 11 18
M  V30 18 2 18 19
M  V30 19 1 2 20
M  V30 20 1 20 21
M  V30 21 1 21 22
M  V30 22 2 22 23
M  V30 23 1 23 24
M  V30 24 2 24 25
M  V30 25 1 25 26
M  V30 26 2 26 27
M  V30 27 1 19 5
M  V30 28 1 27 22
M  V30 29 1 18 8
M  V30 30 1 17 12
M  V30 31 1 3 28
M  V30 32 1 4 29
M  V30 33 1 6 30
M  V30 34 1 9 31
M  V30 35 1 10 32
M  V30 36 1 13 33
M  V30 37 1 14 34
M  V30 38 1 15 35
M  V30 39 1 16 36
M  V30 40 1 17 37
M  V30 41 1 19 38
M  V30 42 1 20 39
M  V30 43 1 21 40
M  V30 44 1 21 41
M  V30 45 1 23 42
M  V30 46 1 24 43
M  V30 47 1 25 44
M  V30 48 1 26 45
M  V30 END BOND
M  V30 END CTAB
M  END
>  <Dataset>  (281) 
ChEMBL_Kinases

>  <Ligand_Instance>  (281) 
nan

>  <PDB_ID>  (281) 
nan

>  <Standardized_SMILES>  (281) 
O=C(/C=C/c1cnc2[nH]cc(-c3ccccc3)c2c1)NCc1ccccn1

>  <Name>  (281) 
nan

>  <Pocket>  (281) 
nan

>  <ATP_Site>  (281) 
nan

>  <Peripheral>  (281) 
nan

>  <Num_H_Atoms_ProtBoundConf>  (281) 
nan

>  <Num_Resolved_Atoms>  (281) 
nan

>  <Num_Not_Resolved_Atoms>  (281) 
nan

$$$$
CHEMBL4472562
     RDKit          3D

  0  0  0  0  0  0  0  0  0  0999 V3000
M  V30 BEGIN CTAB
M  V30 COUNTS 51 55 0 0 0
M  V30 BEGIN ATOM
M  V30 1 O -2.239264 -4.496893 0.771825 0
M  V30 2 C -1.441242 -5.097151 0.013641 0
M  V30 3 N -0.102540 -5.001173 -0.381829 0
M  V30 4 C 0.546899 -3.889945 0.272557 0
M  V30 5 N 1.200007 -3.947551 1.469982 0
M  V30 6 N 1.674383 -2.769812 1.781387 0
M  V30 7 C 1.353546 -1.901761 0.808646 0
M  V30 8 C 1.567488 -0.557818 0.577232 0
M  V30 9 C 1.103208 0.104589 -0.558461 0
M  V30 10 C 1.398037 1.523944 -0.678390 0
M  V30 11 C 1.584434 2.162906 -1.870794 0
M  V30 12 C 1.864107 3.507278 -2.003404 0
M  V30 13 C 1.946698 4.191999 -0.810472 0
M  V30 14 C 1.772341 3.631873 0.462162 0
M  V30 15 N 1.886905 4.499889 1.573515 0
M  V30 16 S 0.907070 4.724007 2.974313 0
M  V30 17 O 1.432247 5.844633 3.826495 0
M  V30 18 O -0.499729 5.123483 2.593533 0
M  V30 19 C 0.802954 3.270008 3.973041 0
M  V30 20 C 0.397372 3.500141 5.429062 0
M  V30 21 C 1.765652 3.087938 5.101910 0
M  V30 22 C 1.497662 2.281554 0.468291 0
M  V30 23 C 0.398423 -0.612789 -1.494006 0
M  V30 24 C 0.154441 -1.974923 -1.308070 0
M  V30 25 C 0.635162 -2.572128 -0.172637 0
M  V30 26 C -2.357768 -6.146964 -0.497576 0
M  V30 27 C -3.758868 -6.050599 0.070028 0
M  V30 28 C -4.267345 -6.407746 -1.311553 0
M  V30 29 C -2.959992 -5.875609 -1.860934 0
M  V30 30 H 0.238499 -5.711047 -1.066222 0
M  V30 31 H 2.212512 -2.547714 2.644690 0
M  V30 32 H 2.139632 -0.060779 1.375528 0
M  V30 33 H 1.505233 1.564095 -2.766954 0
M  V30 34 H 2.013214 4.022146 -2.941933 0
M  V30 35 H 2.168697 5.265525 -0.886511 0
M  V30 36 H 2.752717 5.116794 1.503474 0
M  V30 37 H 0.366243 2.372663 3.495144 0
M  V30 38 H 0.244443 4.543809 5.772758 0
M  V30 39 H -0.297881 2.764118 5.894152 0
M  V30 40 H 2.614787 3.810659 5.174098 0
M  V30 41 H 2.074823 2.037070 5.328683 0
M  V30 42 H 1.362913 1.826904 1.415176 0
M  V30 43 H 0.037757 -0.112830 -2.369405 0
M  V30 44 H -0.393988 -2.571059 -2.018677 0
M  V30 45 H -1.999274 -7.182536 -0.405491 0
M  V30 46 H -3.997048 -6.794030 0.857661 0
M  V30 47 H -4.072085 -5.002775 0.318811 0
M  V30 48 H -4.320563 -7.503714 -1.484007 0
M  V30 49 H -5.178216 -5.860060 -1.624296 0
M  V30 50 H -2.527602 -6.477161 -2.685322 0
M  V30 51 H -2.959396 -4.778163 -2.026195 0
M  V30 END ATOM
M  V30 BEGIN BOND
M  V30 1 2 1 2
M  V30 2 1 2 3
M  V30 3 1 3 4
M  V30 4 2 4 5
M  V30 5 1 5 6
M  V30 6 1 6 7
M  V30 7 2 7 8
M  V30 8 1 8 9
M  V30 9 1 9 10
M  V30 10 2 10 11
M  V30 11 1 11 12
M  V30 12 2 12 13
M  V30 13 1 13 14
M  V30 14 1 14 15
M  V30 15 1 15 16
M  V30 16 2 16 17
M  V30 17 2 16 18
M  V30 18 1 16 19
M  V30 19 1 19 20
M  V30 20 1 20 21
M  V30 21 2 14 22
M  V30 22 2 9 23
M  V30 23 1 23 24
M  V30 24 2 24 25
M  V30 25 1 2 26
M  V30 26 1 26 27
M  V30 27 1 27 28
M  V30 28 1 28 29
M  V30 29 1 25 4
M  V30 30 1 29 26
M  V30 31 1 25 7
M  V30 32 1 22 10
M  V30 33 1 21 19
M  V30 34 1 3 30
M  V30 35 1 6 31
M  V30 36 1 8 32
M  V30 37 1 11 33
M  V30 38 1 12 34
M  V30 39 1 13 35
M  V30 40 1 15 36
M  V30 41 1 19 37
M  V30 42 1 20 38
M  V30 43 1 20 39
M  V30 44 1 21 40
M  V30 45 1 21 41
M  V30 46 1 22 42
M  V30 47 1 23 43
M  V30 48 1 24 44
M  V30 49 1 26 45
M  V30 50 1 27 46
M  V30 51 1 27 47
M  V30 52 1 28 48
M  V30 53 1 28 49
M  V30 54 1 29 50
M  V30 55 1 29 51
M  V30 END BOND
M  V30 END CTAB
M  END
>  <Dataset>  (282) 
ChEMBL_Kinases

>  <Ligand_Instance>  (282) 
nan

>  <PDB_ID>  (282) 
nan

>  <Standardized_SMILES>  (282) 
O=C(Nc1n[nH]c2cc(-c3cccc(NS(=O)(=O)C4CC4)c3)ccc12)C1CCC1

>  <Name>  (282) 
nan

>  <Pocket>  (282) 
nan

>  <ATP_Site>  (282) 
nan

>  <Peripheral>  (282) 
nan

>  <Num_H_Atoms_ProtBoundConf>  (282) 
nan

>  <Num_Resolved_Atoms>  (282) 
nan

>  <Num_Not_Resolved_Atoms>  (282) 
nan

$$$$
CHEMBL4472559
     RDKit          3D

  0  0  0  0  0  0  0  0  0  0999 V3000
M  V30 BEGIN CTAB
M  V30 COUNTS 39 41 0 0 0
M  V30 BEGIN ATOM
M  V30 1 C -0.205116 -1.240006 -2.101286 0
M  V30 2 C -1.316305 -0.355977 -1.577256 0
M  V30 3 C -2.553718 -0.544012 -2.482815 0
M  V30 4 N -1.723479 -0.662288 -0.240437 0
M  V30 5 C -0.783426 -0.677310 0.841270 0
M  V30 6 N 0.527013 -0.424834 0.691348 0
M  V30 7 C 1.448954 -0.428642 1.640045 0
M  V30 8 C 2.844256 -0.136141 1.332865 0
M  V30 9 C 3.291400 0.157891 0.042012 0
M  V30 10 N 4.626545 0.354796 0.238179 0
M  V30 11 N 4.975575 0.205015 1.487072 0
M  V30 12 C 3.892817 -0.105948 2.227590 0
M  V30 13 C 3.831089 -0.363512 3.699550 0
M  V30 14 F 3.359245 -1.642547 3.921313 0
M  V30 15 F 3.012007 0.575531 4.313687 0
M  V30 16 F 5.087838 -0.236657 4.242890 0
M  V30 17 N 1.065786 -0.711285 2.897094 0
M  V30 18 C -0.234162 -0.988117 3.198839 0
M  V30 19 C -0.602935 -1.275320 4.496218 0
M  V30 20 N -1.887511 -1.538697 4.736419 0
M  V30 21 C -2.800284 -1.528829 3.762715 0
M  V30 22 C -2.429511 -1.241659 2.466942 0
M  V30 23 C -1.119024 -0.960029 2.146612 0
M  V30 24 C -0.956328 1.102702 -1.732386 0
M  V30 25 F -0.771820 1.298807 -3.112443 0
M  V30 26 F -2.019084 1.898337 -1.309061 0
M  V30 27 F 0.152572 1.477516 -1.033018 0
M  V30 28 H 0.574478 -0.677509 -2.637136 0
M  V30 29 H 0.221521 -1.801019 -1.223774 0
M  V30 30 H -0.645178 -2.043581 -2.738393 0
M  V30 31 H -2.676088 -1.610863 -2.720056 0
M  V30 32 H -2.457411 0.055736 -3.407974 0
M  V30 33 H -3.441123 -0.212210 -1.870527 0
M  V30 34 H -2.711045 -0.873308 -0.063325 0
M  V30 35 H 2.675984 0.198715 -0.830487 0
M  V30 36 H 5.217684 0.598136 -0.603336 0
M  V30 37 H 0.184641 -1.267246 5.237219 0
M  V30 38 H -3.841444 -1.756881 4.042162 0
M  V30 39 H -3.227449 -1.259560 1.767781 0
M  V30 END ATOM
M  V30 BEGIN BOND
M  V30 1 1 1 2
M  V30 2 1 2 3
M  V30 3 1 2 4
M  V30 4 1 4 5
M  V30 5 2 5 6
M  V30 6 1 6 7
M  V30 7 1 7 8
M  V30 8 2 8 9
M  V30 9 1 9 10
M  V30 10 1 10 11
M  V30 11 2 11 12
M  V30 12 1 12 13
M  V30 13 1 13 14
M  V30 14 1 13 15
M  V30 15 1 13 16
M  V30 16 2 7 17
M  V30 17 1 17 18
M  V30 18 2 18 19
M  V30 19 1 19 20
M  V30 20 2 20 21
M  V30 21 1 21 22
M  V30 22 2 22 23
M  V30 23 1 2 24
M  V30 24 1 24 25
M  V30 25 1 24 26
M  V30 26 1 24 27
M  V30 27 1 23 5
M  V30 28 1 12 8
M  V30 29 1 23 18
M  V30 30 1 1 28
M  V30 31 1 1 29
M  V30 32 1 1 30
M  V30 33 1 3 31
M  V30 34 1 3 32
M  V30 35 1 3 33
M  V30 36 1 4 34
M  V30 37 1 9 35
M  V30 38 1 10 36
M  V30 39 1 19 37
M  V30 40 1 21 38
M  V30 41 1 22 39
M  V30 END BOND
M  V30 END CTAB
M  END
>  <Dataset>  (283) 
ChEMBL_Kinases

>  <Ligand_Instance>  (283) 
nan

>  <PDB_ID>  (283) 
nan

>  <Standardized_SMILES>  (283) 
CC(C)(Nc1nc(-c2c[nH]nc2C(F)(F)F)nc2cnccc12)C(F)(F)F

>  <Name>  (283) 
nan

>  <Pocket>  (283) 
nan

>  <ATP_Site>  (283) 
nan

>  <Peripheral>  (283) 
nan

>  <Num_H_Atoms_ProtBoundConf>  (283) 
nan

>  <Num_Resolved_Atoms>  (283) 
nan

>  <Num_Not_Resolved_Atoms>  (283) 
nan

$$$$
CHEMBL4472515
     RDKit          3D

  0  0  0  0  0  0  0  0  0  0999 V3000
M  V30 BEGIN CTAB
M  V30 COUNTS 60 63 0 0 0
M  V30 BEGIN ATOM
M  V30 1 C 3.541630 -3.002686 1.198497 0
M  V30 2 C 2.847352 -2.880216 2.516188 0
M  V30 3 C 2.014757 -4.120807 2.769694 0
M  V30 4 C 2.078007 -1.639136 2.673376 0
M  V30 5 C 2.606645 -0.456454 3.196716 0
M  V30 6 N 1.626950 0.464633 3.193560 0
M  V30 7 N 0.512772 -0.048115 2.705513 0
M  V30 8 C -0.686204 0.535387 2.545116 0
M  V30 9 N -1.024682 1.883779 2.805710 0
M  V30 10 C -0.280822 3.073205 3.037495 0
M  V30 11 C 0.418056 3.576571 1.819351 0
M  V30 12 C 1.668181 3.410234 1.283416 0
M  V30 13 C 2.026710 4.001295 0.107887 0
M  V30 14 C 1.181822 4.802070 -0.629153 0
M  V30 15 C -0.079157 4.984205 -0.109698 0
M  V30 16 C -0.449235 4.378885 1.095241 0
M  V30 17 C -1.634270 -0.312074 2.014393 0
M  V30 18 C -1.442554 -1.631364 1.659483 0
M  V30 19 N -2.568039 -2.349921 1.113718 0
M  V30 20 C -2.642633 -3.260921 0.016868 0
M  V30 21 C -2.286444 -2.638196 -1.319337 0 CFG=1
M  V30 22 C -0.899715 -2.097724 -1.381922 0
M  V30 23 C -0.560851 -1.546786 -2.721814 0
M  V30 24 C -1.211542 -2.205595 -3.889326 0
M  V30 25 C -1.501898 -3.628837 -3.509342 0
M  V30 26 C -2.474414 -3.705270 -2.370528 0 CFG=2
M  V30 27 O -3.757509 -3.608610 -2.949704 0
M  V30 28 N -0.188645 -2.104654 1.870504 0
M  V30 29 C 0.763901 -1.327942 2.382276 0
M  V30 30 H 3.015745 -2.399429 0.438224 0
M  V30 31 H 3.528194 -4.060307 0.812711 0
M  V30 32 H 4.600034 -2.626317 1.237441 0
M  V30 33 H 3.649199 -2.896612 3.312154 0
M  V30 34 H 1.018118 -4.093204 2.328752 0
M  V30 35 H 2.577770 -4.959327 2.273918 0
M  V30 36 H 1.925418 -4.377435 3.840980 0
M  V30 37 H 3.635544 -0.294121 3.550425 0
M  V30 38 H -2.071165 2.082307 2.843930 0
M  V30 39 H -0.871048 3.839710 3.534961 0
M  V30 40 H 0.568273 2.809777 3.744853 0
M  V30 41 H 2.284313 2.784009 1.900933 0
M  V30 42 H 3.036453 3.807574 -0.229111 0
M  V30 43 H 1.477413 5.266491 -1.563648 0
M  V30 44 H -0.732044 5.618375 -0.706252 0
M  V30 45 H -1.481594 4.642978 1.336605 0
M  V30 46 H -2.644972 0.085010 1.850439 0
M  V30 47 H -3.458558 -2.127647 1.656977 0
M  V30 48 H -2.000663 -4.162627 0.126542 0
M  V30 49 H -3.679728 -3.638816 -0.073157 0
M  V30 50 H -2.977076 -1.768260 -1.526135 0
M  V30 51 H -0.193267 -2.883746 -1.008266 0
M  V30 52 H -0.751432 -1.244020 -0.661463 0
M  V30 53 H 0.555073 -1.589153 -2.846741 0
M  V30 54 H -0.799610 -0.449538 -2.733996 0
M  V30 55 H -0.479922 -2.234584 -4.746458 0
M  V30 56 H -2.106554 -1.678051 -4.261791 0
M  V30 57 H -1.974633 -4.114400 -4.404511 0
M  V30 58 H -0.561167 -4.146613 -3.313147 0
M  V30 59 H -2.387469 -4.734923 -1.922689 0
M  V30 60 H -4.342138 -4.347019 -2.651789 0
M  V30 END ATOM
M  V30 BEGIN BOND
M  V30 1 1 1 2
M  V30 2 1 2 3
M  V30 3 1 2 4
M  V30 4 1 4 5
M  V30 5 2 5 6
M  V30 6 1 6 7
M  V30 7 1 7 8
M  V30 8 1 8 9
M  V30 9 1 9 10
M  V30 10 1 10 11
M  V30 11 2 11 12
M  V30 12 1 12 13
M  V30 13 2 13 14
M  V30 14 1 14 15
M  V30 15 2 15 16
M  V30 16 2 8 17
M  V30 17 1 17 18
M  V30 18 1 18 19
M  V30 19 1 19 20
M  V30 20 1 20 21
M  V30 21 1 21 22
M  V30 22 1 22 23
M  V30 23 1 23 24
M  V30 24 1 24 25
M  V30 25 1 25 26
M  V30 26 1 26 27
M  V30 27 2 18 28
M  V30 28 1 28 29
M  V30 29 2 29 4
M  V30 30 1 29 7
M  V30 31 1 16 11
M  V30 32 1 26 21
M  V30 33 1 1 30
M  V30 34 1 1 31
M  V30 35 1 1 32
M  V30 36 1 2 33
M  V30 37 1 3 34
M  V30 38 1 3 35
M  V30 39 1 3 36
M  V30 40 1 5 37
M  V30 41 1 9 38
M  V30 42 1 10 39
M  V30 43 1 10 40
M  V30 44 1 12 41
M  V30 45 1 13 42
M  V30 46 1 14 43
M  V30 47 1 15 44
M  V30 48 1 16 45
M  V30 49 1 17 46
M  V30 50 1 19 47
M  V30 51 1 20 48
M  V30 52 1 20 49
M  V30 53 1 21 50 CFG=3
M  V30 54 1 22 51
M  V30 55 1 22 52
M  V30 56 1 23 53
M  V30 57 1 23 54
M  V30 58 1 24 55
M  V30 59 1 24 56
M  V30 60 1 25 57
M  V30 61 1 25 58
M  V30 62 1 26 59 CFG=1
M  V30 63 1 27 60
M  V30 END BOND
M  V30 END CTAB
M  END
>  <Dataset>  (284) 
ChEMBL_Kinases

>  <Ligand_Instance>  (284) 
nan

>  <PDB_ID>  (284) 
nan

>  <Standardized_SMILES>  (284) 
CC(C)c1cnn2c(NCc3ccccc3)cc(NC[C@H]3CCCC[C@@H]3O)nc12

>  <Name>  (284) 
nan

>  <Pocket>  (284) 
nan

>  <ATP_Site>  (284) 
nan

>  <Peripheral>  (284) 
nan

>  <Num_H_Atoms_ProtBoundConf>  (284) 
nan

>  <Num_Resolved_Atoms>  (284) 
nan

>  <Num_Not_Resolved_Atoms>  (284) 
nan

$$$$
CHEMBL4472484
     RDKit          3D

  0  0  0  0  0  0  0  0  0  0999 V3000
M  V30 BEGIN CTAB
M  V30 COUNTS 40 43 0 0 0
M  V30 BEGIN ATOM
M  V30 1 C 0.335446 -2.924632 0.518039 0
M  V30 2 C 0.187393 -2.252200 1.863727 0 CFG=1
M  V30 3 N 1.199075 -1.238353 2.058941 0
M  V30 4 C 1.445209 -0.239017 1.044596 0
M  V30 5 N 0.750045 -0.268637 -0.102916 0
M  V30 6 C 1.019791 0.664845 -1.028181 0
M  V30 7 C 0.255919 0.626797 -2.280967 0
M  V30 8 C -0.779561 1.364198 -2.839813 0
M  V30 9 N -1.037737 0.820710 -4.029533 0
M  V30 10 N -0.228414 -0.211568 -4.251164 0
M  V30 11 C 0.586137 -0.363264 -3.192922 0
M  V30 12 N 1.954662 1.651524 -0.892459 0
M  V30 13 C 2.683007 1.716431 0.259532 0
M  V30 14 C 3.638611 2.685512 0.457522 0
M  V30 15 N 4.350103 2.729608 1.612186 0
M  V30 16 C 4.106348 1.797635 2.579885 0
M  V30 17 C 3.142141 0.839411 2.350983 0
M  V30 18 C 2.393776 0.750866 1.199103 0
M  V30 19 C -1.166797 -1.907137 2.258044 0
M  V30 20 C -1.981301 -2.849193 2.910260 0
M  V30 21 C -3.274954 -2.664519 3.347424 0
M  V30 22 C -3.847048 -1.435634 3.132108 0
M  V30 23 C -3.131916 -0.441315 2.500030 0
M  V30 24 C -1.845179 -0.721241 2.099609 0
M  V30 25 H -0.103711 -3.944481 0.613023 0
M  V30 26 H -0.222230 -2.419510 -0.295181 0
M  V30 27 H 1.410937 -3.029162 0.318240 0
M  V30 28 H 0.482470 -3.100124 2.589201 0
M  V30 29 H 1.734702 -1.257307 2.951835 0
M  V30 30 H -1.160533 2.182492 -2.255501 0
M  V30 31 H -0.369320 -0.692573 -5.166755 0
M  V30 32 H 1.292497 -1.185190 -3.272239 0
M  V30 33 H 3.779500 3.395632 -0.356708 0
M  V30 34 H 4.697134 1.872086 3.482427 0
M  V30 35 H 3.037071 0.167502 3.170657 0
M  V30 36 H -1.558864 -3.844039 3.100385 0
M  V30 37 H -3.804786 -3.457243 3.835787 0
M  V30 38 H -4.846724 -1.286781 3.467643 0
M  V30 39 H -3.582993 0.522630 2.332048 0
M  V30 40 H -1.336424 0.096797 1.616932 0
M  V30 END ATOM
M  V30 BEGIN BOND
M  V30 1 1 1 2
M  V30 2 1 2 3
M  V30 3 1 3 4
M  V30 4 2 4 5
M  V30 5 1 5 6
M  V30 6 1 6 7
M  V30 7 1 7 8
M  V30 8 2 8 9
M  V30 9 1 9 10
M  V30 10 1 10 11
M  V30 11 2 6 12
M  V30 12 1 12 13
M  V30 13 2 13 14
M  V30 14 1 14 15
M  V30 15 2 15 16
M  V30 16 1 16 17
M  V30 17 2 17 18
M  V30 18 1 2 19
M  V30 19 2 19 20
M  V30 20 1 20 21
M  V30 21 2 21 22
M  V30 22 1 22 23
M  V30 23 2 23 24
M  V30 24 1 18 4
M  V30 25 1 24 19
M  V30 26 2 11 7
M  V30 27 1 18 13
M  V30 28 1 1 25
M  V30 29 1 1 26
M  V30 30 1 1 27
M  V30 31 1 2 28 CFG=1
M  V30 32 1 3 29
M  V30 33 1 8 30
M  V30 34 1 10 31
M  V30 35 1 11 32
M  V30 36 1 14 33
M  V30 37 1 16 34
M  V30 38 1 17 35
M  V30 39 1 20 36
M  V30 40 1 21 37
M  V30 41 1 22 38
M  V30 42 1 23 39
M  V30 43 1 24 40
M  V30 END BOND
M  V30 END CTAB
M  END
>  <Dataset>  (285) 
ChEMBL_Kinases

>  <Ligand_Instance>  (285) 
nan

>  <PDB_ID>  (285) 
nan

>  <Standardized_SMILES>  (285) 
C[C@@H](Nc1nc(-c2cn[nH]c2)nc2cnccc12)c1ccccc1

>  <Name>  (285) 
nan

>  <Pocket>  (285) 
nan

>  <ATP_Site>  (285) 
nan

>  <Peripheral>  (285) 
nan

>  <Num_H_Atoms_ProtBoundConf>  (285) 
nan

>  <Num_Resolved_Atoms>  (285) 
nan

>  <Num_Not_Resolved_Atoms>  (285) 
nan

$$$$
CHEMBL4472464
     RDKit          3D

  0  0  0  0  0  0  0  0  0  0999 V3000
M  V30 BEGIN CTAB
M  V30 COUNTS 47 51 0 0 0
M  V30 BEGIN ATOM
M  V30 1 F 3.586977 -3.988362 3.291764 0
M  V30 2 C 3.473870 -2.810725 2.631976 0
M  V30 3 C 2.821788 -2.788513 1.421207 0
M  V30 4 C 2.715205 -1.591507 0.763688 0
M  V30 5 C 3.202569 -0.401741 1.204635 0
M  V30 6 N 3.077708 0.845276 0.490794 0
M  V30 7 C 2.381242 0.692994 -0.725090 0
M  V30 8 N 3.168579 0.304770 -1.728704 0
M  V30 9 C 2.723885 0.094261 -2.973467 0
M  V30 10 N 1.395680 0.293127 -3.202530 0
M  V30 11 C 0.582442 0.684526 -2.208129 0
M  V30 12 S -1.209522 1.058331 -2.084670 0
M  V30 13 C -1.217061 1.459333 -0.407289 0
M  V30 14 C 0.124314 1.306977 0.035285 0
M  V30 15 C 1.039257 0.908271 -0.898766 0
M  V30 16 C 0.211659 1.642160 1.476026 0
M  V30 17 C -0.849843 0.774738 2.169430 0
M  V30 18 N -2.148556 1.240924 1.822846 0
M  V30 19 C -3.185679 0.308041 2.125562 0
M  V30 20 C -3.014282 -1.002246 1.449454 0
M  V30 21 C -2.311482 -2.013755 2.111108 0
M  V30 22 C -2.068921 -3.261924 1.625870 0
M  V30 23 C -2.550541 -3.568587 0.377129 0
M  V30 24 C -3.250537 -2.614829 -0.325375 0
M  V30 25 C -3.474300 -1.359585 0.206100 0
M  V30 26 C -2.245424 1.885535 0.557792 0
M  V30 27 C 3.857597 -0.472845 2.439996 0
M  V30 28 Br 4.592308 1.122400 3.179229 0
M  V30 29 C 3.990634 -1.642672 3.135983 0
M  V30 30 H 2.406895 -3.700392 1.007047 0
M  V30 31 H 2.195759 -1.614608 -0.184529 0
M  V30 32 H 3.503268 1.682952 0.944320 0
M  V30 33 H 3.248862 -0.217394 -3.862990 0
M  V30 34 H -0.117029 2.701094 1.651396 0
M  V30 35 H 1.192781 1.533274 1.925012 0
M  V30 36 H -0.736546 0.803333 3.268584 0
M  V30 37 H -0.620896 -0.258098 1.818776 0
M  V30 38 H -3.298180 0.152839 3.231871 0
M  V30 39 H -4.157720 0.762630 1.815015 0
M  V30 40 H -1.914570 -1.806159 3.106676 0
M  V30 41 H -1.512919 -3.992581 2.204675 0
M  V30 42 H -2.357362 -4.557918 -0.008227 0
M  V30 43 H -3.635884 -2.853696 -1.319660 0
M  V30 44 H -4.027614 -0.583633 -0.331328 0
M  V30 45 H -2.264466 2.989356 0.700340 0
M  V30 46 H -3.224843 1.633884 0.103848 0
M  V30 47 H 4.490986 -1.723527 4.088916 0
M  V30 END ATOM
M  V30 BEGIN BOND
M  V30 1 1 1 2
M  V30 2 2 2 3
M  V30 3 1 3 4
M  V30 4 2 4 5
M  V30 5 1 5 6
M  V30 6 1 6 7
M  V30 7 2 7 8
M  V30 8 1 8 9
M  V30 9 2 9 10
M  V30 10 1 10 11
M  V30 11 1 11 12
M  V30 12 1 12 13
M  V30 13 2 13 14
M  V30 14 1 14 15
M  V30 15 1 14 16
M  V30 16 1 16 17
M  V30 17 1 17 18
M  V30 18 1 18 19
M  V30 19 1 19 20
M  V30 20 2 20 21
M  V30 21 1 21 22
M  V30 22 2 22 23
M  V30 23 1 23 24
M  V30 24 2 24 25
M  V30 25 1 18 26
M  V30 26 1 5 27
M  V30 27 1 27 28
M  V30 28 2 27 29
M  V30 29 1 29 2
M  V30 30 1 15 7
M  V30 31 1 25 20
M  V30 32 2 15 11
M  V30 33 1 26 13
M  V30 34 1 3 30
M  V30 35 1 4 31
M  V30 36 1 6 32
M  V30 37 1 9 33
M  V30 38 1 16 34
M  V30 39 1 16 35
M  V30 40 1 17 36
M  V30 41 1 17 37
M  V30 42 1 19 38
M  V30 43 1 19 39
M  V30 44 1 21 40
M  V30 45 1 22 41
M  V30 46 1 23 42
M  V30 47 1 24 43
M  V30 48 1 25 44
M  V30 49 1 26 45
M  V30 50 1 26 46
M  V30 51 1 29 47
M  V30 END BOND
M  V30 END CTAB
M  END
>  <Dataset>  (286) 
ChEMBL_Kinases

>  <Ligand_Instance>  (286) 
nan

>  <PDB_ID>  (286) 
nan

>  <Standardized_SMILES>  (286) 
Fc1ccc(Nc2ncnc3sc4c(c23)CCN(Cc2ccccc2)C4)c(Br)c1

>  <Name>  (286) 
nan

>  <Pocket>  (286) 
nan

>  <ATP_Site>  (286) 
nan

>  <Peripheral>  (286) 
nan

>  <Num_H_Atoms_ProtBoundConf>  (286) 
nan

>  <Num_Resolved_Atoms>  (286) 
nan

>  <Num_Not_Resolved_Atoms>  (286) 
nan

$$$$
CHEMBL4472409
     RDKit          3D

  0  0  0  0  0  0  0  0  0  0999 V3000
M  V30 BEGIN CTAB
M  V30 COUNTS 44 46 0 0 0
M  V30 BEGIN ATOM
M  V30 1 C -0.455083 -3.439072 2.287443 0
M  V30 2 C -0.619480 -2.189016 3.085031 0
M  V30 3 N -0.027742 -1.007779 2.492495 0
M  V30 4 C 0.719420 -0.872391 1.288734 0
M  V30 5 N 0.199044 -0.172709 0.237798 0
M  V30 6 C 0.877166 -0.044125 -0.917796 0
M  V30 7 C 0.378443 0.684548 -2.078673 0
M  V30 8 C 1.115793 0.801409 -3.245071 0
M  V30 9 C 0.679862 1.475367 -4.354638 0
M  V30 10 N -0.523438 2.064206 -4.338769 0
M  V30 11 C -1.312997 1.998824 -3.234657 0
M  V30 12 C -0.848121 1.313042 -2.131211 0
M  V30 13 C -1.730428 1.257547 -0.945971 0
M  V30 14 N 2.088557 -0.619206 -1.028033 0
M  V30 15 C 2.627743 -1.313025 -0.013623 0
M  V30 16 C 3.889837 -1.893406 -0.163641 0
M  V30 17 N 4.441144 -2.587944 0.848460 0
M  V30 18 C 3.797806 -2.744656 2.030863 0
M  V30 19 C 2.550028 -2.176574 2.192490 0
M  V30 20 C 1.961576 -1.461463 1.175166 0
M  V30 21 C -0.331778 0.106232 3.401070 0
M  V30 22 C 0.276086 1.378396 2.852181 0
M  V30 23 C -1.848371 0.207187 3.436844 0
M  V30 24 H -0.057605 -3.250133 1.268313 0
M  V30 25 H -1.389769 -4.044248 2.264077 0
M  V30 26 H 0.281558 -4.099713 2.815615 0
M  V30 27 H -0.196927 -2.328840 4.112209 0
M  V30 28 H -1.719507 -2.053658 3.270597 0
M  V30 29 H 2.104716 0.325944 -3.279086 0
M  V30 30 H 1.321105 1.512641 -5.213146 0
M  V30 31 H -2.299926 2.481234 -3.220239 0
M  V30 32 H -1.933323 0.172699 -0.756886 0
M  V30 33 H -2.700352 1.753034 -1.116158 0
M  V30 34 H -1.264109 1.695499 -0.051067 0
M  V30 35 H 4.408646 -1.773035 -1.101472 0
M  V30 36 H 4.229934 -3.300094 2.852022 0
M  V30 37 H 2.038929 -2.288859 3.116729 0
M  V30 38 H 0.086029 -0.078776 4.410883 0
M  V30 39 H -0.395273 1.931149 2.163725 0
M  V30 40 H 1.258346 1.164107 2.353287 0
M  V30 41 H 0.483952 2.048001 3.737989 0
M  V30 42 H -2.337686 -0.200731 2.539830 0
M  V30 43 H -2.243293 -0.377977 4.308999 0
M  V30 44 H -2.182627 1.275543 3.524874 0
M  V30 END ATOM
M  V30 BEGIN BOND
M  V30 1 1 1 2
M  V30 2 1 2 3
M  V30 3 1 3 4
M  V30 4 2 4 5
M  V30 5 1 5 6
M  V30 6 1 6 7
M  V30 7 2 7 8
M  V30 8 1 8 9
M  V30 9 2 9 10
M  V30 10 1 10 11
M  V30 11 2 11 12
M  V30 12 1 12 13
M  V30 13 2 6 14
M  V30 14 1 14 15
M  V30 15 2 15 16
M  V30 16 1 16 17
M  V30 17 2 17 18
M  V30 18 1 18 19
M  V30 19 2 19 20
M  V30 20 1 3 21
M  V30 21 1 21 22
M  V30 22 1 21 23
M  V30 23 1 20 4
M  V30 24 1 12 7
M  V30 25 1 20 15
M  V30 26 1 1 24
M  V30 27 1 1 25
M  V30 28 1 1 26
M  V30 29 1 2 27
M  V30 30 1 2 28
M  V30 31 1 8 29
M  V30 32 1 9 30
M  V30 33 1 11 31
M  V30 34 1 13 32
M  V30 35 1 13 33
M  V30 36 1 13 34
M  V30 37 1 16 35
M  V30 38 1 18 36
M  V30 39 1 19 37
M  V30 40 1 21 38
M  V30 41 1 22 39
M  V30 42 1 22 40
M  V30 43 1 22 41
M  V30 44 1 23 42
M  V30 45 1 23 43
M  V30 46 1 23 44
M  V30 END BOND
M  V30 END CTAB
M  END
>  <Dataset>  (287) 
ChEMBL_Kinases

>  <Ligand_Instance>  (287) 
nan

>  <PDB_ID>  (287) 
nan

>  <Standardized_SMILES>  (287) 
CCN(c1nc(-c2ccncc2C)nc2cnccc12)C(C)C

>  <Name>  (287) 
nan

>  <Pocket>  (287) 
nan

>  <ATP_Site>  (287) 
nan

>  <Peripheral>  (287) 
nan

>  <Num_H_Atoms_ProtBoundConf>  (287) 
nan

>  <Num_Resolved_Atoms>  (287) 
nan

>  <Num_Not_Resolved_Atoms>  (287) 
nan

$$$$
CHEMBL4472306
     RDKit          3D

  0  0  0  0  0  0  0  0  0  0999 V3000
M  V30 BEGIN CTAB
M  V30 COUNTS 41 43 0 0 0
M  V30 BEGIN ATOM
M  V30 1 C -0.755852 -2.637002 3.226023 0
M  V30 2 C -1.179677 -3.373104 1.996677 0
M  V30 3 C -1.704303 -2.419084 0.897269 0
M  V30 4 C -2.067698 -3.396189 -0.236890 0
M  V30 5 C -3.056135 -1.836837 1.301722 0
M  V30 6 N -0.702138 -1.490718 0.576363 0
M  V30 7 C 0.319337 -0.542935 0.253022 0
M  V30 8 N 0.867487 0.357465 1.081897 0
M  V30 9 C 1.816177 1.235896 0.804194 0
M  V30 10 C 2.314412 2.157184 1.816638 0
M  V30 11 C 3.300343 3.011665 1.381477 0
M  V30 12 C 3.806742 3.912612 2.321212 0
M  V30 13 N 3.308508 3.896684 3.588120 0
M  V30 14 C 2.335920 3.030076 3.957757 0
M  V30 15 C 1.781514 2.100646 3.072239 0
M  V30 16 N 2.230151 1.166900 -0.456293 0
M  V30 17 C 1.788375 0.331520 -1.401128 0
M  V30 18 C 2.383563 0.457049 -2.652123 0
M  V30 19 N 1.928512 -0.391378 -3.600630 0
M  V30 20 C 0.959793 -1.294322 -3.333427 0
M  V30 21 C 0.411651 -1.368352 -2.075957 0
M  V30 22 C 0.799762 -0.554037 -1.036713 0
M  V30 23 H -1.481312 -1.806490 3.469473 0
M  V30 24 H -0.819795 -3.323550 4.096787 0
M  V30 25 H 0.291859 -2.256347 3.197324 0
M  V30 26 H -1.957040 -4.100838 2.288964 0
M  V30 27 H -0.326963 -3.954911 1.600949 0
M  V30 28 H -1.157517 -3.930836 -0.574479 0
M  V30 29 H -2.644035 -2.913641 -1.034757 0
M  V30 30 H -2.722683 -4.145720 0.253073 0
M  V30 31 H -3.582306 -2.448571 2.050677 0
M  V30 32 H -2.963150 -0.819450 1.732102 0
M  V30 33 H -3.758935 -1.793262 0.423967 0
M  V30 34 H -0.864015 -1.195231 1.588438 0
M  V30 35 H 3.670404 2.987857 0.350819 0
M  V30 36 H 4.585842 4.611997 2.038147 0
M  V30 37 H 1.990099 3.077922 4.985343 0
M  V30 38 H 1.010885 1.416532 3.371499 0
M  V30 39 H 3.155827 1.194002 -2.821878 0
M  V30 40 H 0.590143 -1.972050 -4.075103 0
M  V30 41 H -0.350915 -2.077199 -1.867714 0
M  V30 END ATOM
M  V30 BEGIN BOND
M  V30 1 1 1 2
M  V30 2 1 2 3
M  V30 3 1 3 4
M  V30 4 1 3 5
M  V30 5 1 3 6
M  V30 6 1 6 7
M  V30 7 2 7 8
M  V30 8 1 8 9
M  V30 9 1 9 10
M  V30 10 2 10 11
M  V30 11 1 11 12
M  V30 12 2 12 13
M  V30 13 1 13 14
M  V30 14 2 14 15
M  V30 15 2 9 16
M  V30 16 1 16 17
M  V30 17 2 17 18
M  V30 18 1 18 19
M  V30 19 2 19 20
M  V30 20 1 20 21
M  V30 21 2 21 22
M  V30 22 1 22 7
M  V30 23 1 15 10
M  V30 24 1 22 17
M  V30 25 1 1 23
M  V30 26 1 1 24
M  V30 27 1 1 25
M  V30 28 1 2 26
M  V30 29 1 2 27
M  V30 30 1 4 28
M  V30 31 1 4 29
M  V30 32 1 4 30
M  V30 33 1 5 31
M  V30 34 1 5 32
M  V30 35 1 5 33
M  V30 36 1 6 34
M  V30 37 1 11 35
M  V30 38 1 12 36
M  V30 39 1 14 37
M  V30 40 1 15 38
M  V30 41 1 18 39
M  V30 42 1 20 40
M  V30 43 1 21 41
M  V30 END BOND
M  V30 END CTAB
M  END
>  <Dataset>  (288) 
ChEMBL_Kinases

>  <Ligand_Instance>  (288) 
nan

>  <PDB_ID>  (288) 
nan

>  <Standardized_SMILES>  (288) 
CCC(C)(C)Nc1nc(-c2ccncc2)nc2cnccc12

>  <Name>  (288) 
nan

>  <Pocket>  (288) 
nan

>  <ATP_Site>  (288) 
nan

>  <Peripheral>  (288) 
nan

>  <Num_H_Atoms_ProtBoundConf>  (288) 
nan

>  <Num_Resolved_Atoms>  (288) 
nan

>  <Num_Not_Resolved_Atoms>  (288) 
nan

$$$$
CHEMBL469822
     RDKit          3D

  0  0  0  0  0  0  0  0  0  0999 V3000
M  V30 BEGIN CTAB
M  V30 COUNTS 65 70 0 0 0
M  V30 BEGIN ATOM
M  V30 1 O 4.115551 3.389862 3.431449 0
M  V30 2 C 3.806668 2.331364 2.828069 0
M  V30 3 N 4.587164 1.437057 2.038596 0
M  V30 4 C 3.766038 0.379625 1.573539 0
M  V30 5 O 4.338726 -0.465653 0.871522 0
M  V30 6 C 2.433486 0.559597 2.048055 0
M  V30 7 C 2.466420 1.717126 2.789985 0
M  V30 8 C 1.298410 2.176703 3.402736 0
M  V30 9 C 1.231362 3.394638 4.205252 0
M  V30 10 C 0.915977 4.551385 3.479436 0
M  V30 11 C 0.845381 5.729773 4.230123 0
M  V30 12 C 1.069888 5.740471 5.577339 0
M  V30 13 C 1.379060 4.585065 6.270076 0
M  V30 14 C 1.461539 3.381333 5.564082 0
M  V30 15 Cl 1.848530 1.898750 6.400990 0
M  V30 16 C 0.117736 1.470832 3.263088 0
M  V30 17 C 0.119307 0.311893 2.510822 0
M  V30 18 C 1.274572 -0.137324 1.908259 0
M  V30 19 C 0.997692 -1.289002 1.233720 0
M  V30 20 C -0.346709 -1.484650 1.467803 0
M  V30 21 N -0.910145 -0.518693 2.247658 0
M  V30 22 C -2.257462 -0.391943 2.690897 0
M  V30 23 C -3.136370 0.396822 1.756913 0
M  V30 24 O -2.686795 1.698393 1.568433 0
M  V30 25 C -0.989831 -2.519581 0.954870 0
M  V30 26 C -0.418449 -3.600342 0.081267 0
M  V30 27 O -1.058574 -3.409322 -1.153055 0
M  V30 28 C -1.825546 -4.471370 -1.567340 0
M  V30 29 C -2.439353 -4.037061 -2.908740 0
M  V30 30 C -1.366560 -3.724728 -3.921881 0
M  V30 31 N -1.967037 -3.309225 -5.170868 0
M  V30 32 C -2.378163 -3.943264 -6.299333 0
M  V30 33 C -2.893425 -3.043022 -7.200488 0
M  V30 34 C -2.809014 -1.791608 -6.628770 0
M  V30 35 C -2.238512 -2.001889 -5.392857 0
M  V30 36 C 1.044001 -3.400342 -0.149516 0
M  V30 37 O 1.749469 -4.548682 0.281859 0
M  V30 38 O 1.348323 -3.303356 -1.516523 0
M  V30 39 C 1.579208 -2.180552 0.499671 0
M  V30 40 H 5.610139 1.658270 1.906962 0
M  V30 41 H 0.740152 4.520455 2.410128 0
M  V30 42 H 0.600826 6.642796 3.680283 0
M  V30 43 H 0.996012 6.706972 6.095250 0
M  V30 44 H 1.547322 4.639525 7.329235 0
M  V30 45 H -0.797908 1.824724 3.740815 0
M  V30 46 H -2.689809 -1.432539 2.694345 0
M  V30 47 H -2.345036 -0.027497 3.713836 0
M  V30 48 H -3.280137 -0.126250 0.779867 0
M  V30 49 H -4.149918 0.459893 2.203608 0
M  V30 50 H -2.930497 1.964937 0.648091 0
M  V30 51 H -2.029122 -2.704856 1.113233 0
M  V30 52 H -0.642453 -4.576349 0.518643 0
M  V30 53 H -1.262762 -5.391870 -1.807546 0
M  V30 54 H -2.638786 -4.700731 -0.873619 0
M  V30 55 H -3.034560 -3.119984 -2.741948 0
M  V30 56 H -3.075818 -4.843271 -3.325009 0
M  V30 57 H -0.675450 -2.968072 -3.552125 0
M  V30 58 H -0.723822 -4.633205 -4.122182 0
M  V30 59 H -2.231935 -5.030540 -6.296136 0
M  V30 60 H -3.274842 -3.372998 -8.169455 0
M  V30 61 H -3.149935 -0.902853 -7.134335 0
M  V30 62 H -2.058776 -1.147662 -4.723470 0
M  V30 63 H 1.775158 -5.233400 -0.445544 0
M  V30 64 H 2.355479 -3.294307 -1.584954 0
M  V30 65 H 2.612852 -2.098072 0.279677 0
M  V30 END ATOM
M  V30 BEGIN BOND
M  V30 1 2 1 2
M  V30 2 1 2 3
M  V30 3 1 3 4
M  V30 4 2 4 5
M  V30 5 1 4 6
M  V30 6 2 6 7
M  V30 7 1 7 8
M  V30 8 1 8 9
M  V30 9 2 9 10
M  V30 10 1 10 11
M  V30 11 2 11 12
M  V30 12 1 12 13
M  V30 13 2 13 14
M  V30 14 1 14 15
M  V30 15 2 8 16
M  V30 16 1 16 17
M  V30 17 2 17 18
M  V30 18 1 18 19
M  V30 19 1 19 20
M  V30 20 1 20 21
M  V30 21 1 21 22
M  V30 22 1 22 23
M  V30 23 1 23 24
M  V30 24 2 20 25
M  V30 25 1 25 26
M  V30 26 1 26 27
M  V30 27 1 27 28
M  V30 28 1 28 29
M  V30 29 1 29 30
M  V30 30 1 30 31
M  V30 31 1 31 32
M  V30 32 2 32 33
M  V30 33 1 33 34
M  V30 34 2 34 35
M  V30 35 1 26 36
M  V30 36 1 36 37
M  V30 37 1 36 38
M  V30 38 1 36 39
M  V30 39 1 7 2
M  V30 40 1 14 9
M  V30 41 1 21 17
M  V30 42 1 35 31
M  V30 43 1 18 6
M  V30 44 2 39 19
M  V30 45 1 3 40
M  V30 46 1 10 41
M  V30 47 1 11 42
M  V30 48 1 12 43
M  V30 49 1 13 44
M  V30 50 1 16 45
M  V30 51 1 22 46
M  V30 52 1 22 47
M  V30 53 1 23 48
M  V30 54 1 23 49
M  V30 55 1 24 50
M  V30 56 1 25 51
M  V30 57 1 26 52
M  V30 58 1 28 53
M  V30 59 1 28 54
M  V30 60 1 29 55
M  V30 61 1 29 56
M  V30 62 1 30 57
M  V30 63 1 30 58
M  V30 64 1 32 59
M  V30 65 1 33 60
M  V30 66 1 34 61
M  V30 67 1 35 62
M  V30 68 1 37 63
M  V30 69 1 38 64
M  V30 70 1 39 65
M  V30 END BOND
M  V30 END CTAB
M  END
>  <Dataset>  (289) 
ChEMBL_Kinases

>  <Ligand_Instance>  (289) 
nan

>  <PDB_ID>  (289) 
nan

>  <Standardized_SMILES>  (289) 
O=C1NC(=O)c2c1c(-c1ccccc1Cl)cc1c2c2c(n1CCO)=CC(OCCCn1cccc1)C(O)(O)C=2

>  <Name>  (289) 
nan

>  <Pocket>  (289) 
nan

>  <ATP_Site>  (289) 
nan

>  <Peripheral>  (289) 
nan

>  <Num_H_Atoms_ProtBoundConf>  (289) 
nan

>  <Num_Resolved_Atoms>  (289) 
nan

>  <Num_Not_Resolved_Atoms>  (289) 
nan

$$$$
CHEMBL4472277
     RDKit          3D

  0  0  0  0  0  0  0  0  0  0999 V3000
M  V30 BEGIN CTAB
M  V30 COUNTS 55 59 0 0 0
M  V30 BEGIN ATOM
M  V30 1 O 1.615617 -5.061004 0.702119 0
M  V30 2 C 1.371596 -3.832111 0.909913 0
M  V30 3 C 2.594811 -3.015882 0.723562 0
M  V30 4 N 2.287687 -1.638221 0.962393 0
M  V30 5 C 3.437458 -0.825261 0.796191 0
M  V30 6 O 4.535770 -1.385381 0.475414 0
M  V30 7 C 3.485829 0.621115 0.960495 0
M  V30 8 C 4.683653 1.280044 0.791241 0
M  V30 9 N 4.796197 2.613600 0.927339 0
M  V30 10 C 3.729095 3.370016 1.238696 0
M  V30 11 N 3.538058 4.698596 1.437188 0
M  V30 12 C 2.226517 4.921388 1.735307 0
M  V30 13 C 1.531982 3.738216 1.737447 0
M  V30 14 C 0.110290 3.558291 2.008026 0
M  V30 15 C -0.558851 4.170886 3.073813 0
M  V30 16 C -1.913523 3.959586 3.274850 0
M  V30 17 N -2.643939 3.169335 2.471595 0
M  V30 18 C -2.019311 2.572180 1.442625 0
M  V30 19 C -0.673804 2.754649 1.205946 0
M  V30 20 C 2.482080 2.787554 1.427156 0
M  V30 21 C 2.409728 1.419371 1.278702 0
M  V30 22 N 0.051870 -3.447933 1.266223 0
M  V30 23 C -1.004508 -4.412418 1.395544 0
M  V30 24 C -1.299887 -5.189357 0.149725 0
M  V30 25 C -1.710124 -4.338479 -0.980327 0
M  V30 26 C -0.882269 -4.018815 -2.051140 0
M  V30 27 N -1.580161 -3.232949 -2.884622 0
M  V30 28 C -2.824911 -3.027231 -2.403824 0
M  V30 29 C -3.882871 -2.284536 -2.929055 0
M  V30 30 C -5.047214 -2.280102 -2.169591 0
M  V30 31 C -5.159199 -2.961806 -0.974404 0
M  V30 32 C -4.080097 -3.696642 -0.476120 0
M  V30 33 C -2.914773 -3.711225 -1.219417 0
M  V30 34 H 3.360579 -3.424241 1.401068 0
M  V30 35 H 2.971346 -3.198167 -0.304455 0
M  V30 36 H 1.457354 -1.069472 1.223431 0
M  V30 37 H 5.608138 0.772010 0.539114 0
M  V30 38 H 4.267646 5.434576 1.374248 0
M  V30 39 H 1.747570 5.876612 1.948864 0
M  V30 40 H 0.054695 4.799754 3.701737 0
M  V30 41 H -2.348870 4.470587 4.120025 0
M  V30 42 H -2.667375 1.942501 0.826610 0
M  V30 43 H -0.276733 2.235682 0.363653 0
M  V30 44 H 1.450525 0.950910 1.421395 0
M  V30 45 H -0.039283 -2.420294 1.413754 0
M  V30 46 H -1.922042 -3.896977 1.708834 0
M  V30 47 H -0.785311 -5.172087 2.194593 0
M  V30 48 H -0.488253 -5.888781 -0.126950 0
M  V30 49 H -2.175789 -5.836752 0.387544 0
M  V30 50 H 0.148108 -4.365342 -2.159100 0
M  V30 51 H -1.194030 -2.835505 -3.792520 0
M  V30 52 H -3.781160 -1.760941 -3.857143 0
M  V30 53 H -5.851395 -1.701911 -2.591273 0
M  V30 54 H -6.113658 -2.903076 -0.442471 0
M  V30 55 H -4.169777 -4.225494 0.453277 0
M  V30 END ATOM
M  V30 BEGIN BOND
M  V30 1 2 1 2
M  V30 2 1 2 3
M  V30 3 1 3 4
M  V30 4 1 4 5
M  V30 5 2 5 6
M  V30 6 1 5 7
M  V30 7 2 7 8
M  V30 8 1 8 9
M  V30 9 2 9 10
M  V30 10 1 10 11
M  V30 11 1 11 12
M  V30 12 2 12 13
M  V30 13 1 13 14
M  V30 14 2 14 15
M  V30 15 1 15 16
M  V30 16 2 16 17
M  V30 17 1 17 18
M  V30 18 2 18 19
M  V30 19 1 13 20
M  V30 20 2 20 21
M  V30 21 1 2 22
M  V30 22 1 22 23
M  V30 23 1 23 24
M  V30 24 1 24 25
M  V30 25 2 25 26
M  V30 26 1 26 27
M  V30 27 1 27 28
M  V30 28 2 28 29
M  V30 29 1 29 30
M  V30 30 2 30 31
M  V30 31 1 31 32
M  V30 32 2 32 33
M  V30 33 1 21 7
M  V30 34 1 33 25
M  V30 35 1 20 10
M  V30 36 1 33 28
M  V30 37 1 19 14
M  V30 38 1 3 34
M  V30 39 1 3 35
M  V30 40 1 4 36
M  V30 41 1 8 37
M  V30 42 1 11 38
M  V30 43 1 12 39
M  V30 44 1 15 40
M  V30 45 1 16 41
M  V30 46 1 18 42
M  V30 47 1 19 43
M  V30 48 1 21 44
M  V30 49 1 22 45
M  V30 50 1 23 46
M  V30 51 1 23 47
M  V30 52 1 24 48
M  V30 53 1 24 49
M  V30 54 1 26 50
M  V30 55 1 27 51
M  V30 56 1 29 52
M  V30 57 1 30 53
M  V30 58 1 31 54
M  V30 59 1 32 55
M  V30 END BOND
M  V30 END CTAB
M  END
>  <Dataset>  (290) 
ChEMBL_Kinases

>  <Ligand_Instance>  (290) 
nan

>  <PDB_ID>  (290) 
nan

>  <Standardized_SMILES>  (290) 
O=C(CNC(=O)c1cnc2[nH]cc(-c3ccncc3)c2c1)NCCc1c[nH]c2ccccc12

>  <Name>  (290) 
nan

>  <Pocket>  (290) 
nan

>  <ATP_Site>  (290) 
nan

>  <Peripheral>  (290) 
nan

>  <Num_H_Atoms_ProtBoundConf>  (290) 
nan

>  <Num_Resolved_Atoms>  (290) 
nan

>  <Num_Not_Resolved_Atoms>  (290) 
nan

$$$$
CHEMBL4472237
     RDKit          3D

  0  0  0  0  0  0  0  0  0  0999 V3000
M  V30 BEGIN CTAB
M  V30 COUNTS 52 56 0 0 0
M  V30 BEGIN ATOM
M  V30 1 C 7.770134 0.046165 1.214680 0
M  V30 2 N 7.499001 -1.068360 0.371080 0
M  V30 3 N 8.439617 -1.878577 -0.146347 0
M  V30 4 N 7.796791 -2.766539 -0.855011 0
M  V30 5 N 6.508978 -2.543660 -0.799711 0
M  V30 6 C 6.284182 -1.450643 -0.013351 0
M  V30 7 N 4.956751 -1.021069 0.191783 0
M  V30 8 C 4.395714 0.045565 0.933235 0
M  V30 9 N 4.995364 0.971487 1.669374 0
M  V30 10 C 4.451302 1.962171 2.355937 0
M  V30 11 C 3.084946 2.065893 2.316180 0
M  V30 12 C 2.382211 1.152031 1.580161 0
M  V30 13 C 0.929930 1.145563 1.451317 0
M  V30 14 C 0.111173 2.067691 2.063647 0
M  V30 15 C -1.267089 2.078374 1.953519 0
M  V30 16 C -1.849592 1.105395 1.183564 0
M  V30 17 C -1.088999 0.144558 0.537537 0
M  V30 18 C 0.283562 0.193638 0.691442 0
M  V30 19 C -2.041396 -0.705128 -0.175010 0
M  V30 20 O -1.610809 -1.658311 -0.843221 0
M  V30 21 N -3.381191 -0.250389 0.044976 0
M  V30 22 C -4.576252 -0.835304 -0.505387 0
M  V30 23 C -4.651372 -0.801085 -2.006706 0
M  V30 24 O -3.597563 -1.505769 -2.534059 0
M  V30 25 C -4.779126 -2.234167 -0.059041 0
M  V30 26 C -5.107807 -3.367409 -0.771696 0
M  V30 27 C -5.251280 -4.583894 -0.143713 0
M  V30 28 C -5.083099 -4.758316 1.201490 0
M  V30 29 C -4.750854 -3.638313 1.954363 0
M  V30 30 Cl -4.540547 -3.875181 3.661952 0
M  V30 31 C -4.604748 -2.403145 1.319988 0
M  V30 32 C -3.293505 0.912176 0.918911 0
M  V30 33 N 3.076528 0.212613 0.944369 0
M  V30 34 H 8.904264 0.102705 1.331243 0
M  V30 35 H 7.541196 1.041418 0.768932 0
M  V30 36 H 7.423215 -0.054029 2.264527 0
M  V30 37 H 4.201104 -1.600296 -0.300997 0
M  V30 38 H 5.081012 2.643678 2.913835 0
M  V30 39 H 2.582035 2.846884 2.851132 0
M  V30 40 H 0.578098 2.826955 2.665395 0
M  V30 41 H -1.845671 2.846780 2.472646 0
M  V30 42 H 0.877033 -0.556679 0.187040 0
M  V30 43 H -5.455117 -0.238689 -0.118035 0
M  V30 44 H -4.721906 0.237570 -2.402159 0
M  V30 45 H -5.596192 -1.288025 -2.312714 0
M  V30 46 H -3.782158 -1.998152 -3.354769 0
M  V30 47 H -5.230169 -3.196777 -1.822567 0
M  V30 48 H -5.510842 -5.422924 -0.778623 0
M  V30 49 H -5.201880 -5.722002 1.664867 0
M  V30 50 H -4.350954 -1.636971 2.011417 0
M  V30 51 H -3.717206 1.813680 0.431723 0
M  V30 52 H -3.902477 0.700269 1.804544 0
M  V30 END ATOM
M  V30 BEGIN BOND
M  V30 1 1 1 2
M  V30 2 1 2 3
M  V30 3 2 3 4
M  V30 4 1 4 5
M  V30 5 2 5 6
M  V30 6 1 6 7
M  V30 7 1 7 8
M  V30 8 2 8 9
M  V30 9 1 9 10
M  V30 10 2 10 11
M  V30 11 1 11 12
M  V30 12 1 12 13
M  V30 13 2 13 14
M  V30 14 1 14 15
M  V30 15 2 15 16
M  V30 16 1 16 17
M  V30 17 2 17 18
M  V30 18 1 17 19
M  V30 19 2 19 20
M  V30 20 1 19 21
M  V30 21 1 21 22
M  V30 22 1 22 23
M  V30 23 1 23 24
M  V30 24 1 22 25
M  V30 25 2 25 26
M  V30 26 1 26 27
M  V30 27 2 27 28
M  V30 28 1 28 29
M  V30 29 1 29 30
M  V30 30 2 29 31
M  V30 31 1 21 32
M  V30 32 2 12 33
M  V30 33 1 6 2
M  V30 34 1 33 8
M  V30 35 1 18 13
M  V30 36 1 31 25
M  V30 37 1 32 16
M  V30 38 1 1 34
M  V30 39 1 1 35
M  V30 40 1 1 36
M  V30 41 1 7 37
M  V30 42 1 10 38
M  V30 43 1 11 39
M  V30 44 1 14 40
M  V30 45 1 15 41
M  V30 46 1 18 42
M  V30 47 1 22 43
M  V30 48 1 23 44
M  V30 49 1 23 45
M  V30 50 1 24 46
M  V30 51 1 26 47
M  V30 52 1 27 48
M  V30 53 1 28 49
M  V30 54 1 31 50
M  V30 55 1 32 51
M  V30 56 1 32 52
M  V30 END BOND
M  V30 END CTAB
M  END
>  <Dataset>  (291) 
ChEMBL_Kinases

>  <Ligand_Instance>  (291) 
nan

>  <PDB_ID>  (291) 
nan

>  <Standardized_SMILES>  (291) 
Cn1nnnc1Nc1nccc(-c2ccc3c(c2)C(=O)N(C(CO)c2cccc(Cl)c2)C3)n1

>  <Name>  (291) 
nan

>  <Pocket>  (291) 
nan

>  <ATP_Site>  (291) 
nan

>  <Peripheral>  (291) 
nan

>  <Num_H_Atoms_ProtBoundConf>  (291) 
nan

>  <Num_Resolved_Atoms>  (291) 
nan

>  <Num_Not_Resolved_Atoms>  (291) 
nan

$$$$
CHEMBL4472226
     RDKit          3D

  0  0  0  0  0  0  0  0  0  0999 V3000
M  V30 BEGIN CTAB
M  V30 COUNTS 47 50 0 0 0
M  V30 BEGIN ATOM
M  V30 1 N 0.263148 -3.912222 6.220155 0
M  V30 2 C 0.769058 -3.442118 5.301769 0
M  V30 3 C 1.419470 -2.865685 4.170384 0
M  V30 4 N 2.743084 -2.999743 4.036715 0
M  V30 5 C 3.426928 -2.485175 2.999473 0
M  V30 6 C 2.705393 -1.795946 2.050531 0
M  V30 7 N 3.413659 -1.245505 0.946378 0
M  V30 8 C 2.943376 -0.493685 -0.168347 0
M  V30 9 N 2.909888 0.848206 -0.039170 0
M  V30 10 C 2.483834 1.659527 -1.027730 0
M  V30 11 C 2.058895 1.096824 -2.235746 0
M  V30 12 C 1.601860 2.010603 -3.288941 0
M  V30 13 C 1.736034 1.762360 -4.650236 0
M  V30 14 C 1.265560 2.701079 -5.558591 0
M  V30 15 C 0.668858 3.872394 -5.106511 0
M  V30 16 N 0.529563 4.131152 -3.777757 0
M  V30 17 C 0.993715 3.205230 -2.897145 0
M  V30 18 C 2.095024 -0.279415 -2.363527 0
M  V30 19 N 2.530528 -1.039392 -1.341801 0
M  V30 20 C 1.318590 -1.666041 2.208083 0
M  V30 21 C 0.604753 -2.204627 3.293211 0
M  V30 22 O -0.684213 -1.922513 3.172004 0
M  V30 23 C -1.808563 -2.184947 3.907689 0
M  V30 24 C -2.505916 -0.882907 4.305791 0
M  V30 25 C -3.221136 -0.293935 3.105319 0
M  V30 26 C -4.479616 -1.147078 2.920383 0
M  V30 27 N -4.181226 -2.492780 3.372227 0
M  V30 28 C -2.847860 -2.904825 3.030998 0
M  V30 29 H 4.476238 -2.655070 2.998977 0
M  V30 30 H 4.428991 -1.354932 0.849331 0
M  V30 31 H 2.483659 2.728122 -0.855426 0
M  V30 32 H 2.208158 0.834688 -4.940269 0
M  V30 33 H 1.372031 2.503860 -6.619610 0
M  V30 34 H 0.298222 4.611770 -5.805201 0
M  V30 35 H 0.847898 3.480311 -1.863323 0
M  V30 36 H 1.766852 -0.713691 -3.296072 0
M  V30 37 H 0.900642 -1.099286 1.380852 0
M  V30 38 H -1.661949 -2.761674 4.818870 0
M  V30 39 H -1.712991 -0.208254 4.622363 0
M  V30 40 H -3.236650 -1.027904 5.108218 0
M  V30 41 H -2.582463 -0.342774 2.202599 0
M  V30 42 H -3.485570 0.747012 3.370107 0
M  V30 43 H -4.841156 -1.110812 1.887138 0
M  V30 44 H -5.244826 -0.708557 3.593728 0
M  V30 45 H -4.835514 -3.126184 2.863010 0
M  V30 46 H -2.598356 -2.791017 1.954490 0
M  V30 47 H -2.745816 -3.978713 3.266207 0
M  V30 END ATOM
M  V30 BEGIN BOND
M  V30 1 3 1 2
M  V30 2 1 2 3
M  V30 3 2 3 4
M  V30 4 1 4 5
M  V30 5 2 5 6
M  V30 6 1 6 7
M  V30 7 1 7 8
M  V30 8 2 8 9
M  V30 9 1 9 10
M  V30 10 2 10 11
M  V30 11 1 11 12
M  V30 12 2 12 13
M  V30 13 1 13 14
M  V30 14 2 14 15
M  V30 15 1 15 16
M  V30 16 2 16 17
M  V30 17 1 11 18
M  V30 18 2 18 19
M  V30 19 1 6 20
M  V30 20 2 20 21
M  V30 21 1 21 22
M  V30 22 1 22 23
M  V30 23 1 23 24
M  V30 24 1 24 25
M  V30 25 1 25 26
M  V30 26 1 26 27
M  V30 27 1 27 28
M  V30 28 1 21 3
M  V30 29 1 28 23
M  V30 30 1 19 8
M  V30 31 1 17 12
M  V30 32 1 5 29
M  V30 33 1 7 30
M  V30 34 1 10 31
M  V30 35 1 13 32
M  V30 36 1 14 33
M  V30 37 1 15 34
M  V30 38 1 17 35
M  V30 39 1 18 36
M  V30 40 1 20 37
M  V30 41 1 23 38
M  V30 42 1 24 39
M  V30 43 1 24 40
M  V30 44 1 25 41
M  V30 45 1 25 42
M  V30 46 1 26 43
M  V30 47 1 26 44
M  V30 48 1 27 45
M  V30 49 1 28 46
M  V30 50 1 28 47
M  V30 END BOND
M  V30 END CTAB
M  END
>  <Dataset>  (292) 
ChEMBL_Kinases

>  <Ligand_Instance>  (292) 
nan

>  <PDB_ID>  (292) 
nan

>  <Standardized_SMILES>  (292) 
N#Cc1ncc(Nc2ncc(-c3cccnc3)cn2)cc1OC1CCCNC1

>  <Name>  (292) 
nan

>  <Pocket>  (292) 
nan

>  <ATP_Site>  (292) 
nan

>  <Peripheral>  (292) 
nan

>  <Num_H_Atoms_ProtBoundConf>  (292) 
nan

>  <Num_Resolved_Atoms>  (292) 
nan

>  <Num_Not_Resolved_Atoms>  (292) 
nan

$$$$
CHEMBL4472173
     RDKit          3D

  0  0  0  0  0  0  0  0  0  0999 V3000
M  V30 BEGIN CTAB
M  V30 COUNTS 42 45 0 0 0
M  V30 BEGIN ATOM
M  V30 1 N 2.595808 -4.877901 0.055248 0
M  V30 2 C 2.240758 -3.922273 1.075313 0
M  V30 3 O 2.660401 -4.645755 1.981945 0
M  V30 4 C 1.615534 -2.650477 0.732970 0
M  V30 5 C 1.373026 -2.379394 -0.594824 0
M  V30 6 C 0.782752 -1.160113 -0.809633 0
M  V30 7 C 0.490440 -0.797750 -2.214728 0
M  V30 8 C -0.575008 -0.003370 -2.582871 0
M  V30 9 C -0.825339 0.319084 -3.898313 0
M  V30 10 C 0.020828 -0.170199 -4.887032 0
M  V30 11 C 1.102559 -0.971017 -4.564617 0
M  V30 12 C 1.333512 -1.282829 -3.221489 0
M  V30 13 C 0.455812 -0.275996 0.197035 0
M  V30 14 C 0.720770 -0.597995 1.508891 0
M  V30 15 C 0.496923 0.096431 2.680876 0
M  V30 16 C -0.123335 1.444672 2.817149 0
M  V30 17 C -1.624332 1.356633 2.978488 0
M  V30 18 C -1.751258 1.085522 4.454923 0
M  V30 19 C -0.768343 2.045484 5.045229 0
M  V30 20 O -0.613944 2.715211 6.062900 0
M  V30 21 C 0.329946 2.180938 4.034372 0
M  V30 22 C 0.971555 -0.734679 3.659584 0
M  V30 23 N 1.454948 -1.866183 3.117143 0
M  V30 24 C 1.315652 -1.814576 1.791346 0
M  V30 25 H 1.927534 -5.539053 -0.414702 0
M  V30 26 H 3.501115 -5.142489 -0.435504 0
M  V30 27 H 1.646316 -3.100261 -1.339891 0
M  V30 28 H -1.183637 0.337015 -1.767203 0
M  V30 29 H -1.678380 0.947013 -4.120386 0
M  V30 30 H -0.233538 0.122990 -5.911607 0
M  V30 31 H 1.741454 -1.335327 -5.356877 0
M  V30 32 H 2.174161 -1.906360 -2.959242 0
M  V30 33 H -0.006328 0.661621 -0.062654 0
M  V30 34 H 0.038313 2.048081 1.878555 0
M  V30 35 H -2.080586 0.526775 2.409269 0
M  V30 36 H -2.067743 2.334473 2.696333 0
M  V30 37 H -1.404157 0.020239 4.588836 0
M  V30 38 H -2.775173 1.234045 4.854546 0
M  V30 39 H 1.307807 1.860615 4.442636 0
M  V30 40 H 0.427681 3.254603 3.741996 0
M  V30 41 H 0.976359 -0.547594 4.723163 0
M  V30 42 H 1.874028 -2.662397 3.644541 0
M  V30 END ATOM
M  V30 BEGIN BOND
M  V30 1 1 1 2
M  V30 2 2 2 3
M  V30 3 1 2 4
M  V30 4 2 4 5
M  V30 5 1 5 6
M  V30 6 1 6 7
M  V30 7 2 7 8
M  V30 8 1 8 9
M  V30 9 2 9 10
M  V30 10 1 10 11
M  V30 11 2 11 12
M  V30 12 2 6 13
M  V30 13 1 13 14
M  V30 14 1 14 15
M  V30 15 1 15 16
M  V30 16 1 16 17
M  V30 17 1 17 18
M  V30 18 1 18 19
M  V30 19 2 19 20
M  V30 20 1 19 21
M  V30 21 2 15 22
M  V30 22 1 22 23
M  V30 23 1 23 24
M  V30 24 1 24 4
M  V30 25 1 12 7
M  V30 26 2 24 14
M  V30 27 1 21 16
M  V30 28 1 1 25
M  V30 29 1 1 26
M  V30 30 1 5 27
M  V30 31 1 8 28
M  V30 32 1 9 29
M  V30 33 1 10 30
M  V30 34 1 11 31
M  V30 35 1 12 32
M  V30 36 1 13 33
M  V30 37 1 16 34
M  V30 38 1 17 35
M  V30 39 1 17 36
M  V30 40 1 18 37
M  V30 41 1 18 38
M  V30 42 1 21 39
M  V30 43 1 21 40
M  V30 44 1 22 41
M  V30 45 1 23 42
M  V30 END BOND
M  V30 END CTAB
M  END
>  <Dataset>  (293) 
ChEMBL_Kinases

>  <Ligand_Instance>  (293) 
nan

>  <PDB_ID>  (293) 
nan

>  <Standardized_SMILES>  (293) 
NC(=O)c1cc(-c2ccccc2)cc2c(C3CCC(=O)C3)c[nH]c12

>  <Name>  (293) 
nan

>  <Pocket>  (293) 
nan

>  <ATP_Site>  (293) 
nan

>  <Peripheral>  (293) 
nan

>  <Num_H_Atoms_ProtBoundConf>  (293) 
nan

>  <Num_Resolved_Atoms>  (293) 
nan

>  <Num_Not_Resolved_Atoms>  (293) 
nan

$$$$
CHEMBL4472042
     RDKit          3D

  0  0  0  0  0  0  0  0  0  0999 V3000
M  V30 BEGIN CTAB
M  V30 COUNTS 50 53 0 0 0
M  V30 BEGIN ATOM
M  V30 1 C -5.840609 -5.197739 -3.800732 0
M  V30 2 C -4.912908 -4.732335 -2.727851 0
M  V30 3 C -4.813812 -3.364148 -2.543971 0
M  V30 4 C -3.981923 -2.848776 -1.576881 0
M  V30 5 C -3.235555 -3.718546 -0.779301 0
M  V30 6 C -2.375450 -3.120231 0.223157 0
M  V30 7 C -2.056462 -3.685939 1.426454 0
M  V30 8 N -1.246551 -3.087808 2.332632 0
M  V30 9 C -0.701654 -1.874369 2.085602 0
M  V30 10 N 0.150172 -1.231584 3.025250 0
M  V30 11 C -0.958254 -1.226517 0.913931 0
M  V30 12 N -0.452833 0.039487 0.533102 0
M  V30 13 C -0.951332 1.333275 0.724781 0
M  V30 14 O -2.040928 1.451777 1.340247 0
M  V30 15 C -0.281799 2.537203 0.254009 0
M  V30 16 C -0.888629 3.745266 0.525516 0
M  V30 17 C -0.222261 4.860081 0.061681 0
M  V30 18 N 0.936559 4.810319 -0.610074 0
M  V30 19 C 1.546969 3.649233 -0.886961 0
M  V30 20 N 2.767185 3.695887 -1.601361 0
M  V30 21 C 3.612275 2.639774 -2.023375 0
M  V30 22 O 3.285632 1.459911 -1.754059 0
M  V30 23 C 4.878541 2.823464 -2.773808 0
M  V30 24 C 5.988049 1.789972 -2.531335 0
M  V30 25 C 5.211600 1.760185 -3.795957 0
M  V30 26 C 0.907008 2.530786 -0.438193 0
M  V30 27 C -1.795335 -1.870678 0.004860 0
M  V30 28 C -3.319254 -5.084027 -0.945580 0
M  V30 29 C -4.167018 -5.572837 -1.929128 0
M  V30 30 H -6.113604 -6.268762 -3.639804 0
M  V30 31 H -5.430923 -5.088881 -4.810479 0
M  V30 32 H -6.806806 -4.628254 -3.786610 0
M  V30 33 H -5.405070 -2.683112 -3.176251 0
M  V30 34 H -3.955640 -1.777636 -1.490822 0
M  V30 35 H -2.483280 -4.669760 1.654515 0
M  V30 36 H 0.853348 -0.522850 2.715013 0
M  V30 37 H 0.244344 -1.312932 4.059990 0
M  V30 38 H 0.445217 -0.130178 0.031735 0
M  V30 39 H -1.808462 3.904210 1.050707 0
M  V30 40 H -0.633798 5.835399 0.235368 0
M  V30 41 H 3.159363 4.617694 -1.891605 0
M  V30 42 H 5.199604 3.853227 -3.029730 0
M  V30 43 H 5.767100 1.086346 -1.702649 0
M  V30 44 H 7.023865 2.185890 -2.500021 0
M  V30 45 H 5.770265 2.042648 -4.714306 0
M  V30 46 H 4.523553 0.895948 -3.895909 0
M  V30 47 H 1.325875 1.572679 -0.616971 0
M  V30 48 H -2.028719 -1.382253 -0.953922 0
M  V30 49 H -2.742932 -5.750601 -0.329346 0
M  V30 50 H -4.260032 -6.636166 -2.090074 0
M  V30 END ATOM
M  V30 BEGIN BOND
M  V30 1 1 1 2
M  V30 2 2 2 3
M  V30 3 1 3 4
M  V30 4 2 4 5
M  V30 5 1 5 6
M  V30 6 2 6 7
M  V30 7 1 7 8
M  V30 8 2 8 9
M  V30 9 1 9 10
M  V30 10 1 9 11
M  V30 11 1 11 12
M  V30 12 1 12 13
M  V30 13 2 13 14
M  V30 14 1 13 15
M  V30 15 2 15 16
M  V30 16 1 16 17
M  V30 17 2 17 18
M  V30 18 1 18 19
M  V30 19 1 19 20
M  V30 20 1 20 21
M  V30 21 2 21 22
M  V30 22 1 21 23
M  V30 23 1 23 24
M  V30 24 1 24 25
M  V30 25 2 19 26
M  V30 26 2 11 27
M  V30 27 1 5 28
M  V30 28 2 28 29
M  V30 29 1 29 2
M  V30 30 1 27 6
M  V30 31 1 26 15
M  V30 32 1 25 23
M  V30 33 1 1 30
M  V30 34 1 1 31
M  V30 35 1 1 32
M  V30 36 1 3 33
M  V30 37 1 4 34
M  V30 38 1 7 35
M  V30 39 1 10 36
M  V30 40 1 10 37
M  V30 41 1 12 38
M  V30 42 1 16 39
M  V30 43 1 17 40
M  V30 44 1 20 41
M  V30 45 1 23 42
M  V30 46 1 24 43
M  V30 47 1 24 44
M  V30 48 1 25 45
M  V30 49 1 25 46
M  V30 50 1 26 47
M  V30 51 1 27 48
M  V30 52 1 28 49
M  V30 53 1 29 50
M  V30 END BOND
M  V30 END CTAB
M  END
>  <Dataset>  (294) 
ChEMBL_Kinases

>  <Ligand_Instance>  (294) 
nan

>  <PDB_ID>  (294) 
nan

>  <Standardized_SMILES>  (294) 
Cc1ccc(-c2cnc(N)c(NC(=O)c3ccnc(NC(=O)C4CC4)c3)c2)cc1

>  <Name>  (294) 
nan

>  <Pocket>  (294) 
nan

>  <ATP_Site>  (294) 
nan

>  <Peripheral>  (294) 
nan

>  <Num_H_Atoms_ProtBoundConf>  (294) 
nan

>  <Num_Resolved_Atoms>  (294) 
nan

>  <Num_Not_Resolved_Atoms>  (294) 
nan

$$$$
CHEMBL4472021
     RDKit          3D

  0  0  0  0  0  0  0  0  0  0999 V3000
M  V30 BEGIN CTAB
M  V30 COUNTS 46 48 0 0 0
M  V30 BEGIN ATOM
M  V30 1 C -0.952126 -3.635547 -0.141331 0
M  V30 2 N -0.571168 -2.315345 0.339188 0
M  V30 3 C -0.114071 -2.430757 1.686309 0
M  V30 4 C 0.320356 -1.140228 2.331157 0
M  V30 5 C 0.791429 -1.363430 3.766990 0
M  V30 6 C -0.334885 -1.955990 4.611747 0
M  V30 7 C 1.095346 -0.000387 4.349741 0
M  V30 8 N 1.970534 -2.202360 3.810952 0
M  V30 9 C -0.617947 -1.074637 -0.355963 0
M  V30 10 N 0.568319 -0.425843 -0.502513 0
M  V30 11 C 0.666091 0.756910 -1.139633 0
M  V30 12 C 1.928820 1.469395 -1.307683 0
M  V30 13 C 3.098545 0.910119 -0.788496 0
M  V30 14 C 4.232286 1.668766 -1.005201 0
M  V30 15 N 4.289558 2.852057 -1.649861 0
M  V30 16 C 3.150148 3.392991 -2.153461 0
M  V30 17 C 2.004868 2.684942 -1.966831 0
M  V30 18 N -0.447722 1.321614 -1.651762 0
M  V30 19 C -1.653472 0.728178 -1.539347 0
M  V30 20 C -2.825250 1.276000 -2.052525 0
M  V30 21 N -3.986718 0.614645 -1.894591 0
M  V30 22 C -4.070652 -0.570385 -1.253730 0
M  V30 23 C -2.944191 -1.170028 -0.719986 0
M  V30 24 C -1.753308 -0.489029 -0.883523 0
M  V30 25 H -1.764253 -4.096104 0.478892 0
M  V30 26 H -1.341015 -3.621712 -1.168206 0
M  V30 27 H -0.111421 -4.357864 -0.115065 0
M  V30 28 H 0.816360 -3.071449 1.675593 0
M  V30 29 H -0.829192 -2.980636 2.331109 0
M  V30 30 H 1.206542 -0.725871 1.808294 0
M  V30 31 H -0.445405 -0.370565 2.370890 0
M  V30 32 H -1.287747 -1.679978 4.158451 0
M  V30 33 H -0.302816 -1.507185 5.640389 0
M  V30 34 H -0.186544 -3.055560 4.720415 0
M  V30 35 H 0.188664 0.446566 4.834003 0
M  V30 36 H 1.378662 0.678594 3.525921 0
M  V30 37 H 1.961246 -0.026163 5.041082 0
M  V30 38 H 2.410997 -2.050867 4.745235 0
M  V30 39 H 1.653223 -3.208079 3.777319 0
M  V30 40 H 3.133185 -0.017212 -0.269025 0
M  V30 41 H 5.191387 1.286369 -0.621667 0
M  V30 42 H 3.073166 4.326326 -2.683824 0
M  V30 43 H 1.055383 3.065235 -2.347492 0
M  V30 44 H -2.764409 2.228916 -2.569054 0
M  V30 45 H -5.018962 -1.077886 -1.142752 0
M  V30 46 H -2.973546 -2.132991 -0.192254 0
M  V30 END ATOM
M  V30 BEGIN BOND
M  V30 1 1 1 2
M  V30 2 1 2 3
M  V30 3 1 3 4
M  V30 4 1 4 5
M  V30 5 1 5 6
M  V30 6 1 5 7
M  V30 7 1 5 8
M  V30 8 1 2 9
M  V30 9 2 9 10
M  V30 10 1 10 11
M  V30 11 1 11 12
M  V30 12 2 12 13
M  V30 13 1 13 14
M  V30 14 2 14 15
M  V30 15 1 15 16
M  V30 16 2 16 17
M  V30 17 2 11 18
M  V30 18 1 18 19
M  V30 19 2 19 20
M  V30 20 1 20 21
M  V30 21 2 21 22
M  V30 22 1 22 23
M  V30 23 2 23 24
M  V30 24 1 24 9
M  V30 25 1 17 12
M  V30 26 1 24 19
M  V30 27 1 1 25
M  V30 28 1 1 26
M  V30 29 1 1 27
M  V30 30 1 3 28
M  V30 31 1 3 29
M  V30 32 1 4 30
M  V30 33 1 4 31
M  V30 34 1 6 32
M  V30 35 1 6 33
M  V30 36 1 6 34
M  V30 37 1 7 35
M  V30 38 1 7 36
M  V30 39 1 7 37
M  V30 40 1 8 38
M  V30 41 1 8 39
M  V30 42 1 13 40
M  V30 43 1 14 41
M  V30 44 1 16 42
M  V30 45 1 17 43
M  V30 46 1 20 44
M  V30 47 1 22 45
M  V30 48 1 23 46
M  V30 END BOND
M  V30 END CTAB
M  END
>  <Dataset>  (295) 
ChEMBL_Kinases

>  <Ligand_Instance>  (295) 
nan

>  <PDB_ID>  (295) 
nan

>  <Standardized_SMILES>  (295) 
CN(CCC(C)(C)N)c1nc(-c2ccncc2)nc2cnccc12

>  <Name>  (295) 
nan

>  <Pocket>  (295) 
nan

>  <ATP_Site>  (295) 
nan

>  <Peripheral>  (295) 
nan

>  <Num_H_Atoms_ProtBoundConf>  (295) 
nan

>  <Num_Resolved_Atoms>  (295) 
nan

>  <Num_Not_Resolved_Atoms>  (295) 
nan

$$$$
CHEMBL4472003
     RDKit          3D

  0  0  0  0  0  0  0  0  0  0999 V3000
M  V30 BEGIN CTAB
M  V30 COUNTS 34 37 0 0 0
M  V30 BEGIN ATOM
M  V30 1 C -3.919938 -0.643527 1.820065 0
M  V30 2 C -2.583227 -0.642045 1.092382 0
M  V30 3 N -1.434238 -0.094858 1.782446 0
M  V30 4 C -0.112559 -0.097448 1.272714 0
M  V30 5 N 0.251230 -0.612441 0.095087 0
M  V30 6 C 1.497869 -0.621805 -0.399311 0
M  V30 7 C 1.757697 -1.220394 -1.705938 0
M  V30 8 C 2.055924 -0.715855 -2.966722 0
M  V30 9 N 2.196241 -1.757358 -3.816380 0
M  V30 10 N 1.996206 -2.889740 -3.129925 0
M  V30 11 C 1.725629 -2.588685 -1.833866 0
M  V30 12 N 2.506588 -0.070650 0.327752 0
M  V30 13 C 2.236195 0.483097 1.547982 0
M  V30 14 C 3.252554 1.043810 2.292044 0
M  V30 15 N 3.021920 1.593114 3.488841 0
M  V30 16 C 1.758774 1.601420 3.987551 0
M  V30 17 C 0.763581 1.032893 3.219621 0
M  V30 18 C 0.928322 0.451191 1.982502 0
M  V30 19 C -2.596554 -0.481359 -0.385407 0
M  V30 20 C -2.386314 -1.833706 0.179773 0
M  V30 21 H -3.779924 -0.172114 2.814337 0
M  V30 22 H -4.202053 -1.694084 1.989545 0
M  V30 23 H -4.724615 -0.174060 1.219069 0
M  V30 24 H -1.676365 0.308644 2.706270 0
M  V30 25 H 2.131671 0.368078 -3.095275 0
M  V30 26 H 2.102286 -3.719519 -3.780784 0
M  V30 27 H 1.550748 -3.448213 -1.207566 0
M  V30 28 H 4.256239 1.011371 1.843626 0
M  V30 29 H 1.610593 2.045552 4.940622 0
M  V30 30 H -0.199746 1.083950 3.691060 0
M  V30 31 H -3.593992 -0.239996 -0.838794 0
M  V30 32 H -1.760547 0.012016 -0.891989 0
M  V30 33 H -1.399346 -2.314274 0.164771 0
M  V30 34 H -3.232454 -2.546489 0.052141 0
M  V30 END ATOM
M  V30 BEGIN BOND
M  V30 1 1 1 2
M  V30 2 1 2 3
M  V30 3 1 3 4
M  V30 4 2 4 5
M  V30 5 1 5 6
M  V30 6 1 6 7
M  V30 7 1 7 8
M  V30 8 2 8 9
M  V30 9 1 9 10
M  V30 10 1 10 11
M  V30 11 2 6 12
M  V30 12 1 12 13
M  V30 13 2 13 14
M  V30 14 1 14 15
M  V30 15 2 15 16
M  V30 16 1 16 17
M  V30 17 2 17 18
M  V30 18 1 2 19
M  V30 19 1 19 20
M  V30 20 1 20 2
M  V30 21 1 18 4
M  V30 22 2 11 7
M  V30 23 1 18 13
M  V30 24 1 1 21
M  V30 25 1 1 22
M  V30 26 1 1 23
M  V30 27 1 3 24
M  V30 28 1 8 25
M  V30 29 1 10 26
M  V30 30 1 11 27
M  V30 31 1 14 28
M  V30 32 1 16 29
M  V30 33 1 17 30
M  V30 34 1 19 31
M  V30 35 1 19 32
M  V30 36 1 20 33
M  V30 37 1 20 34
M  V30 END BOND
M  V30 END CTAB
M  END
>  <Dataset>  (296) 
ChEMBL_Kinases

>  <Ligand_Instance>  (296) 
nan

>  <PDB_ID>  (296) 
nan

>  <Standardized_SMILES>  (296) 
CC1(Nc2nc(-c3cn[nH]c3)nc3cnccc23)CC1

>  <Name>  (296) 
nan

>  <Pocket>  (296) 
nan

>  <ATP_Site>  (296) 
nan

>  <Peripheral>  (296) 
nan

>  <Num_H_Atoms_ProtBoundConf>  (296) 
nan

>  <Num_Resolved_Atoms>  (296) 
nan

>  <Num_Not_Resolved_Atoms>  (296) 
nan

$$$$
CHEMBL4471995
     RDKit          3D

  0  0  0  0  0  0  0  0  0  0999 V3000
M  V30 BEGIN CTAB
M  V30 COUNTS 42 44 0 0 0
M  V30 BEGIN ATOM
M  V30 1 C 0.548262 -5.797960 2.171007 0
M  V30 2 O 0.341149 -4.432242 1.968005 0
M  V30 3 C 1.483986 -3.775181 1.574836 0
M  V30 4 C 1.250417 -2.299778 1.358057 0
M  V30 5 C 2.542123 -1.611825 0.953492 0
M  V30 6 C 0.801123 -1.737329 2.689234 0
M  V30 7 N 0.244118 -2.128094 0.320704 0
M  V30 8 C -0.126179 -0.807344 -0.034468 0
M  V30 9 N 0.434950 0.254662 0.570519 0
M  V30 10 C 0.134260 1.534558 0.287641 0
M  V30 11 C 0.766187 2.659253 0.969001 0
M  V30 12 C 1.718231 2.521913 1.957929 0
M  V30 13 C 2.314124 3.588065 2.601272 0
M  V30 14 N 1.965038 4.847173 2.264235 0
M  V30 15 C 1.040917 5.038811 1.305563 0
M  V30 16 C 0.447485 3.967843 0.664673 0
M  V30 17 N -0.779856 1.802362 -0.653340 0
M  V30 18 C -1.417372 0.804655 -1.336026 0
M  V30 19 C -2.360829 1.075166 -2.307329 0
M  V30 20 N -2.967875 0.042087 -2.959247 0
M  V30 21 C -2.638886 -1.240564 -2.647081 0
M  V30 22 C -1.693495 -1.469922 -1.672850 0
M  V30 23 C -1.046658 -0.475016 -0.980562 0
M  V30 24 H 1.316688 -5.978273 2.965708 0
M  V30 25 H -0.416072 -6.207295 2.538668 0
M  V30 26 H 0.812684 -6.346230 1.265189 0
M  V30 27 H 1.980764 -4.243715 0.702496 0
M  V30 28 H 2.214995 -3.887385 2.421722 0
M  V30 29 H 3.382104 -2.277243 1.286798 0
M  V30 30 H 2.568444 -1.455910 -0.149951 0
M  V30 31 H 2.604315 -0.663997 1.491644 0
M  V30 32 H 1.727868 -1.373070 3.219069 0
M  V30 33 H 0.088350 -0.912738 2.613373 0
M  V30 34 H 0.426204 -2.550235 3.369943 0
M  V30 35 H -0.158919 -2.980153 -0.114243 0
M  V30 36 H 2.025445 1.531630 2.257495 0
M  V30 37 H 3.060315 3.422069 3.375107 0
M  V30 38 H 0.740371 6.042930 1.013724 0
M  V30 39 H -0.295032 4.146015 -0.105105 0
M  V30 40 H -2.577728 2.117324 -2.508749 0
M  V30 41 H -3.141482 -2.035585 -3.185481 0
M  V30 42 H -1.495643 -2.501976 -1.490960 0
M  V30 END ATOM
M  V30 BEGIN BOND
M  V30 1 1 1 2
M  V30 2 1 2 3
M  V30 3 1 3 4
M  V30 4 1 4 5
M  V30 5 1 4 6
M  V30 6 1 4 7
M  V30 7 1 7 8
M  V30 8 2 8 9
M  V30 9 1 9 10
M  V30 10 1 10 11
M  V30 11 2 11 12
M  V30 12 1 12 13
M  V30 13 2 13 14
M  V30 14 1 14 15
M  V30 15 2 15 16
M  V30 16 2 10 17
M  V30 17 1 17 18
M  V30 18 2 18 19
M  V30 19 1 19 20
M  V30 20 2 20 21
M  V30 21 1 21 22
M  V30 22 2 22 23
M  V30 23 1 23 8
M  V30 24 1 16 11
M  V30 25 1 23 18
M  V30 26 1 1 24
M  V30 27 1 1 25
M  V30 28 1 1 26
M  V30 29 1 3 27
M  V30 30 1 3 28
M  V30 31 1 5 29
M  V30 32 1 5 30
M  V30 33 1 5 31
M  V30 34 1 6 32
M  V30 35 1 6 33
M  V30 36 1 6 34
M  V30 37 1 7 35
M  V30 38 1 12 36
M  V30 39 1 13 37
M  V30 40 1 15 38
M  V30 41 1 16 39
M  V30 42 1 19 40
M  V30 43 1 21 41
M  V30 44 1 22 42
M  V30 END BOND
M  V30 END CTAB
M  END
>  <Dataset>  (297) 
ChEMBL_Kinases

>  <Ligand_Instance>  (297) 
nan

>  <PDB_ID>  (297) 
nan

>  <Standardized_SMILES>  (297) 
COCC(C)(C)Nc1nc(-c2ccncc2)nc2cnccc12

>  <Name>  (297) 
nan

>  <Pocket>  (297) 
nan

>  <ATP_Site>  (297) 
nan

>  <Peripheral>  (297) 
nan

>  <Num_H_Atoms_ProtBoundConf>  (297) 
nan

>  <Num_Resolved_Atoms>  (297) 
nan

>  <Num_Not_Resolved_Atoms>  (297) 
nan

$$$$
CHEMBL4471970
     RDKit          3D

  0  0  0  0  0  0  0  0  0  0999 V3000
M  V30 BEGIN CTAB
M  V30 COUNTS 41 44 0 0 0
M  V30 BEGIN ATOM
M  V30 1 C 0.044676 -5.822319 0.042876 0
M  V30 2 O 1.305503 -5.339366 0.486208 0
M  V30 3 C 1.565057 -3.990954 0.248509 0
M  V30 4 C 2.800871 -3.576401 0.702173 0
M  V30 5 C 3.198002 -2.266813 0.537489 0
M  V30 6 C 2.321239 -1.395316 -0.092865 0
M  V30 7 C 1.094660 -1.790139 -0.547166 0
M  V30 8 N 0.197182 -0.868148 -1.202625 0
M  V30 9 C 0.652166 0.455420 -1.243016 0
M  V30 10 N 1.514907 0.769593 -2.212732 0
M  V30 11 C 2.064768 1.948411 -2.439467 0
M  V30 12 N 1.702405 2.921855 -1.590897 0
M  V30 13 C 0.843861 2.717592 -0.582770 0
M  V30 14 S 0.115832 3.757542 0.747290 0
M  V30 15 C -0.849798 2.493877 1.463424 0
M  V30 16 C -0.599453 1.336060 0.688850 0
M  V30 17 C 0.262852 1.429577 -0.360180 0
M  V30 18 C -1.406291 0.237987 1.259108 0
M  V30 19 C -1.175996 0.135738 2.737912 0
M  V30 20 N -1.402035 1.356131 3.452743 0
M  V30 21 C -0.401839 1.678053 4.426099 0
M  V30 22 C -1.766511 2.467289 2.604365 0
M  V30 23 C 0.737747 -3.104195 -0.362702 0
M  V30 24 H -0.128581 -6.868386 0.350636 0
M  V30 25 H -0.717051 -5.122934 0.448160 0
M  V30 26 H 0.004732 -5.744703 -1.061819 0
M  V30 27 H 3.510775 -4.244201 1.201404 0
M  V30 28 H 4.169394 -1.893613 0.883164 0
M  V30 29 H 2.635464 -0.363982 -0.222802 0
M  V30 30 H -0.698322 -1.247574 -1.586844 0
M  V30 31 H 2.760652 2.267878 -3.194285 0
M  V30 32 H -2.505329 0.428738 1.132375 0
M  V30 33 H -1.231694 -0.742959 0.801079 0
M  V30 34 H -1.810740 -0.670550 3.152048 0
M  V30 35 H -0.124801 -0.178557 2.898059 0
M  V30 36 H 0.099953 2.619572 4.157385 0
M  V30 37 H -0.948788 1.869985 5.383671 0
M  V30 38 H 0.315289 0.856513 4.586338 0
M  V30 39 H -1.562647 3.380452 3.201545 0
M  V30 40 H -2.828255 2.500249 2.350693 0
M  V30 41 H -0.207021 -3.493451 -0.688347 0
M  V30 END ATOM
M  V30 BEGIN BOND
M  V30 1 1 1 2
M  V30 2 1 2 3
M  V30 3 2 3 4
M  V30 4 1 4 5
M  V30 5 2 5 6
M  V30 6 1 6 7
M  V30 7 1 7 8
M  V30 8 1 8 9
M  V30 9 2 9 10
M  V30 10 1 10 11
M  V30 11 2 11 12
M  V30 12 1 12 13
M  V30 13 1 13 14
M  V30 14 1 14 15
M  V30 15 2 15 16
M  V30 16 1 16 17
M  V30 17 1 16 18
M  V30 18 1 18 19
M  V30 19 1 19 20
M  V30 20 1 20 21
M  V30 21 1 20 22
M  V30 22 2 7 23
M  V30 23 1 23 3
M  V30 24 1 17 9
M  V30 25 2 17 13
M  V30 26 1 22 15
M  V30 27 1 1 24
M  V30 28 1 1 25
M  V30 29 1 1 26
M  V30 30 1 4 27
M  V30 31 1 5 28
M  V30 32 1 6 29
M  V30 33 1 8 30
M  V30 34 1 11 31
M  V30 35 1 18 32
M  V30 36 1 18 33
M  V30 37 1 19 34
M  V30 38 1 19 35
M  V30 39 1 21 36
M  V30 40 1 21 37
M  V30 41 1 21 38
M  V30 42 1 22 39
M  V30 43 1 22 40
M  V30 44 1 23 41
M  V30 END BOND
M  V30 END CTAB
M  END
>  <Dataset>  (298) 
ChEMBL_Kinases

>  <Ligand_Instance>  (298) 
nan

>  <PDB_ID>  (298) 
nan

>  <Standardized_SMILES>  (298) 
COc1cccc(Nc2ncnc3sc4c(c23)CCN(C)C4)c1

>  <Name>  (298) 
nan

>  <Pocket>  (298) 
nan

>  <ATP_Site>  (298) 
nan

>  <Peripheral>  (298) 
nan

>  <Num_H_Atoms_ProtBoundConf>  (298) 
nan

>  <Num_Resolved_Atoms>  (298) 
nan

>  <Num_Not_Resolved_Atoms>  (298) 
nan

$$$$
CHEMBL4471933
     RDKit          3D

  0  0  0  0  0  0  0  0  0  0999 V3000
M  V30 BEGIN CTAB
M  V30 COUNTS 43 45 0 0 0
M  V30 BEGIN ATOM
M  V30 1 C -3.735827 -2.784503 2.402912 0
M  V30 2 O -2.380924 -2.590943 2.272409 0
M  V30 3 C -1.943644 -1.719936 3.249504 0
M  V30 4 C -0.422918 -1.461080 3.156863 0
M  V30 5 C -0.170753 -0.552398 4.383893 0
M  V30 6 C 0.188277 -2.815735 3.515096 0
M  V30 7 N -0.036285 -0.879533 1.954533 0
M  V30 8 C 0.414246 -0.291173 0.740625 0
M  V30 9 C 1.716789 -0.128858 0.321156 0
M  V30 10 C 2.126854 0.407526 -0.865003 0
M  V30 11 C 3.516435 0.556312 -1.264082 0
M  V30 12 C 3.707609 1.122617 -2.506828 0
M  V30 13 C 4.962258 1.334446 -3.037878 0
M  V30 14 N 6.015864 0.968925 -2.301666 0
M  V30 15 C 5.840588 0.415970 -1.088886 0
M  V30 16 C 4.602355 0.180842 -0.507981 0
M  V30 17 N 1.123646 0.792685 -1.649250 0
M  V30 18 C -0.177157 0.691998 -1.361785 0
M  V30 19 C -1.030789 1.174323 -2.344171 0
M  V30 20 N -2.354727 1.099032 -2.086571 0
M  V30 21 C -2.814646 0.575772 -0.920701 0
M  V30 22 C -1.901766 0.119828 0.000029 0
M  V30 23 C -0.535078 0.143925 -0.152508 0
M  V30 24 H -4.003667 -3.214216 3.395196 0
M  V30 25 H -4.330451 -1.864057 2.252787 0
M  V30 26 H -4.104464 -3.549093 1.659664 0
M  V30 27 H -2.089621 -2.242625 4.220863 0
M  V30 28 H -2.496795 -0.775622 3.297327 0
M  V30 29 H -0.412189 -1.183164 5.263656 0
M  V30 30 H 0.879721 -0.241090 4.418113 0
M  V30 31 H -0.891125 0.306428 4.374852 0
M  V30 32 H 0.027510 -3.550681 2.715263 0
M  V30 33 H -0.342334 -3.126569 4.436791 0
M  V30 34 H 1.259422 -2.685234 3.775477 0
M  V30 35 H 0.887467 -1.044716 2.404606 0
M  V30 36 H 2.523729 -0.453438 0.982496 0
M  V30 37 H 2.886320 1.436546 -3.143808 0
M  V30 38 H 5.132121 1.775651 -4.007202 0
M  V30 39 H 6.695887 0.111928 -0.474962 0
M  V30 40 H 4.455058 -0.259724 0.458865 0
M  V30 41 H -0.660471 1.589408 -3.268928 0
M  V30 42 H -3.869423 0.509333 -0.700525 0
M  V30 43 H -2.282136 -0.278487 0.918548 0
M  V30 END ATOM
M  V30 BEGIN BOND
M  V30 1 1 1 2
M  V30 2 1 2 3
M  V30 3 1 3 4
M  V30 4 1 4 5
M  V30 5 1 4 6
M  V30 6 1 4 7
M  V30 7 1 7 8
M  V30 8 2 8 9
M  V30 9 1 9 10
M  V30 10 1 10 11
M  V30 11 2 11 12
M  V30 12 1 12 13
M  V30 13 2 13 14
M  V30 14 1 14 15
M  V30 15 2 15 16
M  V30 16 2 10 17
M  V30 17 1 17 18
M  V30 18 2 18 19
M  V30 19 1 19 20
M  V30 20 2 20 21
M  V30 21 1 21 22
M  V30 22 2 22 23
M  V30 23 1 23 8
M  V30 24 1 16 11
M  V30 25 1 23 18
M  V30 26 1 1 24
M  V30 27 1 1 25
M  V30 28 1 1 26
M  V30 29 1 3 27
M  V30 30 1 3 28
M  V30 31 1 5 29
M  V30 32 1 5 30
M  V30 33 1 5 31
M  V30 34 1 6 32
M  V30 35 1 6 33
M  V30 36 1 6 34
M  V30 37 1 7 35
M  V30 38 1 9 36
M  V30 39 1 12 37
M  V30 40 1 13 38
M  V30 41 1 15 39
M  V30 42 1 16 40
M  V30 43 1 19 41
M  V30 44 1 21 42
M  V30 45 1 22 43
M  V30 END BOND
M  V30 END CTAB
M  END
>  <Dataset>  (299) 
ChEMBL_Kinases

>  <Ligand_Instance>  (299) 
nan

>  <PDB_ID>  (299) 
nan

>  <Standardized_SMILES>  (299) 
COCC(C)(C)Nc1cc(-c2ccncc2)nc2cnccc12

>  <Name>  (299) 
nan

>  <Pocket>  (299) 
nan

>  <ATP_Site>  (299) 
nan

>  <Peripheral>  (299) 
nan

>  <Num_H_Atoms_ProtBoundConf>  (299) 
nan

>  <Num_Resolved_Atoms>  (299) 
nan

>  <Num_Not_Resolved_Atoms>  (299) 
nan

$$$$
CHEMBL4471884
     RDKit          3D

  0  0  0  0  0  0  0  0  0  0999 V3000
M  V30 BEGIN CTAB
M  V30 COUNTS 38 40 0 0 0
M  V30 BEGIN ATOM
M  V30 1 C 0.360418 -4.430174 3.003972 0
M  V30 2 C 0.810906 -4.241964 1.599745 0
M  V30 3 C 0.850332 -2.799855 1.145739 0 CFG=2
M  V30 4 C 1.779705 -1.965734 1.975442 0
M  V30 5 N -0.487184 -2.207456 1.078685 0
M  V30 6 C -0.649512 -0.862606 0.651180 0
M  V30 7 N 0.433605 -0.145312 0.305849 0
M  V30 8 C 0.359272 1.130060 -0.110334 0
M  V30 9 C 1.505298 1.942998 -0.496347 0
M  V30 10 C 2.809539 1.495504 -0.486213 0
M  V30 11 C 3.900573 2.256466 -0.850541 0
M  V30 12 N 3.709024 3.527275 -1.247786 0
M  V30 13 C 2.464304 4.017248 -1.278143 0
M  V30 14 C 1.380565 3.257687 -0.915026 0
M  V30 15 N -0.851460 1.715470 -0.184888 0
M  V30 16 C -1.988041 1.088152 0.135879 0
M  V30 17 C -3.227186 1.689961 0.058668 0
M  V30 18 N -4.318764 0.984538 0.400903 0
M  V30 19 C -4.254429 -0.308129 0.823751 0
M  V30 20 C -3.004042 -0.890491 0.893391 0
M  V30 21 C -1.864492 -0.219145 0.557721 0
M  V30 22 H -0.208979 -5.386305 3.062121 0
M  V30 23 H 1.182656 -4.523003 3.739688 0
M  V30 24 H -0.293041 -3.621300 3.381467 0
M  V30 25 H 0.084380 -4.749968 0.919119 0
M  V30 26 H 1.784266 -4.690989 1.390085 0
M  V30 27 H 1.245848 -2.808240 0.109594 0
M  V30 28 H 2.518056 -2.635046 2.467165 0
M  V30 29 H 2.288612 -1.235623 1.319018 0
M  V30 30 H 1.271588 -1.394962 2.772204 0
M  V30 31 H -1.246865 -2.842431 1.360634 0
M  V30 32 H 3.016117 0.481769 -0.175753 0
M  V30 33 H 4.903453 1.829408 -0.815481 0
M  V30 34 H 2.270496 5.051596 -1.597505 0
M  V30 35 H 0.388471 3.704077 -0.957575 0
M  V30 36 H -3.282722 2.704957 -0.272857 0
M  V30 37 H -5.165068 -0.830243 1.087216 0
M  V30 38 H -3.000980 -1.909320 1.231395 0
M  V30 END ATOM
M  V30 BEGIN BOND
M  V30 1 1 1 2
M  V30 2 1 2 3
M  V30 3 1 3 4
M  V30 4 1 3 5
M  V30 5 1 5 6
M  V30 6 2 6 7
M  V30 7 1 7 8
M  V30 8 1 8 9
M  V30 9 2 9 10
M  V30 10 1 10 11
M  V30 11 2 11 12
M  V30 12 1 12 13
M  V30 13 2 13 14
M  V30 14 2 8 15
M  V30 15 1 15 16
M  V30 16 2 16 17
M  V30 17 1 17 18
M  V30 18 2 18 19
M  V30 19 1 19 20
M  V30 20 2 20 21
M  V30 21 1 21 6
M  V30 22 1 14 9
M  V30 23 1 21 16
M  V30 24 1 1 22
M  V30 25 1 1 23
M  V30 26 1 1 24
M  V30 27 1 2 25
M  V30 28 1 2 26
M  V30 29 1 3 27 CFG=3
M  V30 30 1 4 28
M  V30 31 1 4 29
M  V30 32 1 4 30
M  V30 33 1 5 31
M  V30 34 1 10 32
M  V30 35 1 11 33
M  V30 36 1 13 34
M  V30 37 1 14 35
M  V30 38 1 17 36
M  V30 39 1 19 37
M  V30 40 1 20 38
M  V30 END BOND
M  V30 END CTAB
M  END
>  <Dataset>  (300) 
ChEMBL_Kinases

>  <Ligand_Instance>  (300) 
nan

>  <PDB_ID>  (300) 
nan

>  <Standardized_SMILES>  (300) 
CC[C@H](C)Nc1nc(-c2ccncc2)nc2cnccc12

>  <Name>  (300) 
nan

>  <Pocket>  (300) 
nan

>  <ATP_Site>  (300) 
nan

>  <Peripheral>  (300) 
nan

>  <Num_H_Atoms_ProtBoundConf>  (300) 
nan

>  <Num_Resolved_Atoms>  (300) 
nan

>  <Num_Not_Resolved_Atoms>  (300) 
nan

$$$$
CHEMBL4471869
     RDKit          3D

  0  0  0  0  0  0  0  0  0  0999 V3000
M  V30 BEGIN CTAB
M  V30 COUNTS 32 33 0 0 0
M  V30 BEGIN ATOM
M  V30 1 C -1.984296 -2.154745 2.083936 0
M  V30 2 C -0.766394 -2.474333 1.230655 0
M  V30 3 O -0.422276 -1.401727 0.361571 0
M  V30 4 C -0.095824 -0.148194 0.865567 0
M  V30 5 C 1.248058 -0.004659 1.123880 0
M  V30 6 C 2.400062 -0.868080 0.947618 0
M  V30 7 C 2.821940 -1.523017 -0.111018 0
M  V30 8 S 4.196976 -2.633627 -0.532648 0
M  V30 9 C 3.230102 -3.559644 -1.770990 0
M  V30 10 O 3.272385 -4.770632 -2.098983 0
M  V30 11 N 2.380840 -2.509975 -2.289551 0
M  V30 12 C 2.154352 -1.421673 -1.423508 0
M  V30 13 O 1.425351 -0.421061 -1.757199 0
M  V30 14 C 1.664663 1.229065 1.641309 0
M  V30 15 C 0.798125 2.278825 1.894115 0
M  V30 16 C -0.531750 2.067318 1.612015 0
M  V30 17 C -1.003671 0.883891 1.104798 0
M  V30 18 O -2.288215 0.486187 0.763136 0
M  V30 19 C -3.351892 1.384230 0.930230 0
M  V30 20 H -2.119456 -3.063161 2.728413 0
M  V30 21 H -1.825074 -1.315268 2.778974 0
M  V30 22 H -2.917852 -2.082684 1.503015 0
M  V30 23 H 0.056958 -2.766102 1.895112 0
M  V30 24 H -1.045099 -3.341427 0.610389 0
M  V30 25 H 3.069808 -1.053393 1.786188 0
M  V30 26 H 1.979312 -2.602735 -3.258843 0
M  V30 27 H 2.697649 1.519060 1.905810 0
M  V30 28 H 1.070369 3.228854 2.285973 0
M  V30 29 H -1.323462 2.791370 1.756214 0
M  V30 30 H -4.285452 0.977192 0.452638 0
M  V30 31 H -3.184252 2.348594 0.402777 0
M  V30 32 H -3.624101 1.577254 1.985781 0
M  V30 END ATOM
M  V30 BEGIN BOND
M  V30 1 1 1 2
M  V30 2 1 2 3
M  V30 3 1 3 4
M  V30 4 2 4 5
M  V30 5 1 5 6
M  V30 6 2 6 7
M  V30 7 1 7 8
M  V30 8 1 8 9
M  V30 9 2 9 10
M  V30 10 1 9 11
M  V30 11 1 11 12
M  V30 12 2 12 13
M  V30 13 1 5 14
M  V30 14 2 14 15
M  V30 15 1 15 16
M  V30 16 2 16 17
M  V30 17 1 17 18
M  V30 18 1 18 19
M  V30 19 1 17 4
M  V30 20 1 12 7
M  V30 21 1 1 20
M  V30 22 1 1 21
M  V30 23 1 1 22
M  V30 24 1 2 23
M  V30 25 1 2 24
M  V30 26 1 6 25
M  V30 27 1 11 26
M  V30 28 1 14 27
M  V30 29 1 15 28
M  V30 30 1 16 29
M  V30 31 1 19 30
M  V30 32 1 19 31
M  V30 33 1 19 32
M  V30 END BOND
M  V30 END CTAB
M  END
>  <Dataset>  (301) 
ChEMBL_Kinases

>  <Ligand_Instance>  (301) 
nan

>  <PDB_ID>  (301) 
nan

>  <Standardized_SMILES>  (301) 
CCOc1c(/C=C2/SC(=O)NC2=O)cccc1OC

>  <Name>  (301) 
nan

>  <Pocket>  (301) 
nan

>  <ATP_Site>  (301) 
nan

>  <Peripheral>  (301) 
nan

>  <Num_H_Atoms_ProtBoundConf>  (301) 
nan

>  <Num_Resolved_Atoms>  (301) 
nan

>  <Num_Not_Resolved_Atoms>  (301) 
nan

$$$$
CHEMBL4472285
     RDKit          3D

  0  0  0  0  0  0  0  0  0  0999 V3000
M  V30 BEGIN CTAB
M  V30 COUNTS 42 45 0 0 0
M  V30 BEGIN ATOM
M  V30 1 C -1.575333 -2.688871 2.556400 0
M  V30 2 C -0.188674 -2.054568 2.840760 0
M  V30 3 C 0.629099 -3.284758 3.285514 0
M  V30 4 N 0.347952 -1.545010 1.675601 0
M  V30 5 C 0.802099 -0.939564 0.470435 0
M  V30 6 N 0.236304 0.043713 -0.250660 0
M  V30 7 C 0.668807 0.585172 -1.377110 0
M  V30 8 C -0.086248 1.652965 -2.022483 0
M  V30 9 C 0.440223 2.154087 -3.194573 0
M  V30 10 C -0.285842 3.176970 -3.811534 0
M  V30 11 N -1.430088 3.603470 -3.238997 0
M  V30 12 C -1.901814 3.085830 -2.099385 0
M  V30 13 C -1.250502 2.074050 -1.423112 0
M  V30 14 N 1.811094 0.060518 -1.816041 0
M  V30 15 C 2.498401 -0.912100 -1.227439 0
M  V30 16 C 3.661027 -1.292718 -1.867887 0
M  V30 17 N 4.373894 -2.287628 -1.268940 0
M  V30 18 C 3.955405 -2.853556 -0.122931 0
M  V30 19 C 2.782731 -2.412152 0.448110 0
M  V30 20 C 1.976821 -1.419476 -0.057682 0
M  V30 21 C -0.355977 -1.226424 4.066757 0
M  V30 22 C -1.286562 -0.094787 4.179539 0
M  V30 23 C 0.242515 0.134453 4.220264 0
M  V30 24 H -1.492068 -3.389669 1.710699 0
M  V30 25 H -1.866115 -3.251577 3.468506 0
M  V30 26 H -2.308515 -1.885362 2.414508 0
M  V30 27 H 0.711193 -4.034294 2.472982 0
M  V30 28 H 1.645281 -3.009741 3.593739 0
M  V30 29 H 0.121580 -3.789256 4.131568 0
M  V30 30 H -0.497076 -0.903933 1.793935 0
M  V30 31 H 1.368143 1.755624 -3.590187 0
M  V30 32 H 0.099659 3.594503 -4.735995 0
M  V30 33 H -2.837855 3.454238 -1.656442 0
M  V30 34 H -1.614649 1.643872 -0.503252 0
M  V30 35 H 3.983411 -0.830540 -2.784525 0
M  V30 36 H 4.525840 -3.648055 0.354637 0
M  V30 37 H 2.485115 -2.879211 1.354314 0
M  V30 38 H -0.311632 -1.840330 4.990194 0
M  V30 39 H -1.756399 0.442976 3.348125 0
M  V30 40 H -1.820576 0.104490 5.131361 0
M  V30 41 H 0.637339 0.472859 5.195132 0
M  V30 42 H 0.726885 0.641245 3.377810 0
M  V30 END ATOM
M  V30 BEGIN BOND
M  V30 1 1 1 2
M  V30 2 1 2 3
M  V30 3 1 2 4
M  V30 4 1 4 5
M  V30 5 2 5 6
M  V30 6 1 6 7
M  V30 7 1 7 8
M  V30 8 2 8 9
M  V30 9 1 9 10
M  V30 10 2 10 11
M  V30 11 1 11 12
M  V30 12 2 12 13
M  V30 13 2 7 14
M  V30 14 1 14 15
M  V30 15 2 15 16
M  V30 16 1 16 17
M  V30 17 2 17 18
M  V30 18 1 18 19
M  V30 19 2 19 20
M  V30 20 1 2 21
M  V30 21 1 21 22
M  V30 22 1 22 23
M  V30 23 1 20 5
M  V30 24 1 23 21
M  V30 25 1 13 8
M  V30 26 1 20 15
M  V30 27 1 1 24
M  V30 28 1 1 25
M  V30 29 1 1 26
M  V30 30 1 3 27
M  V30 31 1 3 28
M  V30 32 1 3 29
M  V30 33 1 4 30
M  V30 34 1 9 31
M  V30 35 1 10 32
M  V30 36 1 12 33
M  V30 37 1 13 34
M  V30 38 1 16 35
M  V30 39 1 18 36
M  V30 40 1 19 37
M  V30 41 1 21 38
M  V30 42 1 22 39
M  V30 43 1 22 40
M  V30 44 1 23 41
M  V30 45 1 23 42
M  V30 END BOND
M  V30 END CTAB
M  END
>  <Dataset>  (302) 
ChEMBL_Kinases

>  <Ligand_Instance>  (302) 
nan

>  <PDB_ID>  (302) 
nan

>  <Standardized_SMILES>  (302) 
CC(C)(Nc1nc(-c2ccncc2)nc2cnccc12)C1CC1

>  <Name>  (302) 
nan

>  <Pocket>  (302) 
nan

>  <ATP_Site>  (302) 
nan

>  <Peripheral>  (302) 
nan

>  <Num_H_Atoms_ProtBoundConf>  (302) 
nan

>  <Num_Resolved_Atoms>  (302) 
nan

>  <Num_Not_Resolved_Atoms>  (302) 
nan

$$$$
CHEMBL4469678
     RDKit          3D

  0  0  0  0  0  0  0  0  0  0999 V3000
M  V30 BEGIN CTAB
M  V30 COUNTS 63 68 0 0 0
M  V30 BEGIN ATOM
M  V30 1 C 3.517213 -0.577521 5.509841 0
M  V30 2 N 4.753513 -1.163281 5.028775 0
M  V30 3 C 5.778573 -0.175317 4.812285 0
M  V30 4 C 5.631651 0.603663 3.526731 0
M  V30 5 N 4.659459 -0.019469 2.630566 0
M  V30 6 C 3.611152 0.620315 1.920988 0
M  V30 7 C 3.626123 1.990011 1.773214 0
M  V30 8 C 2.556781 2.511177 1.076854 0
M  V30 9 C 1.510961 1.745398 0.541754 0
M  V30 10 N 0.441849 2.362970 -0.189712 0
M  V30 11 C -0.675351 1.552965 -0.519125 0
M  V30 12 N -1.664495 1.779348 0.361576 0
M  V30 13 C -2.856802 1.204293 0.384094 0
M  V30 14 C -3.134855 0.281022 -0.578835 0
M  V30 15 C -4.337420 -0.383832 -0.653661 0
M  V30 16 O -5.203334 -0.090602 0.233107 0
M  V30 17 C -4.519790 -1.313789 -1.676223 0
M  V30 18 C -5.842212 -1.925365 -1.615842 0
M  V30 19 C -6.911273 -1.370435 -2.295859 0
M  V30 20 Cl -6.637043 0.074983 -3.234134 0
M  V30 21 C -8.177986 -1.923414 -2.253040 0
M  V30 22 C -8.425855 -3.075083 -1.512955 0
M  V30 23 C -7.350058 -3.612640 -0.843107 0
M  V30 24 C -6.077616 -3.067739 -0.878896 0
M  V30 25 Cl -4.726096 -3.789887 -0.002454 0
M  V30 26 C -3.492977 -1.530049 -2.568298 0
M  V30 27 N -2.320544 -0.877728 -2.489871 0
M  V30 28 C -1.332958 -1.203701 -3.482920 0
M  V30 29 C -0.017145 -1.688155 -2.882958 0
M  V30 30 O 0.016754 -2.808235 -3.695018 0
M  V30 31 C -1.313525 -2.613350 -3.990655 0
M  V30 32 C -2.148494 0.017239 -1.504161 0
M  V30 33 N -0.931923 0.630481 -1.494605 0
M  V30 34 C 1.550377 0.363731 0.723768 0
M  V30 35 C 2.611735 -0.173364 1.416866 0
M  V30 36 C 4.995798 -1.426860 2.601120 0
M  V30 37 C 4.546448 -2.029813 3.898411 0
M  V30 38 H 2.865789 -0.497949 4.593726 0
M  V30 39 H 3.029499 -1.300936 6.194325 0
M  V30 40 H 3.656629 0.425864 5.933742 0
M  V30 41 H 5.694860 0.565378 5.647656 0
M  V30 42 H 6.772585 -0.652808 4.919885 0
M  V30 43 H 6.625441 0.516398 2.998555 0
M  V30 44 H 5.428108 1.664034 3.651484 0
M  V30 45 H 4.403877 2.626054 2.162756 0
M  V30 46 H 2.508029 3.583295 0.924784 0
M  V30 47 H 0.557196 3.368607 -0.429221 0
M  V30 48 H -3.652994 1.392467 1.101824 0
M  V30 49 H -9.017341 -1.495880 -2.780875 0
M  V30 50 H -9.375317 -3.580684 -1.416906 0
M  V30 51 H -7.457837 -4.509525 -0.244131 0
M  V30 52 H -3.725284 -2.265615 -3.322538 0
M  V30 53 H -1.210783 -0.447250 -4.294185 0
M  V30 54 H 0.856297 -1.043954 -3.141074 0
M  V30 55 H -0.124811 -1.962753 -1.815057 0
M  V30 56 H -1.939789 -3.356399 -3.458661 0
M  V30 57 H -1.580557 -2.656355 -5.087031 0
M  V30 58 H 0.733737 -0.193723 0.301429 0
M  V30 59 H 2.540615 -1.251328 1.497399 0
M  V30 60 H 4.445935 -1.896380 1.758505 0
M  V30 61 H 6.070648 -1.605150 2.368357 0
M  V30 62 H 5.078608 -2.981252 4.070915 0
M  V30 63 H 3.450766 -2.274691 3.807007 0
M  V30 END ATOM
M  V30 BEGIN BOND
M  V30 1 1 1 2
M  V30 2 1 2 3
M  V30 3 1 3 4
M  V30 4 1 4 5
M  V30 5 1 5 6
M  V30 6 2 6 7
M  V30 7 1 7 8
M  V30 8 2 8 9
M  V30 9 1 9 10
M  V30 10 1 10 11
M  V30 11 2 11 12
M  V30 12 1 12 13
M  V30 13 2 13 14
M  V30 14 1 14 15
M  V30 15 2 15 16
M  V30 16 1 15 17
M  V30 17 1 17 18
M  V30 18 2 18 19
M  V30 19 1 19 20
M  V30 20 1 19 21
M  V30 21 2 21 22
M  V30 22 1 22 23
M  V30 23 2 23 24
M  V30 24 1 24 25
M  V30 25 2 17 26
M  V30 26 1 26 27
M  V30 27 1 27 28
M  V30 28 1 28 29
M  V30 29 1 29 30
M  V30 30 1 30 31
M  V30 31 1 27 32
M  V30 32 2 32 33
M  V30 33 1 9 34
M  V30 34 2 34 35
M  V30 35 1 5 36
M  V30 36 1 36 37
M  V30 37 1 37 2
M  V30 38 1 35 6
M  V30 39 1 33 11
M  V30 40 1 32 14
M  V30 41 1 24 18
M  V30 42 1 31 28
M  V30 43 1 1 38
M  V30 44 1 1 39
M  V30 45 1 1 40
M  V30 46 1 3 41
M  V30 47 1 3 42
M  V30 48 1 4 43
M  V30 49 1 4 44
M  V30 50 1 7 45
M  V30 51 1 8 46
M  V30 52 1 10 47
M  V30 53 1 13 48
M  V30 54 1 21 49
M  V30 55 1 22 50
M  V30 56 1 23 51
M  V30 57 1 26 52
M  V30 58 1 28 53
M  V30 59 1 29 54
M  V30 60 1 29 55
M  V30 61 1 31 56
M  V30 62 1 31 57
M  V30 63 1 34 58
M  V30 64 1 35 59
M  V30 65 1 36 60
M  V30 66 1 36 61
M  V30 67 1 37 62
M  V30 68 1 37 63
M  V30 END BOND
M  V30 END CTAB
M  END
>  <Dataset>  (303) 
ChEMBL_Kinases

>  <Ligand_Instance>  (303) 
nan

>  <PDB_ID>  (303) 
nan

>  <Standardized_SMILES>  (303) 
CN1CCN(c2ccc(Nc3ncc4c(=O)c(-c5c(Cl)cccc5Cl)cn(C5COC5)c4n3)cc2)CC1

>  <Name>  (303) 
nan

>  <Pocket>  (303) 
nan

>  <ATP_Site>  (303) 
nan

>  <Peripheral>  (303) 
nan

>  <Num_H_Atoms_ProtBoundConf>  (303) 
nan

>  <Num_Resolved_Atoms>  (303) 
nan

>  <Num_Not_Resolved_Atoms>  (303) 
nan

$$$$
CHEMBL4469667
     RDKit          3D

  0  0  0  0  0  0  0  0  0  0999 V3000
M  V30 BEGIN CTAB
M  V30 COUNTS 56 60 0 0 0
M  V30 BEGIN ATOM
M  V30 1 C -5.558184 -3.028388 -3.041737 0
M  V30 2 C -4.989722 -2.123865 -2.006202 0
M  V30 3 C -5.667857 -1.406539 -1.027370 0
M  V30 4 C -4.741267 -0.694824 -0.279422 0
M  V30 5 N -4.961194 0.190438 0.841106 0
M  V30 6 C -3.807503 0.812146 1.449673 0
M  V30 7 N -3.905969 1.643688 2.482834 0
M  V30 8 C -2.824325 2.195325 3.016960 0
M  V30 9 C -1.552005 1.947223 2.544870 0
M  V30 10 C -1.438807 1.086271 1.473688 0
M  V30 11 C -0.258465 0.679025 0.821695 0
M  V30 12 S 0.559038 -0.926719 0.589379 0
M  V30 13 C 1.939151 -0.278420 -0.363420 0
M  V30 14 C 2.997902 -1.178089 -0.862509 0
M  V30 15 C 2.466926 -2.222921 -1.814474 0
M  V30 16 C 3.666591 -2.893024 -2.452378 0
M  V30 17 N 4.513940 -3.519353 -1.466604 0
M  V30 18 C 4.907002 -2.616338 -0.415113 0
M  V30 19 C 3.725598 -1.923560 0.232059 0
M  V30 20 N 1.731273 0.995638 -0.448749 0
M  V30 21 C 0.633328 1.462795 0.145216 0
M  V30 22 C 0.483325 2.928995 -0.006120 0
M  V30 23 C -0.594819 3.488280 -0.671298 0
M  V30 24 C -0.641552 4.879039 -0.759529 0
M  V30 25 C 0.318549 5.714510 -0.225109 0
M  V30 26 F 0.174424 7.068330 -0.369545 0
M  V30 27 C 1.372390 5.149242 0.425891 0
M  V30 28 C 1.464085 3.764505 0.540564 0
M  V30 29 N -2.582036 0.569785 0.990704 0
M  V30 30 N -3.565502 -1.004055 -0.824709 0
M  V30 31 N -3.685137 -1.839317 -1.837597 0
M  V30 32 C -2.538498 -2.338384 -2.613346 0
M  V30 33 H -6.408852 -2.550890 -3.541061 0
M  V30 34 H -5.802037 -3.997399 -2.556871 0
M  V30 35 H -4.790505 -3.212117 -3.811543 0
M  V30 36 H -6.733410 -1.393319 -0.862514 0
M  V30 37 H -5.907318 0.373258 1.195354 0
M  V30 38 H -2.905934 2.876342 3.862993 0
M  V30 39 H -0.624304 2.356961 2.925347 0
M  V30 40 H 3.723650 -0.565834 -1.398218 0
M  V30 41 H 1.850430 -1.797404 -2.628498 0
M  V30 42 H 1.923159 -3.006551 -1.245836 0
M  V30 43 H 4.247823 -2.159983 -3.057629 0
M  V30 44 H 3.332211 -3.684420 -3.155014 0
M  V30 45 H 5.397571 -3.782085 -1.962788 0
M  V30 46 H 5.645317 -1.873952 -0.774667 0
M  V30 47 H 5.391453 -3.229683 0.374597 0
M  V30 48 H 3.092134 -2.737251 0.664910 0
M  V30 49 H 4.112261 -1.252715 1.011183 0
M  V30 50 H -1.358133 2.859433 -1.097687 0
M  V30 51 H -1.503264 5.279032 -1.288992 0
M  V30 52 H 2.124985 5.807503 0.844505 0
M  V30 53 H 2.337316 3.360033 1.076966 0
M  V30 54 H -2.824097 -3.197126 -3.234807 0
M  V30 55 H -2.137507 -1.543256 -3.288767 0
M  V30 56 H -1.704946 -2.590745 -1.913768 0
M  V30 END ATOM
M  V30 BEGIN BOND
M  V30 1 1 1 2
M  V30 2 2 2 3
M  V30 3 1 3 4
M  V30 4 1 4 5
M  V30 5 1 5 6
M  V30 6 2 6 7
M  V30 7 1 7 8
M  V30 8 2 8 9
M  V30 9 1 9 10
M  V30 10 1 10 11
M  V30 11 1 11 12
M  V30 12 1 12 13
M  V30 13 1 13 14
M  V30 14 1 14 15
M  V30 15 1 15 16
M  V30 16 1 16 17
M  V30 17 1 17 18
M  V30 18 1 18 19
M  V30 19 2 13 20
M  V30 20 1 20 21
M  V30 21 1 21 22
M  V30 22 2 22 23
M  V30 23 1 23 24
M  V30 24 2 24 25
M  V30 25 1 25 26
M  V30 26 1 25 27
M  V30 27 2 27 28
M  V30 28 2 10 29
M  V30 29 2 4 30
M  V30 30 1 30 31
M  V30 31 1 31 32
M  V30 32 1 31 2
M  V30 33 1 29 6
M  V30 34 2 21 11
M  V30 35 1 28 22
M  V30 36 1 19 14
M  V30 37 1 1 33
M  V30 38 1 1 34
M  V30 39 1 1 35
M  V30 40 1 3 36
M  V30 41 1 5 37
M  V30 42 1 8 38
M  V30 43 1 9 39
M  V30 44 1 14 40
M  V30 45 1 15 41
M  V30 46 1 15 42
M  V30 47 1 16 43
M  V30 48 1 16 44
M  V30 49 1 17 45
M  V30 50 1 18 46
M  V30 51 1 18 47
M  V30 52 1 19 48
M  V30 53 1 19 49
M  V30 54 1 23 50
M  V30 55 1 24 51
M  V30 56 1 27 52
M  V30 57 1 28 53
M  V30 58 1 32 54
M  V30 59 1 32 55
M  V30 60 1 32 56
M  V30 END BOND
M  V30 END CTAB
M  END
>  <Dataset>  (304) 
ChEMBL_Kinases

>  <Ligand_Instance>  (304) 
nan

>  <PDB_ID>  (304) 
nan

>  <Standardized_SMILES>  (304) 
Cc1cc(Nc2nccc(-c3sc(C4CCNCC4)nc3-c3ccc(F)cc3)n2)nn1C

>  <Name>  (304) 
nan

>  <Pocket>  (304) 
nan

>  <ATP_Site>  (304) 
nan

>  <Peripheral>  (304) 
nan

>  <Num_H_Atoms_ProtBoundConf>  (304) 
nan

>  <Num_Resolved_Atoms>  (304) 
nan

>  <Num_Not_Resolved_Atoms>  (304) 
nan

$$$$
CHEMBL4469661
     RDKit          3D

  0  0  0  0  0  0  0  0  0  0999 V3000
M  V30 BEGIN CTAB
M  V30 COUNTS 53 56 0 0 0
M  V30 BEGIN ATOM
M  V30 1 C -1.364053 -5.881255 4.451561 0
M  V30 2 O -0.483362 -6.440864 3.495117 0
M  V30 3 C 0.174923 -5.603843 2.605313 0
M  V30 4 C -0.055523 -4.227131 2.687155 0
M  V30 5 C 0.615275 -3.469362 1.789304 0
M  V30 6 C 1.474580 -3.948803 0.839648 0
M  V30 7 C 2.066747 -3.037618 0.001109 0
M  V30 8 C 1.927968 -1.615547 -0.038746 0
M  V30 9 C 2.668151 -0.595845 0.586527 0
M  V30 10 C 2.509693 0.700176 -0.200628 0
M  V30 11 N 1.165741 0.852615 -0.724221 0
M  V30 12 C 0.411553 1.893418 -0.171528 0
M  V30 13 O 1.221594 2.372742 0.628742 0
M  V30 14 C -0.891538 2.493215 -0.263185 0
M  V30 15 C -1.969658 2.127601 -1.024394 0
M  V30 16 C -3.221316 2.688244 -1.111973 0
M  V30 17 C -3.323467 3.796224 -0.261102 0
M  V30 18 O -4.578675 4.441618 -0.278363 0
M  V30 19 C -5.577807 4.001436 0.648406 0
M  V30 20 F -6.697833 4.776748 0.435003 0
M  V30 21 F -5.826657 2.652461 0.521358 0
M  V30 22 F -5.106938 4.266278 1.942560 0
M  V30 23 C -2.307337 4.245942 0.540240 0
M  V30 24 C -1.084718 3.590013 0.538991 0
M  V30 25 N -0.128802 4.166438 1.419221 0
M  V30 26 C 0.870322 -0.129082 -1.751227 0
M  V30 27 C 1.842901 -1.274765 -1.548111 0
M  V30 28 N 2.902035 -3.643896 -0.912425 0
M  V30 29 C 3.086653 -4.974525 -0.944362 0
M  V30 30 N 2.476400 -5.847831 -0.090150 0
M  V30 31 C 1.636536 -5.288490 0.834693 0
M  V30 32 C 1.039409 -6.206582 1.668715 0
M  V30 33 H -1.758128 -6.644235 5.123952 0
M  V30 34 H -2.206249 -5.313305 3.967760 0
M  V30 35 H -0.828572 -5.101839 5.072838 0
M  V30 36 H -0.725028 -3.891647 3.432855 0
M  V30 37 H 0.431603 -2.412208 1.870471 0
M  V30 38 H 0.868703 -1.432135 0.260874 0
M  V30 39 H 2.257173 -0.323690 1.604296 0
M  V30 40 H 3.787580 -0.686418 0.644299 0
M  V30 41 H 3.181114 0.728217 -1.112725 0
M  V30 42 H 2.865727 1.573243 0.385517 0
M  V30 43 H -1.801119 1.247194 -1.664694 0
M  V30 44 H -3.963927 2.267815 -1.771023 0
M  V30 45 H -2.516107 5.115745 1.148917 0
M  V30 46 H 0.106193 5.155929 1.110655 0
M  V30 47 H 0.331132 3.781326 2.248644 0
M  V30 48 H 1.046138 0.349852 -2.745041 0
M  V30 49 H -0.183537 -0.480674 -1.702847 0
M  V30 50 H 1.461806 -2.150535 -2.120248 0
M  V30 51 H 2.819468 -1.023162 -1.965187 0
M  V30 52 H 3.772136 -5.383134 -1.704547 0
M  V30 53 H 1.167165 -7.270051 1.669592 0
M  V30 END ATOM
M  V30 BEGIN BOND
M  V30 1 1 1 2
M  V30 2 1 2 3
M  V30 3 2 3 4
M  V30 4 1 4 5
M  V30 5 2 5 6
M  V30 6 1 6 7
M  V30 7 1 7 8
M  V30 8 1 8 9
M  V30 9 1 9 10
M  V30 10 1 10 11
M  V30 11 1 11 12
M  V30 12 2 12 13
M  V30 13 1 12 14
M  V30 14 2 14 15
M  V30 15 1 15 16
M  V30 16 2 16 17
M  V30 17 1 17 18
M  V30 18 1 18 19
M  V30 19 1 19 20
M  V30 20 1 19 21
M  V30 21 1 19 22
M  V30 22 1 17 23
M  V30 23 2 23 24
M  V30 24 1 24 25
M  V30 25 1 11 26
M  V30 26 1 26 27
M  V30 27 2 7 28
M  V30 28 1 28 29
M  V30 29 2 29 30
M  V30 30 1 30 31
M  V30 31 2 31 32
M  V30 32 1 32 3
M  V30 33 1 31 6
M  V30 34 1 27 8
M  V30 35 1 24 14
M  V30 36 1 1 33
M  V30 37 1 1 34
M  V30 38 1 1 35
M  V30 39 1 4 36
M  V30 40 1 5 37
M  V30 41 1 8 38
M  V30 42 1 9 39
M  V30 43 1 9 40
M  V30 44 1 10 41
M  V30 45 1 10 42
M  V30 46 1 15 43
M  V30 47 1 16 44
M  V30 48 1 23 45
M  V30 49 1 25 46
M  V30 50 1 25 47
M  V30 51 1 26 48
M  V30 52 1 26 49
M  V30 53 1 27 50
M  V30 54 1 27 51
M  V30 55 1 29 52
M  V30 56 1 32 53
M  V30 END BOND
M  V30 END CTAB
M  END
>  <Dataset>  (305) 
ChEMBL_Kinases

>  <Ligand_Instance>  (305) 
nan

>  <PDB_ID>  (305) 
nan

>  <Standardized_SMILES>  (305) 
COc1ccc2c(C3CCN(C(=O)c4ccc(OC(F)(F)F)cc4N)CC3)ncnc2c1

>  <Name>  (305) 
nan

>  <Pocket>  (305) 
nan

>  <ATP_Site>  (305) 
nan

>  <Peripheral>  (305) 
nan

>  <Num_H_Atoms_ProtBoundConf>  (305) 
nan

>  <Num_Resolved_Atoms>  (305) 
nan

>  <Num_Not_Resolved_Atoms>  (305) 
nan

$$$$
CHEMBL4469640
     RDKit          3D

  0  0  0  0  0  0  0  0  0  0999 V3000
M  V30 BEGIN CTAB
M  V30 COUNTS 58 61 0 0 0
M  V30 BEGIN ATOM
M  V30 1 C 0.221581 -3.705082 2.496479 0
M  V30 2 C 1.190455 -2.589752 2.635908 0
M  V30 3 C 2.253016 -2.846833 3.512981 0
M  V30 4 C 3.258141 -1.972721 3.796212 0
M  V30 5 C 3.217257 -0.750686 3.169660 0
M  V30 6 C 4.248087 0.134929 3.460913 0
M  V30 7 O 5.155462 -0.182716 4.257484 0
M  V30 8 N 4.207708 1.324936 2.846152 0
M  V30 9 C 3.237558 1.663124 1.995013 0
M  V30 10 C 3.256010 2.904769 1.395988 0
M  V30 11 C 4.372300 3.814005 1.735343 0
M  V30 12 C 2.234044 3.205712 0.526739 0
M  V30 13 C 1.195659 2.302809 0.239604 0
M  V30 14 O 0.324269 2.901220 -0.669902 0
M  V30 15 C 1.210233 1.047469 0.868810 0
M  V30 16 C 0.029647 0.421966 0.352254 0
M  V30 17 C -1.177064 0.630190 1.064825 0
M  V30 18 C -2.332402 0.080635 0.497234 0
M  V30 19 C -2.331277 -0.631251 -0.691367 0
M  V30 20 C -3.622550 -1.159708 -1.180741 0 CFG=1
M  V30 21 C -4.118320 -0.532562 -2.440036 0
M  V30 22 C -3.683196 -2.639284 -1.237218 0
M  V30 23 N -2.741482 -3.313307 -2.068196 0
M  V30 24 C -2.994392 -4.758271 -1.840109 0
M  V30 25 C -2.967226 -3.138253 -3.493312 0
M  V30 26 C -1.123142 -0.777061 -1.300643 0
M  V30 27 C 0.077093 -0.299339 -0.866492 0
M  V30 28 C 2.229235 0.784076 1.716706 0
M  V30 29 C 2.221135 -0.429397 2.308298 0
M  V30 30 C 1.257484 -1.339786 2.071878 0
M  V30 31 H -0.577662 -3.499897 1.767858 0
M  V30 32 H 0.786508 -4.641300 2.263393 0
M  V30 33 H -0.282445 -3.882226 3.488453 0
M  V30 34 H 2.329910 -3.807044 4.036978 0
M  V30 35 H 4.060136 -2.204650 4.476384 0
M  V30 36 H 4.972262 1.991290 3.057127 0
M  V30 37 H 4.308960 4.183204 2.791813 0
M  V30 38 H 4.224036 4.746950 1.124957 0
M  V30 39 H 5.374751 3.383205 1.564416 0
M  V30 40 H 2.348743 4.204979 0.114663 0
M  V30 41 H -0.192717 3.734990 -0.458823 0
M  V30 42 H -1.152045 1.182389 1.979072 0
M  V30 43 H -3.228362 0.277710 1.097740 0
M  V30 44 H -4.387776 -0.856339 -0.388572 0
M  V30 45 H -5.081164 -1.047706 -2.687924 0
M  V30 46 H -4.440140 0.531404 -2.230409 0
M  V30 47 H -3.462511 -0.585105 -3.306489 0
M  V30 48 H -3.621490 -3.097500 -0.203269 0
M  V30 49 H -4.703358 -2.971956 -1.595721 0
M  V30 50 H -2.358192 -5.372516 -2.515586 0
M  V30 51 H -2.796597 -4.955388 -0.772135 0
M  V30 52 H -4.075423 -4.944511 -2.012998 0
M  V30 53 H -3.995758 -2.871133 -3.759786 0
M  V30 54 H -2.772051 -4.129336 -4.010495 0
M  V30 55 H -2.198084 -2.470713 -3.973813 0
M  V30 56 H -1.076113 -1.322495 -2.224880 0
M  V30 57 H 1.024295 -0.425098 -1.363159 0
M  V30 58 H 0.411568 -1.338890 1.468006 0
M  V30 END ATOM
M  V30 BEGIN BOND
M  V30 1 1 1 2
M  V30 2 2 2 3
M  V30 3 1 3 4
M  V30 4 2 4 5
M  V30 5 1 5 6
M  V30 6 2 6 7
M  V30 7 1 6 8
M  V30 8 1 8 9
M  V30 9 2 9 10
M  V30 10 1 10 11
M  V30 11 1 10 12
M  V30 12 2 12 13
M  V30 13 1 13 14
M  V30 14 1 13 15
M  V30 15 1 15 16
M  V30 16 2 16 17
M  V30 17 1 17 18
M  V30 18 2 18 19
M  V30 19 1 19 20
M  V30 20 1 20 21
M  V30 21 1 20 22
M  V30 22 1 22 23
M  V30 23 1 23 24
M  V30 24 1 23 25
M  V30 25 1 19 26
M  V30 26 2 26 27
M  V30 27 2 15 28
M  V30 28 1 28 29
M  V30 29 2 29 30
M  V30 30 1 30 2
M  V30 31 1 29 5
M  V30 32 1 28 9
M  V30 33 1 27 16
M  V30 34 1 1 31
M  V30 35 1 1 32
M  V30 36 1 1 33
M  V30 37 1 3 34
M  V30 38 1 4 35
M  V30 39 1 8 36
M  V30 40 1 11 37
M  V30 41 1 11 38
M  V30 42 1 11 39
M  V30 43 1 12 40
M  V30 44 1 14 41
M  V30 45 1 17 42
M  V30 46 1 18 43
M  V30 47 1 20 44 CFG=1
M  V30 48 1 21 45
M  V30 49 1 21 46
M  V30 50 1 21 47
M  V30 51 1 22 48
M  V30 52 1 22 49
M  V30 53 1 24 50
M  V30 54 1 24 51
M  V30 55 1 24 52
M  V30 56 1 25 53
M  V30 57 1 25 54
M  V30 58 1 25 55
M  V30 59 1 26 56
M  V30 60 1 27 57
M  V30 61 1 30 58
M  V30 END BOND
M  V30 END CTAB
M  END
>  <Dataset>  (306) 
ChEMBL_Kinases

>  <Ligand_Instance>  (306) 
nan

>  <PDB_ID>  (306) 
nan

>  <Standardized_SMILES>  (306) 
Cc1ccc2c(=O)[nH]c3c(C)cc(O)c(-c4ccc([C@@H](C)CN(C)C)cc4)c3c2c1

>  <Name>  (306) 
nan

>  <Pocket>  (306) 
nan

>  <ATP_Site>  (306) 
nan

>  <Peripheral>  (306) 
nan

>  <Num_H_Atoms_ProtBoundConf>  (306) 
nan

>  <Num_Resolved_Atoms>  (306) 
nan

>  <Num_Not_Resolved_Atoms>  (306) 
nan

$$$$
CHEMBL4469541
     RDKit          3D

  0  0  0  0  0  0  0  0  0  0999 V3000
M  V30 BEGIN CTAB
M  V30 COUNTS 44 46 0 0 0
M  V30 BEGIN ATOM
M  V30 1 C -0.000756 -6.365274 -0.721225 0
M  V30 2 N -0.858105 -5.203188 -0.923953 0
M  V30 3 C -2.260710 -5.268128 -1.347604 0
M  V30 4 C -0.323260 -3.896952 -0.702503 0
M  V30 5 C -0.394901 -3.289559 0.553937 0
M  V30 6 C 0.137614 -2.017640 0.727153 0
M  V30 7 C 0.742132 -1.315413 -0.295408 0
M  V30 8 C 1.275876 0.015770 -0.029439 0
M  V30 9 C 1.889976 0.774690 -0.993186 0
M  V30 10 C 2.378845 2.030768 -0.688993 0
M  V30 11 N 2.989723 2.831073 -1.573149 0
M  V30 12 C 3.462928 4.053817 -1.267397 0
M  V30 13 C 3.292944 4.474425 0.035824 0
M  V30 14 N 2.679991 3.684819 0.945022 0
M  V30 15 C 2.213421 2.452741 0.600044 0
M  V30 16 C 1.590763 1.696003 1.598172 0
M  V30 17 N 1.437551 2.175238 2.937892 0
M  V30 18 C 0.796967 1.390614 3.954452 0
M  V30 19 C -0.634607 1.044339 3.615542 0
M  V30 20 C -1.446405 2.281644 3.440543 0
M  V30 21 N -2.829267 2.233603 3.116313 0
M  V30 22 O -0.916826 3.414889 3.578211 0
M  V30 23 N 1.136547 0.475090 1.227035 0
M  V30 24 C 0.784125 -1.963651 -1.512224 0
M  V30 25 N 0.270427 -3.195376 -1.687122 0
M  V30 26 H -0.650242 -7.149745 -0.256685 0
M  V30 27 H 0.389550 -6.758590 -1.662140 0
M  V30 28 H 0.783960 -6.066961 0.017545 0
M  V30 29 H -2.909290 -5.039661 -0.475985 0
M  V30 30 H -2.448669 -4.452572 -2.090966 0
M  V30 31 H -2.488011 -6.270304 -1.798003 0
M  V30 32 H -0.871867 -3.858032 1.337019 0
M  V30 33 H 0.024426 -1.658966 1.724506 0
M  V30 34 H 2.003348 0.412567 -1.996537 0
M  V30 35 H 3.951588 4.687949 -1.984603 0
M  V30 36 H 3.647725 5.456623 0.372670 0
M  V30 37 H 1.818726 3.127606 3.131240 0
M  V30 38 H 1.334339 0.456083 4.190642 0
M  V30 39 H 0.751382 1.992305 4.885255 0
M  V30 40 H -1.053213 0.526124 4.520619 0
M  V30 41 H -0.749867 0.352250 2.780083 0
M  V30 42 H -3.299988 3.046300 2.662722 0
M  V30 43 H -3.500115 1.459107 3.270007 0
M  V30 44 H 1.249111 -1.447243 -2.337741 0
M  V30 END ATOM
M  V30 BEGIN BOND
M  V30 1 1 1 2
M  V30 2 1 2 3
M  V30 3 1 2 4
M  V30 4 2 4 5
M  V30 5 1 5 6
M  V30 6 2 6 7
M  V30 7 1 7 8
M  V30 8 2 8 9
M  V30 9 1 9 10
M  V30 10 2 10 11
M  V30 11 1 11 12
M  V30 12 2 12 13
M  V30 13 1 13 14
M  V30 14 2 14 15
M  V30 15 1 15 16
M  V30 16 1 16 17
M  V30 17 1 17 18
M  V30 18 1 18 19
M  V30 19 1 19 20
M  V30 20 1 20 21
M  V30 21 2 20 22
M  V30 22 2 16 23
M  V30 23 1 7 24
M  V30 24 2 24 25
M  V30 25 1 25 4
M  V30 26 1 23 8
M  V30 27 1 15 10
M  V30 28 1 1 26
M  V30 29 1 1 27
M  V30 30 1 1 28
M  V30 31 1 3 29
M  V30 32 1 3 30
M  V30 33 1 3 31
M  V30 34 1 5 32
M  V30 35 1 6 33
M  V30 36 1 9 34
M  V30 37 1 12 35
M  V30 38 1 13 36
M  V30 39 1 17 37
M  V30 40 1 18 38
M  V30 41 1 18 39
M  V30 42 1 19 40
M  V30 43 1 19 41
M  V30 44 1 21 42
M  V30 45 1 21 43
M  V30 46 1 24 44
M  V30 END BOND
M  V30 END CTAB
M  END
>  <Dataset>  (307) 
ChEMBL_Kinases

>  <Ligand_Instance>  (307) 
nan

>  <PDB_ID>  (307) 
nan

>  <Standardized_SMILES>  (307) 
CN(C)c1ccc(-c2cc3nccnc3c(NCCC(N)=O)n2)cn1

>  <Name>  (307) 
nan

>  <Pocket>  (307) 
nan

>  <ATP_Site>  (307) 
nan

>  <Peripheral>  (307) 
nan

>  <Num_H_Atoms_ProtBoundConf>  (307) 
nan

>  <Num_Resolved_Atoms>  (307) 
nan

>  <Num_Not_Resolved_Atoms>  (307) 
nan

$$$$
CHEMBL4469480
     RDKit          3D

  0  0  0  0  0  0  0  0  0  0999 V3000
M  V30 BEGIN CTAB
M  V30 COUNTS 56 61 0 0 0
M  V30 BEGIN ATOM
M  V30 1 O 1.759644 2.282103 1.005110 0
M  V30 2 C 1.127365 2.200540 2.087196 0
M  V30 3 C 1.974402 1.484780 3.079201 0
M  V30 4 C 3.272661 1.087327 2.529453 0
M  V30 5 C 4.426242 1.876243 2.571362 0
M  V30 6 C 5.608420 1.407487 2.021160 0
M  V30 7 C 5.730831 0.173354 1.413591 0
M  V30 8 C 4.575816 -0.576886 1.390039 0
M  V30 9 C 3.371769 -0.165115 1.919934 0
M  V30 10 O 4.912361 -1.763167 0.744445 0
M  V30 11 C 6.134350 -1.584043 0.070563 0
M  V30 12 O 6.735561 -0.542434 0.798570 0
M  V30 13 N -0.160763 2.645589 2.482939 0
M  V30 14 C -0.922050 3.323359 1.489490 0
M  V30 15 C -1.763402 2.586052 0.655256 0
M  V30 16 C -2.529172 3.180696 -0.328546 0
M  V30 17 O -3.359292 2.417009 -1.145213 0
M  V30 18 C -3.375887 1.047437 -0.922225 0
M  V30 19 C -4.230683 0.361502 -0.051799 0
M  V30 20 C -4.203433 -0.992349 0.129495 0
M  V30 21 C -3.304381 -1.783426 -0.556173 0
M  V30 22 N -3.103263 -3.078247 -0.539708 0
M  V30 23 C -2.352378 -3.741942 -1.111927 0
M  V30 24 N -2.179736 -5.192823 -1.046209 0
M  V30 25 C -2.812402 -6.189044 -1.827971 0
M  V30 26 O -3.644693 -5.913417 -2.720535 0
M  V30 27 C -2.407021 -7.568917 -1.499917 0
M  V30 28 C -1.118919 -7.893467 -0.894993 0
M  V30 29 C -2.400201 -7.853785 -0.011032 0
M  V30 30 S -1.414767 -2.420506 -2.153144 0
M  V30 31 C -2.473974 -1.044116 -1.412840 0
M  V30 32 C -2.449851 0.324218 -1.642375 0
M  V30 33 C -2.475551 4.557921 -0.511346 0
M  V30 34 C -1.650145 5.299103 0.303903 0
M  V30 35 C -0.884638 4.703237 1.287630 0
M  V30 36 F -0.081436 5.434994 2.079077 0
M  V30 37 H 1.429277 0.581455 3.394483 0
M  V30 38 H 2.113828 2.113540 3.996311 0
M  V30 39 H 4.345230 2.832421 3.038207 0
M  V30 40 H 6.491181 2.038595 2.065961 0
M  V30 41 H 2.512453 -0.819020 1.857952 0
M  V30 42 H 6.768704 -2.489500 0.095152 0
M  V30 43 H 5.939808 -1.234673 -0.967388 0
M  V30 44 H -0.466225 2.453324 3.458023 0
M  V30 45 H -1.822746 1.495211 0.780701 0
M  V30 46 H -4.943663 1.005401 0.489437 0
M  V30 47 H -4.914798 -1.370171 0.824527 0
M  V30 48 H -1.479240 -5.321999 -0.286175 0
M  V30 49 H -2.920796 -8.343221 -2.131723 0
M  V30 50 H -0.398058 -7.074355 -0.701223 0
M  V30 51 H -0.686244 -8.894260 -1.030985 0
M  V30 52 H -2.765415 -8.837630 0.349684 0
M  V30 53 H -2.463178 -7.027731 0.707481 0
M  V30 54 H -1.724267 0.650582 -2.342342 0
M  V30 55 H -3.104498 4.966642 -1.305252 0
M  V30 56 H -1.619230 6.380257 0.147553 0
M  V30 END ATOM
M  V30 BEGIN BOND
M  V30 1 2 1 2
M  V30 2 1 2 3
M  V30 3 1 3 4
M  V30 4 2 4 5
M  V30 5 1 5 6
M  V30 6 2 6 7
M  V30 7 1 7 8
M  V30 8 2 8 9
M  V30 9 1 8 10
M  V30 10 1 10 11
M  V30 11 1 11 12
M  V30 12 1 2 13
M  V30 13 1 13 14
M  V30 14 2 14 15
M  V30 15 1 15 16
M  V30 16 1 16 17
M  V30 17 1 17 18
M  V30 18 2 18 19
M  V30 19 1 19 20
M  V30 20 2 20 21
M  V30 21 1 21 22
M  V30 22 2 22 23
M  V30 23 1 23 24
M  V30 24 1 24 25
M  V30 25 2 25 26
M  V30 26 1 25 27
M  V30 27 1 27 28
M  V30 28 1 28 29
M  V30 29 1 23 30
M  V30 30 1 30 31
M  V30 31 2 31 32
M  V30 32 2 16 33
M  V30 33 1 33 34
M  V30 34 2 34 35
M  V30 35 1 35 36
M  V30 36 1 9 4
M  V30 37 1 35 14
M  V30 38 1 12 7
M  V30 39 1 32 18
M  V30 40 1 31 21
M  V30 41 1 29 27
M  V30 42 1 3 37
M  V30 43 1 3 38
M  V30 44 1 5 39
M  V30 45 1 6 40
M  V30 46 1 9 41
M  V30 47 1 11 42
M  V30 48 1 11 43
M  V30 49 1 13 44
M  V30 50 1 15 45
M  V30 51 1 19 46
M  V30 52 1 20 47
M  V30 53 1 24 48
M  V30 54 1 27 49
M  V30 55 1 28 50
M  V30 56 1 28 51
M  V30 57 1 29 52
M  V30 58 1 29 53
M  V30 59 1 32 54
M  V30 60 1 33 55
M  V30 61 1 34 56
M  V30 END BOND
M  V30 END CTAB
M  END
>  <Dataset>  (308) 
ChEMBL_Kinases

>  <Ligand_Instance>  (308) 
nan

>  <PDB_ID>  (308) 
nan

>  <Standardized_SMILES>  (308) 
O=C(Cc1ccc2c(c1)OCO2)Nc1cc(Oc2ccc3nc(NC(=O)C4CC4)sc3c2)ccc1F

>  <Name>  (308) 
nan

>  <Pocket>  (308) 
nan

>  <ATP_Site>  (308) 
nan

>  <Peripheral>  (308) 
nan

>  <Num_H_Atoms_ProtBoundConf>  (308) 
nan

>  <Num_Resolved_Atoms>  (308) 
nan

>  <Num_Not_Resolved_Atoms>  (308) 
nan

$$$$
CHEMBL471015
     RDKit          3D

  0  0  0  0  0  0  0  0  0  0999 V3000
M  V30 BEGIN CTAB
M  V30 COUNTS 42 45 0 0 0
M  V30 BEGIN ATOM
M  V30 1 C 1.382098 -5.084334 0.553103 0
M  V30 2 O 0.945490 -4.475647 -0.648764 0
M  V30 3 C 1.246144 -3.138144 -0.856672 0
M  V30 4 O 1.894530 -2.525915 0.034831 0
M  V30 5 C 0.818584 -2.464435 -2.080230 0
M  V30 6 C 0.100064 -3.082728 -3.102970 0
M  V30 7 C -0.258342 -2.347636 -4.230104 0
M  V30 8 C 0.080498 -1.018112 -4.361563 0
M  V30 9 C 0.797045 -0.358779 -3.366922 0
M  V30 10 C 1.150548 1.059043 -3.526466 0
M  V30 11 S -0.104020 2.202357 -2.889456 0
M  V30 12 C -0.220125 2.045237 -1.115975 0
M  V30 13 N -1.143640 2.867795 -0.539377 0
M  V30 14 N -1.104809 2.627339 0.779923 0
M  V30 15 C -0.177664 1.678534 1.004874 0
M  V30 16 C 0.185712 1.120864 2.302780 0
M  V30 17 C 1.153412 0.143182 2.404616 0
M  V30 18 C 1.441129 -0.335756 3.686317 0
M  V30 19 C 0.798611 0.132947 4.818195 0
M  V30 20 C -0.168621 1.111133 4.710452 0
M  V30 21 C -0.446624 1.578458 3.441794 0
M  V30 22 C -0.651811 1.383888 6.090115 0
M  V30 23 C -0.263998 0.104101 6.815511 0
M  V30 24 O 0.946535 -0.216225 6.162638 0
M  V30 25 O 0.343974 1.340493 -0.146342 0
M  V30 26 C 1.123180 -1.136623 -2.276881 0
M  V30 27 H 1.975363 -5.987055 0.294065 0
M  V30 28 H 2.015008 -4.380238 1.151401 0
M  V30 29 H 0.545281 -5.407779 1.188481 0
M  V30 30 H -0.142598 -4.125073 -2.955901 0
M  V30 31 H -0.821622 -2.904641 -4.989325 0
M  V30 32 H -0.231046 -0.495288 -5.271299 0
M  V30 33 H 1.376190 1.328421 -4.580859 0
M  V30 34 H 2.058151 1.215094 -2.871636 0
M  V30 35 H 1.660686 -0.230007 1.527102 0
M  V30 36 H 2.200265 -1.104399 3.776659 0
M  V30 37 H -1.210352 2.349967 3.366955 0
M  V30 38 H -1.763060 1.449422 6.139709 0
M  V30 39 H -0.173008 2.285777 6.508414 0
M  V30 40 H -1.061511 -0.652840 6.680982 0
M  V30 41 H -0.114108 0.301147 7.889727 0
M  V30 42 H 1.683350 -0.646094 -1.486188 0
M  V30 END ATOM
M  V30 BEGIN BOND
M  V30 1 1 1 2
M  V30 2 1 2 3
M  V30 3 2 3 4
M  V30 4 1 3 5
M  V30 5 2 5 6
M  V30 6 1 6 7
M  V30 7 2 7 8
M  V30 8 1 8 9
M  V30 9 1 9 10
M  V30 10 1 10 11
M  V30 11 1 11 12
M  V30 12 2 12 13
M  V30 13 1 13 14
M  V30 14 2 14 15
M  V30 15 1 15 16
M  V30 16 2 16 17
M  V30 17 1 17 18
M  V30 18 2 18 19
M  V30 19 1 19 20
M  V30 20 2 20 21
M  V30 21 1 20 22
M  V30 22 1 22 23
M  V30 23 1 23 24
M  V30 24 1 15 25
M  V30 25 2 9 26
M  V30 26 1 26 5
M  V30 27 1 25 12
M  V30 28 1 21 16
M  V30 29 1 24 19
M  V30 30 1 1 27
M  V30 31 1 1 28
M  V30 32 1 1 29
M  V30 33 1 6 30
M  V30 34 1 7 31
M  V30 35 1 8 32
M  V30 36 1 10 33
M  V30 37 1 10 34
M  V30 38 1 17 35
M  V30 39 1 18 36
M  V30 40 1 21 37
M  V30 41 1 22 38
M  V30 42 1 22 39
M  V30 43 1 23 40
M  V30 44 1 23 41
M  V30 45 1 26 42
M  V30 END BOND
M  V30 END CTAB
M  END
>  <Dataset>  (309) 
ChEMBL_Kinases

>  <Ligand_Instance>  (309) 
nan

>  <PDB_ID>  (309) 
nan

>  <Standardized_SMILES>  (309) 
COC(=O)c1cccc(CSc2nnc(-c3ccc4c(c3)CCO4)o2)c1

>  <Name>  (309) 
nan

>  <Pocket>  (309) 
nan

>  <ATP_Site>  (309) 
nan

>  <Peripheral>  (309) 
nan

>  <Num_H_Atoms_ProtBoundConf>  (309) 
nan

>  <Num_Resolved_Atoms>  (309) 
nan

>  <Num_Not_Resolved_Atoms>  (309) 
nan

$$$$
CHEMBL4469414
     RDKit          3D

  0  0  0  0  0  0  0  0  0  0999 V3000
M  V30 BEGIN CTAB
M  V30 COUNTS 67 72 0 0 0
M  V30 BEGIN ATOM
M  V30 1 C 3.588712 -0.692979 4.459791 0
M  V30 2 C 2.369450 -0.644781 3.652565 0
M  V30 3 C 2.403022 -0.831665 2.287289 0
M  V30 4 C 1.269170 -0.797246 1.490467 0
M  V30 5 C 1.222290 -0.968702 0.045937 0
M  V30 6 C 2.076437 -0.280565 -0.789568 0
M  V30 7 N 1.769289 -0.646252 -2.043969 0
M  V30 8 N 0.778002 -1.516511 -2.026939 0
M  V30 9 C 0.185519 -2.125949 -3.065977 0
M  V30 10 N 0.473063 -1.950174 -4.461207 0
M  V30 11 C -0.693403 -1.333924 -5.046493 0
M  V30 12 C -0.889566 0.033036 -4.476879 0 CFG=1
M  V30 13 C 0.226294 1.017378 -4.708241 0
M  V30 14 C -0.877494 2.073480 -4.896114 0 CFG=1
M  V30 15 C -1.308138 2.620184 -3.555417 0
M  V30 16 O -0.602691 3.015340 -5.871924 0
M  V30 17 C -1.782268 0.940906 -5.328059 0
M  V30 18 C -0.831347 -3.005424 -2.712136 0
M  V30 19 C -1.245668 -3.273341 -1.408986 0
M  V30 20 O -2.265327 -4.174993 -1.283134 0
M  V30 21 C -2.839996 -4.596645 -0.122252 0
M  V30 22 C -2.491176 -5.651818 0.676804 0
M  V30 23 C -3.150326 -5.988437 1.839657 0
M  V30 24 C -4.213961 -5.175622 2.160115 0
M  V30 25 N -4.625602 -4.106365 1.418784 0
M  V30 26 C -3.933214 -3.818484 0.273255 0
M  V30 27 N -0.571809 -2.594988 -0.434325 0
M  V30 28 C 0.413581 -1.741201 -0.755239 0
M  V30 29 C 0.029431 -0.563289 2.086483 0
M  V30 30 C -0.017716 -0.371958 3.469403 0
M  V30 31 C 1.142780 -0.413519 4.236402 0
M  V30 32 C 0.975196 -0.188756 5.685674 0
M  V30 33 O 0.379644 -1.039865 6.428338 0
M  V30 34 N 1.522713 1.037394 6.182771 0
M  V30 35 C 1.473223 1.465612 7.567471 0
M  V30 36 C 2.568808 2.308790 8.119133 0
M  V30 37 C 1.299982 2.996768 7.779442 0
M  V30 38 H 3.522933 -1.590045 5.130050 0
M  V30 39 H 4.506109 -0.853997 3.846795 0
M  V30 40 H 3.742972 0.162067 5.111671 0
M  V30 41 H 3.331631 -1.014821 1.765825 0
M  V30 42 H 2.861475 0.428740 -0.567692 0
M  V30 43 H 1.342560 -2.210703 -4.954652 0
M  V30 44 H -1.606277 -1.967698 -4.961527 0
M  V30 45 H -0.510182 -1.187794 -6.151139 0
M  V30 46 H -1.302696 0.061006 -3.439989 0
M  V30 47 H 0.866832 1.209487 -3.852905 0
M  V30 48 H 0.730824 0.769496 -5.664622 0
M  V30 49 H -0.862102 2.042896 -2.745376 0
M  V30 50 H -1.041295 3.707521 -3.439359 0
M  V30 51 H -2.429311 2.622544 -3.482784 0
M  V30 52 H -0.762087 3.909474 -5.475560 0
M  V30 53 H -1.636582 0.668309 -6.389625 0
M  V30 54 H -2.826678 1.020596 -5.000940 0
M  V30 55 H -1.325972 -3.512399 -3.535733 0
M  V30 56 H -1.657469 -6.228811 0.358132 0
M  V30 57 H -2.853482 -6.827458 2.450450 0
M  V30 58 H -4.797079 -5.368774 3.068332 0
M  V30 59 H -4.370651 -2.939149 -0.214352 0
M  V30 60 H -0.909007 -0.520490 1.535683 0
M  V30 61 H -0.992832 -0.191937 3.911895 0
M  V30 62 H 2.003525 1.719950 5.540935 0
M  V30 63 H 0.956644 0.850261 8.330358 0
M  V30 64 H 2.807685 2.287324 9.198221 0
M  V30 65 H 3.471032 2.473285 7.503851 0
M  V30 66 H 1.348149 3.622893 6.842087 0
M  V30 67 H 0.575191 3.342578 8.513821 0
M  V30 END ATOM
M  V30 BEGIN BOND
M  V30 1 1 1 2
M  V30 2 2 2 3
M  V30 3 1 3 4
M  V30 4 1 4 5
M  V30 5 1 5 6
M  V30 6 2 6 7
M  V30 7 1 7 8
M  V30 8 1 8 9
M  V30 9 1 9 10
M  V30 10 1 10 11
M  V30 11 1 11 12
M  V30 12 1 12 13
M  V30 13 1 13 14
M  V30 14 1 14 15
M  V30 15 1 14 16 CFG=3
M  V30 16 1 14 17
M  V30 17 2 9 18
M  V30 18 1 18 19
M  V30 19 1 19 20
M  V30 20 1 20 21
M  V30 21 2 21 22
M  V30 22 1 22 23
M  V30 23 2 23 24
M  V30 24 1 24 25
M  V30 25 2 25 26
M  V30 26 2 19 27
M  V30 27 1 27 28
M  V30 28 2 4 29
M  V30 29 1 29 30
M  V30 30 2 30 31
M  V30 31 1 31 32
M  V30 32 2 32 33
M  V30 33 1 32 34
M  V30 34 1 34 35
M  V30 35 1 35 36
M  V30 36 1 36 37
M  V30 37 1 31 2
M  V30 38 1 37 35
M  V30 39 2 28 5
M  V30 40 1 28 8
M  V30 41 1 17 12
M  V30 42 1 26 21
M  V30 43 1 1 38
M  V30 44 1 1 39
M  V30 45 1 1 40
M  V30 46 1 3 41
M  V30 47 1 6 42
M  V30 48 1 10 43
M  V30 49 1 11 44
M  V30 50 1 11 45
M  V30 51 1 12 46 CFG=1
M  V30 52 1 13 47
M  V30 53 1 13 48
M  V30 54 1 15 49
M  V30 55 1 15 50
M  V30 56 1 15 51
M  V30 57 1 16 52
M  V30 58 1 17 53
M  V30 59 1 17 54
M  V30 60 1 18 55
M  V30 61 1 22 56
M  V30 62 1 23 57
M  V30 63 1 24 58
M  V30 64 1 26 59
M  V30 65 1 29 60
M  V30 66 1 30 61
M  V30 67 1 34 62
M  V30 68 1 35 63
M  V30 69 1 36 64
M  V30 70 1 36 65
M  V30 71 1 37 66
M  V30 72 1 37 67
M  V30 END BOND
M  V30 END CTAB
M  END
>  <Dataset>  (310) 
ChEMBL_Kinases

>  <Ligand_Instance>  (310) 
nan

>  <PDB_ID>  (310) 
nan

>  <Standardized_SMILES>  (310) 
Cc1cc(-c2cnn3c(NC[C@H]4C[C@@](C)(O)C4)cc(Oc4cccnc4)nc23)ccc1C(=O)NC1CC1

>  <Name>  (310) 
LUVIXASERTIB

>  <Pocket>  (310) 
nan

>  <ATP_Site>  (310) 
nan

>  <Peripheral>  (310) 
nan

>  <Num_H_Atoms_ProtBoundConf>  (310) 
nan

>  <Num_Resolved_Atoms>  (310) 
nan

>  <Num_Not_Resolved_Atoms>  (310) 
nan

$$$$
CHEMBL4469413
     RDKit          3D

  0  0  0  0  0  0  0  0  0  0999 V3000
M  V30 BEGIN CTAB
M  V30 COUNTS 42 45 0 0 0
M  V30 BEGIN ATOM
M  V30 1 O 0.940934 -2.127629 1.602310 0
M  V30 2 C 0.143935 -2.701302 0.839203 0
M  V30 3 N 1.124391 -2.355002 -0.075188 0
M  V30 4 C 2.369447 -1.708057 -0.267973 0
M  V30 5 C 3.626669 -2.218219 -0.357057 0
M  V30 6 C 4.628079 -1.280734 -0.563316 0
M  V30 7 C 4.313006 0.056355 -0.664038 0
M  V30 8 C 3.013139 0.493911 -0.563765 0
M  V30 9 N 2.081025 -0.429660 -0.365170 0
M  V30 10 C 2.641165 1.884783 -0.687395 0
M  V30 11 N 3.485237 2.915371 -0.870685 0
M  V30 12 N 2.848762 4.071351 -0.954875 0
M  V30 13 C 1.551746 3.738911 -0.817206 0
M  V30 14 N 1.411926 2.408751 -0.653246 0
M  V30 15 C 0.127101 1.774413 -0.472491 0
M  V30 16 C -0.666758 2.209807 0.690220 0
M  V30 17 C -1.879498 1.287346 0.929969 0
M  V30 18 C -1.333576 -0.061072 1.332784 0
M  V30 19 O -2.323593 -1.020901 1.663354 0
M  V30 20 C -1.952766 -2.293452 2.108223 0
M  V30 21 C -2.828955 -2.828570 3.015099 0
M  V30 22 C -2.559716 -4.061760 3.519048 0
M  V30 23 C -1.502138 -4.872004 3.240331 0
M  V30 24 F -1.296089 -6.079758 3.775910 0
M  V30 25 C -0.627820 -4.297993 2.312184 0
M  V30 26 C -0.865205 -3.057825 1.779874 0
M  V30 27 H 1.036766 -2.666462 -1.062032 0
M  V30 28 H 3.507260 -3.265676 -0.247771 0
M  V30 29 H 5.590755 -1.758739 -0.621789 0
M  V30 30 H 5.136946 0.733475 -0.824290 0
M  V30 31 H 0.815553 4.559135 -0.855175 0
M  V30 32 H -0.545447 2.043768 -1.377922 0
M  V30 33 H 0.236137 0.701543 -0.588636 0
M  V30 34 H -1.145462 3.216934 0.530164 0
M  V30 35 H -0.147046 2.287199 1.655516 0
M  V30 36 H -2.472174 1.258010 0.006075 0
M  V30 37 H -2.435240 1.677247 1.819310 0
M  V30 38 H -0.889170 -0.496981 0.384368 0
M  V30 39 H -0.595665 0.111890 2.115475 0
M  V30 40 H -3.724632 -2.327851 3.355657 0
M  V30 41 H -3.256441 -4.503849 4.248699 0
M  V30 42 H 0.282303 -4.809250 1.997959 0
M  V30 END ATOM
M  V30 BEGIN BOND
M  V30 1 2 1 2
M  V30 2 1 2 3
M  V30 3 1 3 4
M  V30 4 1 4 5
M  V30 5 2 5 6
M  V30 6 1 6 7
M  V30 7 2 7 8
M  V30 8 1 8 9
M  V30 9 1 8 10
M  V30 10 2 10 11
M  V30 11 1 11 12
M  V30 12 2 12 13
M  V30 13 1 13 14
M  V30 14 1 14 15
M  V30 15 1 15 16
M  V30 16 1 16 17
M  V30 17 1 17 18
M  V30 18 1 18 19
M  V30 19 1 19 20
M  V30 20 2 20 21
M  V30 21 1 21 22
M  V30 22 2 22 23
M  V30 23 1 23 24
M  V30 24 1 23 25
M  V30 25 2 25 26
M  V30 26 1 26 2
M  V30 27 2 9 4
M  V30 28 1 14 10
M  V30 29 1 26 20
M  V30 30 1 3 27
M  V30 31 1 5 28
M  V30 32 1 6 29
M  V30 33 1 7 30
M  V30 34 1 13 31
M  V30 35 1 15 32
M  V30 36 1 15 33
M  V30 37 1 16 34
M  V30 38 1 16 35
M  V30 39 1 17 36
M  V30 40 1 17 37
M  V30 41 1 18 38
M  V30 42 1 18 39
M  V30 43 1 21 40
M  V30 44 1 22 41
M  V30 45 1 25 42
M  V30 END BOND
M  V30 END CTAB
M  END
>  <Dataset>  (311) 
ChEMBL_Kinases

>  <Ligand_Instance>  (311) 
nan

>  <PDB_ID>  (311) 
nan

>  <Standardized_SMILES>  (311) 
O=C1Nc2cccc(n2)-c2nncn2CCCCOc2ccc(F)cc21

>  <Name>  (311) 
nan

>  <Pocket>  (311) 
nan

>  <ATP_Site>  (311) 
nan

>  <Peripheral>  (311) 
nan

>  <Num_H_Atoms_ProtBoundConf>  (311) 
nan

>  <Num_Resolved_Atoms>  (311) 
nan

>  <Num_Not_Resolved_Atoms>  (311) 
nan

$$$$
CHEMBL4469412
     RDKit          3D

  0  0  0  0  0  0  0  0  0  0999 V3000
M  V30 BEGIN CTAB
M  V30 COUNTS 40 42 0 0 0
M  V30 BEGIN ATOM
M  V30 1 C -1.015814 -5.419650 0.637156 0
M  V30 2 C -0.724134 -4.246094 0.712391 0
M  V30 3 C -0.369678 -2.833544 0.827476 0
M  V30 4 C 0.522814 -2.446519 -0.333520 0
M  V30 5 C 1.765013 -3.311508 -0.267292 0
M  V30 6 C -0.258546 -2.735055 -1.589625 0
M  V30 7 N 0.444994 -2.423341 -2.804460 0
M  V30 8 C 0.878022 -1.020063 -0.163694 0
M  V30 9 C 1.691311 -0.465064 -1.121134 0
M  V30 10 C 2.071881 0.875637 -1.032326 0
M  V30 11 C 1.631644 1.655158 0.022219 0
M  V30 12 C 0.804936 1.075719 0.987834 0
M  V30 13 C 0.381809 1.960199 2.070853 0
M  V30 14 C 1.384867 2.745801 2.630398 0
M  V30 15 C 1.137117 3.632768 3.667376 0
M  V30 16 N -0.127803 3.726687 4.140835 0
M  V30 17 C -1.108043 2.993794 3.631831 0
M  V30 18 N -2.445628 2.839969 3.856508 0
M  V30 19 N -2.984015 1.941159 3.036917 0
M  V30 20 C -2.023652 1.440124 2.210709 0
M  V30 21 C -0.883446 2.105994 2.600735 0
M  V30 22 C 0.438495 -0.250230 0.884998 0
M  V30 23 H -1.274868 -6.448970 0.580444 0
M  V30 24 H 0.185207 -2.671739 1.779416 0
M  V30 25 H -1.288000 -2.204773 0.850458 0
M  V30 26 H 2.645179 -2.682651 -0.549165 0
M  V30 27 H 1.725501 -4.157338 -0.976829 0
M  V30 28 H 1.962291 -3.657159 0.767324 0
M  V30 29 H -0.413063 -3.834600 -1.600330 0
M  V30 30 H -1.248589 -2.279811 -1.523910 0
M  V30 31 H 1.118216 -3.150459 -3.095673 0
M  V30 32 H -0.201333 -2.112788 -3.563200 0
M  V30 33 H 2.108788 -0.931515 -1.985720 0
M  V30 34 H 2.713012 1.381640 -1.753061 0
M  V30 35 H 1.922445 2.692554 0.096514 0
M  V30 36 H 2.425881 2.721760 2.298644 0
M  V30 37 H 1.934921 4.241945 4.095397 0
M  V30 38 H -2.983121 3.368507 4.588732 0
M  V30 39 H -2.143691 0.709231 1.450480 0
M  V30 40 H -0.197439 -0.674219 1.640120 0
M  V30 END ATOM
M  V30 BEGIN BOND
M  V30 1 3 1 2
M  V30 2 1 2 3
M  V30 3 1 3 4
M  V30 4 1 4 5
M  V30 5 1 4 6
M  V30 6 1 6 7
M  V30 7 1 4 8
M  V30 8 2 8 9
M  V30 9 1 9 10
M  V30 10 2 10 11
M  V30 11 1 11 12
M  V30 12 1 12 13
M  V30 13 2 13 14
M  V30 14 1 14 15
M  V30 15 2 15 16
M  V30 16 1 16 17
M  V30 17 1 17 18
M  V30 18 1 18 19
M  V30 19 2 19 20
M  V30 20 1 20 21
M  V30 21 2 12 22
M  V30 22 1 22 8
M  V30 23 1 21 13
M  V30 24 2 21 17
M  V30 25 1 1 23
M  V30 26 1 3 24
M  V30 27 1 3 25
M  V30 28 1 5 26
M  V30 29 1 5 27
M  V30 30 1 5 28
M  V30 31 1 6 29
M  V30 32 1 6 30
M  V30 33 1 7 31
M  V30 34 1 7 32
M  V30 35 1 9 33
M  V30 36 1 10 34
M  V30 37 1 11 35
M  V30 38 1 14 36
M  V30 39 1 15 37
M  V30 40 1 18 38
M  V30 41 1 20 39
M  V30 42 1 22 40
M  V30 END BOND
M  V30 END CTAB
M  END
>  <Dataset>  (312) 
ChEMBL_Kinases

>  <Ligand_Instance>  (312) 
nan

>  <PDB_ID>  (312) 
nan

>  <Standardized_SMILES>  (312) 
C#CCC(C)(CN)c1cccc(-c2ccnc3[nH]ncc23)c1

>  <Name>  (312) 
nan

>  <Pocket>  (312) 
nan

>  <ATP_Site>  (312) 
nan

>  <Peripheral>  (312) 
nan

>  <Num_H_Atoms_ProtBoundConf>  (312) 
nan

>  <Num_Resolved_Atoms>  (312) 
nan

>  <Num_Not_Resolved_Atoms>  (312) 
nan

$$$$
CHEMBL4469408
     RDKit          3D

  0  0  0  0  0  0  0  0  0  0999 V3000
M  V30 BEGIN CTAB
M  V30 COUNTS 54 57 0 0 0
M  V30 BEGIN ATOM
M  V30 1 C 2.400931 -3.776936 6.401623 0
M  V30 2 N 2.905690 -4.006066 5.059120 0
M  V30 3 C 3.689434 -5.203048 4.778576 0
M  V30 4 C 2.538866 -2.963915 4.160990 0
M  V30 5 C 3.353725 -1.863985 3.988560 0
M  V30 6 C 3.034178 -0.832109 3.129301 0
M  V30 7 C 1.869347 -0.869744 2.403651 0
M  V30 8 C 1.510315 0.200481 1.495747 0
M  V30 9 C 2.209362 1.341657 1.222445 0
M  V30 10 C 1.841671 2.339274 0.355561 0
M  V30 11 N 2.642228 3.431975 0.179607 0
M  V30 12 C 2.236060 4.404882 -0.695249 0
M  V30 13 C 1.042053 4.244812 -1.360378 0
M  V30 14 N 0.283228 3.157320 -1.160654 0
M  V30 15 C 0.623035 2.148993 -0.306072 0
M  V30 16 C -0.109513 0.982299 -0.038638 0
M  V30 17 N -1.265999 1.040894 -0.814314 0
M  V30 18 C -2.416831 1.098968 -1.586052 0
M  V30 19 C -2.675165 0.019177 -2.599956 0 CFG=2
M  V30 20 C -3.985056 0.339766 -3.277787 0
M  V30 21 N -5.109604 -0.267976 -2.583535 0
M  V30 22 C -5.048061 -1.714497 -2.588472 0
M  V30 23 C -3.640545 -2.171382 -2.769353 0
M  V30 24 N -2.725255 -1.302621 -2.055796 0
M  V30 25 C -1.428359 -1.940674 -1.985937 0
M  V30 26 N 0.363365 0.082657 0.833911 0
M  V30 27 C 1.063786 -1.972284 2.583513 0
M  V30 28 N 1.399776 -2.966249 3.429358 0
M  V30 29 H 2.597165 -4.619086 7.091074 0
M  V30 30 H 1.323812 -3.535197 6.311994 0
M  V30 31 H 2.859458 -2.849033 6.845073 0
M  V30 32 H 4.376880 -5.070517 3.929823 0
M  V30 33 H 2.930112 -5.994951 4.564330 0
M  V30 34 H 4.191435 -5.518030 5.707327 0
M  V30 35 H 4.297987 -1.772816 4.539315 0
M  V30 36 H 3.654742 0.033462 2.980121 0
M  V30 37 H 3.138428 1.488655 1.725969 0
M  V30 38 H 2.825394 5.287728 -0.875089 0
M  V30 39 H 0.661969 4.970919 -2.061907 0
M  V30 40 H -1.654523 0.090623 -0.486129 0
M  V30 41 H -3.342487 1.243025 -0.986687 0
M  V30 42 H -2.335879 2.088547 -2.188727 0
M  V30 43 H -1.874333 0.038564 -3.378612 0
M  V30 44 H -3.914933 -0.021304 -4.325026 0
M  V30 45 H -4.130296 1.434741 -3.219261 0
M  V30 46 H -5.131769 0.105137 -1.593559 0
M  V30 47 H -5.503273 -2.150662 -1.682940 0
M  V30 48 H -5.645027 -2.024377 -3.494771 0
M  V30 49 H -3.506413 -3.202401 -2.368026 0
M  V30 50 H -3.425592 -2.199242 -3.857182 0
M  V30 51 H -0.594786 -1.240431 -2.180608 0
M  V30 52 H -1.369921 -2.691446 -2.814361 0
M  V30 53 H -1.281404 -2.375547 -0.993954 0
M  V30 54 H 0.141545 -2.021484 2.020744 0
M  V30 END ATOM
M  V30 BEGIN BOND
M  V30 1 1 1 2
M  V30 2 1 2 3
M  V30 3 1 2 4
M  V30 4 2 4 5
M  V30 5 1 5 6
M  V30 6 2 6 7
M  V30 7 1 7 8
M  V30 8 2 8 9
M  V30 9 1 9 10
M  V30 10 2 10 11
M  V30 11 1 11 12
M  V30 12 2 12 13
M  V30 13 1 13 14
M  V30 14 2 14 15
M  V30 15 1 15 16
M  V30 16 1 16 17
M  V30 17 1 17 18
M  V30 18 1 18 19
M  V30 19 1 19 20
M  V30 20 1 20 21
M  V30 21 1 21 22
M  V30 22 1 22 23
M  V30 23 1 23 24
M  V30 24 1 24 25
M  V30 25 2 16 26
M  V30 26 1 7 27
M  V30 27 2 27 28
M  V30 28 1 28 4
M  V30 29 1 26 8
M  V30 30 1 15 10
M  V30 31 1 24 19
M  V30 32 1 1 29
M  V30 33 1 1 30
M  V30 34 1 1 31
M  V30 35 1 3 32
M  V30 36 1 3 33
M  V30 37 1 3 34
M  V30 38 1 5 35
M  V30 39 1 6 36
M  V30 40 1 9 37
M  V30 41 1 12 38
M  V30 42 1 13 39
M  V30 43 1 17 40
M  V30 44 1 18 41
M  V30 45 1 18 42
M  V30 46 1 19 43 CFG=3
M  V30 47 1 20 44
M  V30 48 1 20 45
M  V30 49 1 21 46
M  V30 50 1 22 47
M  V30 51 1 22 48
M  V30 52 1 23 49
M  V30 53 1 23 50
M  V30 54 1 25 51
M  V30 55 1 25 52
M  V30 56 1 25 53
M  V30 57 1 27 54
M  V30 END BOND
M  V30 END CTAB
M  END
>  <Dataset>  (313) 
ChEMBL_Kinases

>  <Ligand_Instance>  (313) 
nan

>  <PDB_ID>  (313) 
nan

>  <Standardized_SMILES>  (313) 
CN(C)c1ccc(-c2cc3nccnc3c(NC[C@@H]3CNCCN3C)n2)cn1

>  <Name>  (313) 
nan

>  <Pocket>  (313) 
nan

>  <ATP_Site>  (313) 
nan

>  <Peripheral>  (313) 
nan

>  <Num_H_Atoms_ProtBoundConf>  (313) 
nan

>  <Num_Resolved_Atoms>  (313) 
nan

>  <Num_Not_Resolved_Atoms>  (313) 
nan

$$$$
CHEMBL470380
     RDKit          3D

  0  0  0  0  0  0  0  0  0  0999 V3000
M  V30 BEGIN CTAB
M  V30 COUNTS 38 41 0 0 0
M  V30 BEGIN ATOM
M  V30 1 F 2.126701 -1.739801 2.809299 0
M  V30 2 C 1.729600 -2.595822 1.825106 0
M  V30 3 C 0.895315 -3.607208 2.196686 0
M  V30 4 C 0.485691 -4.477939 1.219492 0
M  V30 5 C 0.907431 -4.333214 -0.104388 0
M  V30 6 C 1.741989 -3.302902 -0.418453 0
M  V30 7 C 2.165461 -3.179635 -1.816209 0
M  V30 8 C 1.185495 -2.296421 -2.601160 0
M  V30 9 C 1.161102 -0.935228 -1.961228 0
M  V30 10 N 1.950843 0.115232 -2.261681 0
M  V30 11 N 1.631396 1.142060 -1.483204 0
M  V30 12 C 0.625057 0.719611 -0.685784 0
M  V30 13 C -0.007605 1.569373 0.320261 0
M  V30 14 C 0.368291 2.883852 0.545833 0
M  V30 15 C -0.242552 3.672436 1.502774 0
M  V30 16 C -1.260710 3.120329 2.253147 0
M  V30 17 C -1.662330 1.808280 2.053946 0
M  V30 18 C -1.040409 1.020755 1.086600 0
M  V30 19 C -2.779801 1.514361 3.018724 0
M  V30 20 C -2.454160 2.538259 4.104127 0
M  V30 21 O -2.059682 3.635877 3.271345 0
M  V30 22 O 0.363194 -0.516422 -0.987875 0
M  V30 23 C 2.188551 -2.389512 0.535716 0
M  V30 24 H 0.567750 -3.721314 3.219710 0
M  V30 25 H -0.184934 -5.312317 1.451886 0
M  V30 26 H 0.565488 -5.034876 -0.842014 0
M  V30 27 H 2.329724 -4.119388 -2.349885 0
M  V30 28 H 3.154535 -2.635128 -1.829992 0
M  V30 29 H 1.461343 -2.238867 -3.653120 0
M  V30 30 H 0.168206 -2.733168 -2.501679 0
M  V30 31 H 1.174541 3.215290 -0.096236 0
M  V30 32 H 0.086663 4.685815 1.637948 0
M  V30 33 H -1.389247 0.009039 0.971457 0
M  V30 34 H -2.730905 0.485780 3.399431 0
M  V30 35 H -3.756804 1.792202 2.583095 0
M  V30 36 H -1.533042 2.221771 4.638378 0
M  V30 37 H -3.302782 2.777561 4.745185 0
M  V30 38 H 2.845315 -1.579855 0.284942 0
M  V30 END ATOM
M  V30 BEGIN BOND
M  V30 1 1 1 2
M  V30 2 2 2 3
M  V30 3 1 3 4
M  V30 4 2 4 5
M  V30 5 1 5 6
M  V30 6 1 6 7
M  V30 7 1 7 8
M  V30 8 1 8 9
M  V30 9 2 9 10
M  V30 10 1 10 11
M  V30 11 2 11 12
M  V30 12 1 12 13
M  V30 13 2 13 14
M  V30 14 1 14 15
M  V30 15 2 15 16
M  V30 16 1 16 17
M  V30 17 2 17 18
M  V30 18 1 17 19
M  V30 19 1 19 20
M  V30 20 1 20 21
M  V30 21 1 12 22
M  V30 22 2 6 23
M  V30 23 1 23 2
M  V30 24 1 22 9
M  V30 25 1 18 13
M  V30 26 1 21 16
M  V30 27 1 3 24
M  V30 28 1 4 25
M  V30 29 1 5 26
M  V30 30 1 7 27
M  V30 31 1 7 28
M  V30 32 1 8 29
M  V30 33 1 8 30
M  V30 34 1 14 31
M  V30 35 1 15 32
M  V30 36 1 18 33
M  V30 37 1 19 34
M  V30 38 1 19 35
M  V30 39 1 20 36
M  V30 40 1 20 37
M  V30 41 1 23 38
M  V30 END BOND
M  V30 END CTAB
M  END
>  <Dataset>  (314) 
ChEMBL_Kinases

>  <Ligand_Instance>  (314) 
nan

>  <PDB_ID>  (314) 
nan

>  <Standardized_SMILES>  (314) 
Fc1cccc(CCc2nnc(-c3ccc4c(c3)CCO4)o2)c1

>  <Name>  (314) 
nan

>  <Pocket>  (314) 
nan

>  <ATP_Site>  (314) 
nan

>  <Peripheral>  (314) 
nan

>  <Num_H_Atoms_ProtBoundConf>  (314) 
nan

>  <Num_Resolved_Atoms>  (314) 
nan

>  <Num_Not_Resolved_Atoms>  (314) 
nan

$$$$
CHEMBL4469319
     RDKit          3D

  0  0  0  0  0  0  0  0  0  0999 V3000
M  V30 BEGIN CTAB
M  V30 COUNTS 73 76 0 0 0
M  V30 BEGIN ATOM
M  V30 1 C 5.928637 -3.183992 1.460991 0
M  V30 2 C 6.483037 -2.622673 0.172951 0
M  V30 3 C 5.395767 -2.099184 -0.699975 0 CFG=2
M  V30 4 C 5.951966 -1.561869 -1.996653 0
M  V30 5 O 7.188736 -1.469388 -2.286027 0
M  V30 6 N 5.008351 -1.116571 -2.983894 0
M  V30 7 C 5.257526 -1.199667 -4.416481 0
M  V30 8 C 3.796439 -0.593048 -2.448030 0
M  V30 9 C 2.873233 -0.150261 -3.379147 0
M  V30 10 N 1.701689 0.365295 -2.902029 0
M  V30 11 C 1.478163 0.426999 -1.577880 0
M  V30 12 N 0.374995 0.918083 -0.836356 0
M  V30 13 C -0.888099 0.373530 -0.457761 0
M  V30 14 C -1.088132 -0.906136 -0.998647 0
M  V30 15 C -2.279286 -1.609077 -0.748524 0
M  V30 16 C -3.239855 -1.014680 0.036483 0
M  V30 17 C -4.489432 -1.742175 0.320446 0
M  V30 18 O -4.517504 -2.859807 -0.261105 0
M  V30 19 N -5.530598 -1.311868 1.125077 0
M  V30 20 C -6.799208 -1.783260 1.614802 0
M  V30 21 C -7.953318 -1.053146 1.081041 0
M  V30 22 C -8.834009 -1.799844 0.125126 0
M  V30 23 O -8.499262 -3.135246 -0.072955 0
M  V30 24 C -8.246865 -3.782091 1.140160 0
M  V30 25 C -6.869954 -3.302148 1.543250 0
M  V30 26 C -2.984961 0.234102 0.534031 0
M  V30 27 C -1.861139 0.994482 0.347745 0
M  V30 28 O -1.391477 2.179658 0.705549 0
M  V30 29 C -1.816062 3.217413 1.463250 0
M  V30 30 C -2.042658 3.018437 2.926812 0
M  V30 31 O -2.991785 2.072849 3.237229 0
M  V30 32 N 2.418687 -0.021000 -0.745235 0
M  V30 33 C 3.604447 -0.546554 -1.062155 0
M  V30 34 N 4.610868 -1.019293 -0.132686 0
M  V30 35 C 4.623089 -0.327526 1.113526 0
M  V30 36 C 3.580932 0.741555 1.293748 0
M  V30 37 C 6.009608 0.297229 1.277922 0
M  V30 38 H 4.828907 -3.300576 1.456032 0
M  V30 39 H 6.360036 -4.217200 1.660336 0
M  V30 40 H 6.200858 -2.598314 2.361269 0
M  V30 41 H 7.002305 -3.469383 -0.369625 0
M  V30 42 H 7.298845 -1.894734 0.352366 0
M  V30 43 H 4.714035 -2.924163 -0.969812 0
M  V30 44 H 6.186640 -1.778892 -4.614298 0
M  V30 45 H 4.444318 -1.864573 -4.841871 0
M  V30 46 H 5.289714 -0.232601 -4.924485 0
M  V30 47 H 3.026705 -0.191319 -4.442753 0
M  V30 48 H 0.616101 1.885465 -0.535691 0
M  V30 49 H -0.360532 -1.426506 -1.628446 0
M  V30 50 H -2.386061 -2.587730 -1.186903 0
M  V30 51 H -5.336362 -0.334963 1.482745 0
M  V30 52 H -6.733252 -1.626322 2.747550 0
M  V30 53 H -7.577312 -0.135545 0.533708 0
M  V30 54 H -8.589064 -0.620867 1.879056 0
M  V30 55 H -8.894601 -1.324528 -0.869283 0
M  V30 56 H -9.902378 -1.805661 0.480445 0
M  V30 57 H -8.952274 -3.493423 1.947453 0
M  V30 58 H -8.203698 -4.868699 0.936560 0
M  V30 59 H -6.166508 -3.774093 0.862850 0
M  V30 60 H -6.677866 -3.776008 2.559505 0
M  V30 61 H -3.709710 0.742227 1.128701 0
M  V30 62 H -1.004164 4.027588 1.392319 0
M  V30 63 H -2.775779 3.704165 1.063737 0
M  V30 64 H -2.420780 4.009791 3.320343 0
M  V30 65 H -1.089510 2.807730 3.478329 0
M  V30 66 H -3.559928 2.330466 3.998968 0
M  V30 67 H 4.458690 -1.035631 1.964114 0
M  V30 68 H 3.606616 1.547909 0.537032 0
M  V30 69 H 3.895136 1.282328 2.247456 0
M  V30 70 H 2.598716 0.340126 1.539563 0
M  V30 71 H 6.538281 0.372097 0.308426 0
M  V30 72 H 5.916641 1.375006 1.612728 0
M  V30 73 H 6.635401 -0.277920 1.980102 0
M  V30 END ATOM
M  V30 BEGIN BOND
M  V30 1 1 1 2
M  V30 2 1 2 3
M  V30 3 1 3 4
M  V30 4 2 4 5
M  V30 5 1 4 6
M  V30 6 1 6 7
M  V30 7 1 6 8
M  V30 8 2 8 9
M  V30 9 1 9 10
M  V30 10 2 10 11
M  V30 11 1 11 12
M  V30 12 1 12 13
M  V30 13 2 13 14
M  V30 14 1 14 15
M  V30 15 2 15 16
M  V30 16 1 16 17
M  V30 17 2 17 18
M  V30 18 1 17 19
M  V30 19 1 19 20
M  V30 20 1 20 21
M  V30 21 1 21 22
M  V30 22 1 22 23
M  V30 23 1 23 24
M  V30 24 1 24 25
M  V30 25 1 16 26
M  V30 26 2 26 27
M  V30 27 1 27 28
M  V30 28 1 28 29
M  V30 29 1 29 30
M  V30 30 1 30 31
M  V30 31 1 11 32
M  V30 32 2 32 33
M  V30 33 1 33 34
M  V30 34 1 34 35
M  V30 35 1 35 36
M  V30 36 1 35 37
M  V30 37 1 34 3
M  V30 38 1 33 8
M  V30 39 1 27 13
M  V30 40 1 25 20
M  V30 41 1 1 38
M  V30 42 1 1 39
M  V30 43 1 1 40
M  V30 44 1 2 41
M  V30 45 1 2 42
M  V30 46 1 3 43 CFG=3
M  V30 47 1 7 44
M  V30 48 1 7 45
M  V30 49 1 7 46
M  V30 50 1 9 47
M  V30 51 1 12 48
M  V30 52 1 14 49
M  V30 53 1 15 50
M  V30 54 1 19 51
M  V30 55 1 20 52
M  V30 56 1 21 53
M  V30 57 1 21 54
M  V30 58 1 22 55
M  V30 59 1 22 56
M  V30 60 1 24 57
M  V30 61 1 24 58
M  V30 62 1 25 59
M  V30 63 1 25 60
M  V30 64 1 26 61
M  V30 65 1 29 62
M  V30 66 1 29 63
M  V30 67 1 30 64
M  V30 68 1 30 65
M  V30 69 1 31 66
M  V30 70 1 35 67
M  V30 71 1 36 68
M  V30 72 1 36 69
M  V30 73 1 36 70
M  V30 74 1 37 71
M  V30 75 1 37 72
M  V30 76 1 37 73
M  V30 END BOND
M  V30 END CTAB
M  END
>  <Dataset>  (315) 
ChEMBL_Kinases

>  <Ligand_Instance>  (315) 
nan

>  <PDB_ID>  (315) 
nan

>  <Standardized_SMILES>  (315) 
CC[C@@H]1C(=O)N(C)c2cnc(Nc3ccc(C(=O)NC4CCOCC4)cc3OCCO)nc2N1C(C)C

>  <Name>  (315) 
nan

>  <Pocket>  (315) 
nan

>  <ATP_Site>  (315) 
nan

>  <Peripheral>  (315) 
nan

>  <Num_H_Atoms_ProtBoundConf>  (315) 
nan

>  <Num_Resolved_Atoms>  (315) 
nan

>  <Num_Not_Resolved_Atoms>  (315) 
nan

$$$$
CHEMBL4469087
     RDKit          3D

  0  0  0  0  0  0  0  0  0  0999 V3000
M  V30 BEGIN CTAB
M  V30 COUNTS 76 80 0 0 0
M  V30 BEGIN ATOM
M  V30 1 C 4.212436 -2.525026 4.081552 0
M  V30 2 C 4.102217 -2.362136 2.580248 0
M  V30 3 O 3.000643 -1.539626 2.338655 0
M  V30 4 C 2.509703 -1.111280 1.131854 0
M  V30 5 C 3.073869 -1.457115 -0.081885 0
M  V30 6 C 2.497344 -0.968335 -1.241133 0
M  V30 7 C 3.032419 -1.288657 -2.568975 0
M  V30 8 C 2.978248 -2.768420 -2.882345 0
M  V30 9 C 3.231197 -2.862098 -4.372428 0
M  V30 10 N 4.541425 -2.348179 -4.722765 0
M  V30 11 C 4.827851 -2.478313 -6.116857 0
M  V30 12 C 4.732679 -0.990110 -4.251307 0
M  V30 13 C 4.478032 -0.877461 -2.763600 0
M  V30 14 C 1.378570 -0.149850 -1.184177 0
M  V30 15 C 0.806332 0.202046 0.026893 0
M  V30 16 C 1.382171 -0.287277 1.202177 0
M  V30 17 N 0.793051 0.070022 2.473490 0
M  V30 18 C -0.356214 0.915151 2.493876 0
M  V30 19 N -0.350598 2.279107 2.582606 0
M  V30 20 C -1.499627 2.978248 2.590997 0
M  V30 21 C -2.726135 2.351057 2.510791 0
M  V30 22 C -2.726873 0.972412 2.421294 0
M  V30 23 N -1.555450 0.311906 2.416100 0
M  V30 24 N -3.914852 0.201639 2.332379 0
M  V30 25 C -4.055837 -1.160778 2.768907 0
M  V30 26 C -3.164093 -2.135289 2.154004 0
M  V30 27 C -3.536539 -2.703688 0.948497 0
M  V30 28 C -2.763344 -3.642741 0.299828 0
M  V30 29 C -1.554558 -4.066083 0.839452 0
M  V30 30 C -1.174619 -3.497844 2.052381 0
M  V30 31 C -1.957161 -2.551548 2.703134 0
M  V30 32 C -5.048659 0.920137 1.740580 0 CFG=2
M  V30 33 C -4.933928 1.100188 0.262127 0
M  V30 34 C -6.084398 1.834765 -0.372065 0
M  V30 35 C -5.208375 2.253551 2.421904 0
M  V30 36 O -6.232861 2.803756 2.918538 0
M  V30 37 N -3.989295 3.004581 2.511336 0
M  V30 38 C -3.989148 4.463254 2.606892 0
M  V30 39 H 3.357991 -2.083695 4.637218 0
M  V30 40 H 5.125066 -2.037169 4.481641 0
M  V30 41 H 4.331112 -3.610928 4.363502 0
M  V30 42 H 4.087146 -3.335102 2.056109 0
M  V30 43 H 5.003435 -1.807726 2.247558 0
M  V30 44 H 3.943968 -2.093970 -0.116278 0
M  V30 45 H 2.462697 -0.789421 -3.399923 0
M  V30 46 H 2.025930 -3.249915 -2.666513 0
M  V30 47 H 3.847239 -3.276827 -2.399682 0
M  V30 48 H 2.504910 -2.157280 -4.871257 0
M  V30 49 H 3.130122 -3.864060 -4.786593 0
M  V30 50 H 5.661181 -3.202763 -6.239079 0
M  V30 51 H 5.105184 -1.535475 -6.598081 0
M  V30 52 H 3.934011 -2.905305 -6.645916 0
M  V30 53 H 4.077764 -0.334459 -4.837547 0
M  V30 54 H 5.770447 -0.704466 -4.472093 0
M  V30 55 H 4.592890 0.177471 -2.479001 0
M  V30 56 H 5.179293 -1.548695 -2.237422 0
M  V30 57 H 0.883679 0.261299 -2.037631 0
M  V30 58 H -0.070464 0.842208 0.096032 0
M  V30 59 H 1.235886 -0.306834 3.319426 0
M  V30 60 H -1.493151 4.036555 2.660068 0
M  V30 61 H -3.935358 -1.117231 3.893662 0
M  V30 62 H -5.092560 -1.541232 2.641230 0
M  V30 63 H -4.464054 -2.421540 0.471171 0
M  V30 64 H -2.987794 -4.127415 -0.638094 0
M  V30 65 H -0.880342 -4.792082 0.411417 0
M  V30 66 H -0.237451 -3.773792 2.548529 0
M  V30 67 H -1.621224 -2.147490 3.647296 0
M  V30 68 H -5.952160 0.331284 1.989053 0
M  V30 69 H -4.897887 0.082130 -0.196012 0
M  V30 70 H -4.018747 1.615147 -0.057147 0
M  V30 71 H -7.067447 1.378549 -0.166773 0
M  V30 72 H -5.926879 1.753159 -1.480319 0
M  V30 73 H -6.053527 2.924559 -0.167754 0
M  V30 74 H -5.036818 4.802587 2.419657 0
M  V30 75 H -3.705083 4.794689 3.631869 0
M  V30 76 H -3.342024 4.895444 1.812175 0
M  V30 END ATOM
M  V30 BEGIN BOND
M  V30 1 1 1 2
M  V30 2 1 2 3
M  V30 3 1 3 4
M  V30 4 2 4 5
M  V30 5 1 5 6
M  V30 6 1 6 7
M  V30 7 1 7 8
M  V30 8 1 8 9
M  V30 9 1 9 10
M  V30 10 1 10 11
M  V30 11 1 10 12
M  V30 12 1 12 13
M  V30 13 2 6 14
M  V30 14 1 14 15
M  V30 15 2 15 16
M  V30 16 1 16 17
M  V30 17 1 17 18
M  V30 18 2 18 19
M  V30 19 1 19 20
M  V30 20 2 20 21
M  V30 21 1 21 22
M  V30 22 2 22 23
M  V30 23 1 22 24
M  V30 24 1 24 25
M  V30 25 1 25 26
M  V30 26 2 26 27
M  V30 27 1 27 28
M  V30 28 2 28 29
M  V30 29 1 29 30
M  V30 30 2 30 31
M  V30 31 1 24 32
M  V30 32 1 32 33
M  V30 33 1 33 34
M  V30 34 1 32 35
M  V30 35 2 35 36
M  V30 36 1 35 37
M  V30 37 1 37 38
M  V30 38 1 16 4
M  V30 39 1 23 18
M  V30 40 1 31 26
M  V30 41 1 13 7
M  V30 42 1 37 21
M  V30 43 1 1 39
M  V30 44 1 1 40
M  V30 45 1 1 41
M  V30 46 1 2 42
M  V30 47 1 2 43
M  V30 48 1 5 44
M  V30 49 1 7 45
M  V30 50 1 8 46
M  V30 51 1 8 47
M  V30 52 1 9 48
M  V30 53 1 9 49
M  V30 54 1 11 50
M  V30 55 1 11 51
M  V30 56 1 11 52
M  V30 57 1 12 53
M  V30 58 1 12 54
M  V30 59 1 13 55
M  V30 60 1 13 56
M  V30 61 1 14 57
M  V30 62 1 15 58
M  V30 63 1 17 59
M  V30 64 1 20 60
M  V30 65 1 25 61
M  V30 66 1 25 62
M  V30 67 1 27 63
M  V30 68 1 28 64
M  V30 69 1 29 65
M  V30 70 1 30 66
M  V30 71 1 31 67
M  V30 72 1 32 68 CFG=3
M  V30 73 1 33 69
M  V30 74 1 33 70
M  V30 75 1 34 71
M  V30 76 1 34 72
M  V30 77 1 34 73
M  V30 78 1 38 74
M  V30 79 1 38 75
M  V30 80 1 38 76
M  V30 END BOND
M  V30 END CTAB
M  END
>  <Dataset>  (316) 
ChEMBL_Kinases

>  <Ligand_Instance>  (316) 
nan

>  <PDB_ID>  (316) 
nan

>  <Standardized_SMILES>  (316) 
CCOc1cc(C2CCN(C)CC2)ccc1Nc1ncc2c(n1)N(Cc1ccccc1)[C@H](CC)C(=O)N2C

>  <Name>  (316) 
nan

>  <Pocket>  (316) 
nan

>  <ATP_Site>  (316) 
nan

>  <Peripheral>  (316) 
nan

>  <Num_H_Atoms_ProtBoundConf>  (316) 
nan

>  <Num_Resolved_Atoms>  (316) 
nan

>  <Num_Not_Resolved_Atoms>  (316) 
nan

$$$$
CHEMBL471135
     RDKit          3D

  0  0  0  0  0  0  0  0  0  0999 V3000
M  V30 BEGIN CTAB
M  V30 COUNTS 53 54 0 0 0
M  V30 BEGIN ATOM
M  V30 1 C 0.631586 4.058175 6.172414 0
M  V30 2 C 0.604952 3.001263 5.097008 0
M  V30 3 C 2.025718 2.550595 4.778233 0
M  V30 4 C 2.036210 1.481097 3.693152 0
M  V30 5 C 3.465011 1.087579 3.432177 0
M  V30 6 C 3.590691 0.023765 2.362039 0
M  V30 7 C 3.026607 0.503049 1.078372 0
M  V30 8 C 2.027894 0.032895 0.350686 0
M  V30 9 C 1.418384 0.460229 -0.931279 0
M  V30 10 C 0.319099 -0.557864 -1.120484 0
M  V30 11 C -1.025697 0.054574 -0.736656 0
M  V30 12 O -0.985388 0.489822 0.583746 0
M  V30 13 C 0.180191 -1.022209 -2.530983 0
M  V30 14 O -0.854269 -1.951985 -2.648976 0
M  V30 15 C -0.977973 -3.197994 -2.109948 0
M  V30 16 O -0.153759 -3.775676 -1.382720 0
M  V30 17 C -2.217450 -3.945756 -2.417415 0
M  V30 18 C -2.388969 -5.225777 -1.887921 0
M  V30 19 C -3.554136 -5.902170 -2.189430 0
M  V30 20 C -4.559047 -5.384949 -2.984500 0
M  V30 21 N -5.756722 -6.108698 -3.280167 0 CHG=1 VAL=4
M  V30 22 O -5.886557 -7.249726 -2.796219 0
M  V30 23 O -6.674630 -5.470089 -4.086449 0 CHG=-1 VAL=1
M  V30 24 C -4.377021 -4.108060 -3.506825 0
M  V30 25 C -3.217107 -3.421765 -3.212945 0
M  V30 26 O 0.633867 -1.654043 -0.303378 0
M  V30 27 C 1.293676 -1.155414 0.815029 0
M  V30 28 O 1.264197 -1.628495 1.982122 0
M  V30 29 H 1.670500 4.234086 6.516248 0
M  V30 30 H 0.024340 3.793908 7.069467 0
M  V30 31 H 0.223809 5.024684 5.803117 0
M  V30 32 H -0.022501 2.186361 5.467213 0
M  V30 33 H 0.138968 3.460282 4.182263 0
M  V30 34 H 2.559868 3.451661 4.408118 0
M  V30 35 H 2.465173 2.160375 5.720495 0
M  V30 36 H 1.502241 1.892234 2.831190 0
M  V30 37 H 1.449399 0.610563 4.046838 0
M  V30 38 H 4.053282 1.968466 3.105262 0
M  V30 39 H 3.893930 0.756444 4.398350 0
M  V30 40 H 3.359805 -0.981682 2.663202 0
M  V30 41 H 4.710252 -0.009895 2.160357 0
M  V30 42 H 3.507451 1.397011 0.647820 0
M  V30 43 H 2.115993 0.355522 -1.779924 0
M  V30 44 H 0.951324 1.443774 -0.825382 0
M  V30 45 H -1.136472 0.956897 -1.368719 0
M  V30 46 H -1.834976 -0.634401 -0.975711 0
M  V30 47 H -1.496664 1.306811 0.718754 0
M  V30 48 H 1.153353 -1.497432 -2.887443 0
M  V30 49 H -0.017491 -0.192894 -3.245722 0
M  V30 50 H -1.648968 -5.677224 -1.268134 0
M  V30 51 H -3.772438 -6.904077 -1.820276 0
M  V30 52 H -5.135733 -3.669735 -4.130319 0
M  V30 53 H -3.017737 -2.428092 -3.588142 0
M  V30 END ATOM
M  V30 BEGIN BOND
M  V30 1 1 1 2
M  V30 2 1 2 3
M  V30 3 1 3 4
M  V30 4 1 4 5
M  V30 5 1 5 6
M  V30 6 1 6 7
M  V30 7 2 7 8
M  V30 8 1 8 9
M  V30 9 1 9 10
M  V30 10 1 10 11
M  V30 11 1 11 12
M  V30 12 1 10 13
M  V30 13 1 13 14
M  V30 14 1 14 15
M  V30 15 2 15 16
M  V30 16 1 15 17
M  V30 17 2 17 18
M  V30 18 1 18 19
M  V30 19 2 19 20
M  V30 20 1 20 21
M  V30 21 2 21 22
M  V30 22 1 21 23
M  V30 23 1 20 24
M  V30 24 2 24 25
M  V30 25 1 10 26
M  V30 26 1 26 27
M  V30 27 2 27 28
M  V30 28 1 27 8
M  V30 29 1 25 17
M  V30 30 1 1 29
M  V30 31 1 1 30
M  V30 32 1 1 31
M  V30 33 1 2 32
M  V30 34 1 2 33
M  V30 35 1 3 34
M  V30 36 1 3 35
M  V30 37 1 4 36
M  V30 38 1 4 37
M  V30 39 1 5 38
M  V30 40 1 5 39
M  V30 41 1 6 40
M  V30 42 1 6 41
M  V30 43 1 7 42
M  V30 44 1 9 43
M  V30 45 1 9 44
M  V30 46 1 11 45
M  V30 47 1 11 46
M  V30 48 1 12 47
M  V30 49 1 13 48
M  V30 50 1 13 49
M  V30 51 1 18 50
M  V30 52 1 19 51
M  V30 53 1 24 52
M  V30 54 1 25 53
M  V30 END BOND
M  V30 END CTAB
M  END
>  <Dataset>  (317) 
ChEMBL_Kinases

>  <Ligand_Instance>  (317) 
nan

>  <PDB_ID>  (317) 
nan

>  <Standardized_SMILES>  (317) 
CCCCCC/C=C1/CC(CO)(COC(=O)c2ccc([N+](=O)[O-])cc2)OC1=O

>  <Name>  (317) 
nan

>  <Pocket>  (317) 
nan

>  <ATP_Site>  (317) 
nan

>  <Peripheral>  (317) 
nan

>  <Num_H_Atoms_ProtBoundConf>  (317) 
nan

>  <Num_Resolved_Atoms>  (317) 
nan

>  <Num_Not_Resolved_Atoms>  (317) 
nan

$$$$
CHEMBL471136
     RDKit          3D

  0  0  0  0  0  0  0  0  0  0999 V3000
M  V30 BEGIN CTAB
M  V30 COUNTS 54 55 0 0 0
M  V30 BEGIN ATOM
M  V30 1 C 2.018865 -4.815178 6.037406 0
M  V30 2 C 2.702929 -5.170642 4.739384 0
M  V30 3 C 2.788132 -3.977106 3.795452 0
M  V30 4 C 3.551002 -2.844127 4.383285 0
M  V30 5 C 3.670237 -1.661490 3.479509 0
M  V30 6 C 2.332433 -1.106671 3.125763 0
M  V30 7 C 2.422279 0.080122 2.235868 0
M  V30 8 C 1.973031 0.303966 1.017493 0
M  V30 9 C 1.978048 1.407162 0.015179 0
M  V30 10 C 0.575974 1.209928 -0.524085 0
M  V30 11 C -0.361460 1.561077 0.622983 0
M  V30 12 O -0.346729 2.945224 0.830313 0
M  V30 13 C 0.274901 1.957242 -1.752688 0
M  V30 14 O -0.985312 1.619573 -2.254805 0
M  V30 15 C -1.468567 0.458030 -2.730468 0
M  V30 16 O -0.815188 -0.603669 -2.817111 0
M  V30 17 C -2.859390 0.430292 -3.180305 0
M  V30 18 C -3.428593 -0.728388 -3.682459 0
M  V30 19 C -4.746071 -0.797636 -4.120510 0
M  V30 20 C -5.528202 0.338323 -4.054271 0
M  V30 21 C -6.934151 0.165808 -4.549087 0
M  V30 22 C -5.002927 1.502580 -3.564534 0
M  V30 23 C -3.685006 1.531370 -3.137559 0
M  V30 24 O 0.592270 -0.173587 -0.767402 0
M  V30 25 C 1.241846 -0.748588 0.317423 0
M  V30 26 O 1.170504 -1.974415 0.592889 0
M  V30 27 H 1.312172 -5.641145 6.332496 0
M  V30 28 H 2.722606 -4.648479 6.864401 0
M  V30 29 H 1.346326 -3.925901 5.871525 0
M  V30 30 H 2.073210 -5.928968 4.229726 0
M  V30 31 H 3.685298 -5.615219 4.945888 0
M  V30 32 H 3.250063 -4.328359 2.864569 0
M  V30 33 H 1.720934 -3.671081 3.653221 0
M  V30 34 H 3.031632 -2.497159 5.326793 0
M  V30 35 H 4.554863 -3.179931 4.767198 0
M  V30 36 H 4.253838 -0.890644 4.052060 0
M  V30 37 H 4.304916 -1.872011 2.591745 0
M  V30 38 H 1.667162 -1.889788 2.792690 0
M  V30 39 H 1.889400 -0.746900 4.109229 0
M  V30 40 H 2.957953 0.955426 2.637914 0
M  V30 41 H 2.176536 2.389453 0.434667 0
M  V30 42 H 2.670375 1.123096 -0.815194 0
M  V30 43 H -0.132092 0.999737 1.532210 0
M  V30 44 H -1.376981 1.293424 0.294021 0
M  V30 45 H 0.053483 3.173417 1.705434 0
M  V30 46 H 0.380795 3.055550 -1.667346 0
M  V30 47 H 1.016218 1.631040 -2.549395 0
M  V30 48 H -2.819888 -1.614707 -3.734624 0
M  V30 49 H -5.128726 -1.752807 -4.506948 0
M  V30 50 H -6.940810 -0.080766 -5.634862 0
M  V30 51 H -7.438733 -0.708685 -4.043573 0
M  V30 52 H -7.505639 1.099463 -4.413151 0
M  V30 53 H -5.654629 2.371711 -3.530786 0
M  V30 54 H -3.310179 2.467579 -2.758871 0
M  V30 END ATOM
M  V30 BEGIN BOND
M  V30 1 1 1 2
M  V30 2 1 2 3
M  V30 3 1 3 4
M  V30 4 1 4 5
M  V30 5 1 5 6
M  V30 6 1 6 7
M  V30 7 2 7 8
M  V30 8 1 8 9
M  V30 9 1 9 10
M  V30 10 1 10 11
M  V30 11 1 11 12
M  V30 12 1 10 13
M  V30 13 1 13 14
M  V30 14 1 14 15
M  V30 15 2 15 16
M  V30 16 1 15 17
M  V30 17 2 17 18
M  V30 18 1 18 19
M  V30 19 2 19 20
M  V30 20 1 20 21
M  V30 21 1 20 22
M  V30 22 2 22 23
M  V30 23 1 10 24
M  V30 24 1 24 25
M  V30 25 2 25 26
M  V30 26 1 25 8
M  V30 27 1 23 17
M  V30 28 1 1 27
M  V30 29 1 1 28
M  V30 30 1 1 29
M  V30 31 1 2 30
M  V30 32 1 2 31
M  V30 33 1 3 32
M  V30 34 1 3 33
M  V30 35 1 4 34
M  V30 36 1 4 35
M  V30 37 1 5 36
M  V30 38 1 5 37
M  V30 39 1 6 38
M  V30 40 1 6 39
M  V30 41 1 7 40
M  V30 42 1 9 41
M  V30 43 1 9 42
M  V30 44 1 11 43
M  V30 45 1 11 44
M  V30 46 1 12 45
M  V30 47 1 13 46
M  V30 48 1 13 47
M  V30 49 1 18 48
M  V30 50 1 19 49
M  V30 51 1 21 50
M  V30 52 1 21 51
M  V30 53 1 21 52
M  V30 54 1 22 53
M  V30 55 1 23 54
M  V30 END BOND
M  V30 END CTAB
M  END
>  <Dataset>  (318) 
ChEMBL_Kinases

>  <Ligand_Instance>  (318) 
nan

>  <PDB_ID>  (318) 
nan

>  <Standardized_SMILES>  (318) 
CCCCCC/C=C1/CC(CO)(COC(=O)c2ccc(C)cc2)OC1=O

>  <Name>  (318) 
nan

>  <Pocket>  (318) 
nan

>  <ATP_Site>  (318) 
nan

>  <Peripheral>  (318) 
nan

>  <Num_H_Atoms_ProtBoundConf>  (318) 
nan

>  <Num_Resolved_Atoms>  (318) 
nan

>  <Num_Not_Resolved_Atoms>  (318) 
nan

$$$$
CHEMBL4468845
     RDKit          3D

  0  0  0  0  0  0  0  0  0  0999 V3000
M  V30 BEGIN CTAB
M  V30 COUNTS 45 48 0 0 0
M  V30 BEGIN ATOM
M  V30 1 C -4.732573 -5.103890 0.193046 0
M  V30 2 O -3.640095 -4.533781 0.877958 0
M  V30 3 C -2.671023 -3.764689 0.247975 0
M  V30 4 C -2.706306 -3.499335 -1.106902 0
M  V30 5 C -1.759206 -2.739126 -1.763729 0
M  V30 6 C -0.733108 -2.237397 -0.962676 0
M  V30 7 C 0.267970 -1.432991 -1.663137 0
M  V30 8 C 0.688521 -1.589647 -2.968036 0
M  V30 9 N 1.620680 -0.762682 -3.476986 0
M  V30 10 C 2.194774 0.240713 -2.787713 0
M  V30 11 N 3.117097 1.187903 -3.036458 0
M  V30 12 C 3.305474 1.943427 -1.949336 0
M  V30 13 C 2.483141 1.504330 -0.905898 0
M  V30 14 C 2.369998 2.032127 0.429472 0
M  V30 15 C 2.284064 2.457093 1.556621 0
M  V30 16 C 2.171233 2.941602 2.905898 0
M  V30 17 C 3.214401 2.715582 3.796745 0
M  V30 18 C 3.127900 3.167308 5.085661 0
M  V30 19 C 2.038920 3.855730 5.579836 0
M  V30 20 F 2.004001 4.281554 6.867073 0
M  V30 21 C 1.004478 4.071541 4.670239 0
M  V30 22 C 1.068918 3.626980 3.370022 0
M  V30 23 C 1.803657 0.437622 -1.469766 0
M  V30 24 C 0.842463 -0.405561 -0.925299 0
M  V30 25 C -0.624337 -2.455721 0.397346 0
M  V30 26 C -1.628822 -3.238465 0.983004 0
M  V30 27 O -1.607343 -3.513272 2.339988 0
M  V30 28 C -0.546039 -2.978709 3.108855 0
M  V30 29 H -5.553432 -4.356591 0.038388 0
M  V30 30 H -5.190072 -5.917881 0.768723 0
M  V30 31 H -4.385939 -5.490242 -0.770108 0
M  V30 32 H -3.517164 -3.902423 -1.707718 0
M  V30 33 H -1.793264 -2.534993 -2.826468 0
M  V30 34 H 0.228739 -2.389500 -3.512549 0
M  V30 35 H 3.620843 1.314621 -3.962974 0
M  V30 36 H 3.984283 2.783825 -1.842758 0
M  V30 37 H 4.120094 2.191399 3.537672 0
M  V30 38 H 3.935113 3.000405 5.800166 0
M  V30 39 H 0.137110 4.618998 5.062253 0
M  V30 40 H 0.246739 3.808398 2.679315 0
M  V30 41 H 0.550537 -0.229343 0.117402 0
M  V30 42 H 0.179997 -2.050892 0.970477 0
M  V30 43 H -0.533253 -3.358567 4.150362 0
M  V30 44 H -0.599144 -1.865344 3.190236 0
M  V30 45 H 0.438811 -3.203122 2.633923 0
M  V30 END ATOM
M  V30 BEGIN BOND
M  V30 1 1 1 2
M  V30 2 1 2 3
M  V30 3 2 3 4
M  V30 4 1 4 5
M  V30 5 2 5 6
M  V30 6 1 6 7
M  V30 7 2 7 8
M  V30 8 1 8 9
M  V30 9 2 9 10
M  V30 10 1 10 11
M  V30 11 1 11 12
M  V30 12 2 12 13
M  V30 13 1 13 14
M  V30 14 3 14 15
M  V30 15 1 15 16
M  V30 16 2 16 17
M  V30 17 1 17 18
M  V30 18 2 18 19
M  V30 19 1 19 20
M  V30 20 1 19 21
M  V30 21 2 21 22
M  V30 22 1 13 23
M  V30 23 2 23 24
M  V30 24 1 6 25
M  V30 25 2 25 26
M  V30 26 1 26 27
M  V30 27 1 27 28
M  V30 28 1 26 3
M  V30 29 1 24 7
M  V30 30 1 23 10
M  V30 31 1 22 16
M  V30 32 1 1 29
M  V30 33 1 1 30
M  V30 34 1 1 31
M  V30 35 1 4 32
M  V30 36 1 5 33
M  V30 37 1 8 34
M  V30 38 1 11 35
M  V30 39 1 12 36
M  V30 40 1 17 37
M  V30 41 1 18 38
M  V30 42 1 21 39
M  V30 43 1 22 40
M  V30 44 1 24 41
M  V30 45 1 25 42
M  V30 46 1 28 43
M  V30 47 1 28 44
M  V30 48 1 28 45
M  V30 END BOND
M  V30 END CTAB
M  END
>  <Dataset>  (319) 
ChEMBL_Kinases

>  <Ligand_Instance>  (319) 
nan

>  <PDB_ID>  (319) 
nan

>  <Standardized_SMILES>  (319) 
COc1ccc(-c2cnc3[nH]cc(C#Cc4ccc(F)cc4)c3c2)cc1OC

>  <Name>  (319) 
nan

>  <Pocket>  (319) 
nan

>  <ATP_Site>  (319) 
nan

>  <Peripheral>  (319) 
nan

>  <Num_H_Atoms_ProtBoundConf>  (319) 
nan

>  <Num_Resolved_Atoms>  (319) 
nan

>  <Num_Not_Resolved_Atoms>  (319) 
nan

$$$$
CHEMBL4468766
     RDKit          3D

  0  0  0  0  0  0  0  0  0  0999 V3000
M  V30 BEGIN CTAB
M  V30 COUNTS 49 51 0 0 0
M  V30 BEGIN ATOM
M  V30 1 C -0.088973 -2.569751 3.220127 0
M  V30 2 N 1.317336 -2.171756 2.946623 0
M  V30 3 C 1.753000 -1.604712 4.211379 0
M  V30 4 C 1.197467 -1.203187 1.876455 0
M  V30 5 C 2.463335 -0.729405 1.275371 0
M  V30 6 C 3.234602 -1.917324 0.665633 0
M  V30 7 C 3.452175 -0.117622 2.275866 0
M  V30 8 C 2.291507 0.250387 0.143471 0
M  V30 9 N 1.534323 -0.223521 -0.982118 0
M  V30 10 C 0.103816 -0.270775 -1.113642 0
M  V30 11 N -0.739909 0.185960 -0.183090 0
M  V30 12 C -2.076585 0.200081 -0.253332 0
M  V30 13 C -2.893759 0.728596 0.835270 0
M  V30 14 C -2.283470 1.229288 1.965592 0
M  V30 15 C -3.018418 1.737704 3.016175 0
M  V30 16 N -4.361151 1.739754 2.924241 0
M  V30 17 C -4.944517 1.247116 1.813137 0
M  V30 18 C -4.269212 0.722678 0.723558 0
M  V30 19 N -2.629262 -0.295817 -1.374729 0
M  V30 20 C -1.880632 -0.786943 -2.386967 0
M  V30 21 C -2.440118 -1.297540 -3.539256 0
M  V30 22 N -1.699902 -1.795576 -4.565435 0
M  V30 23 C -0.355088 -1.783719 -4.437541 0
M  V30 24 C 0.196674 -1.274381 -3.289074 0
M  V30 25 C -0.512349 -0.767156 -2.240496 0
M  V30 26 H -0.716314 -1.665644 3.092031 0
M  V30 27 H -0.373921 -3.290517 2.429285 0
M  V30 28 H -0.184410 -2.958916 4.249358 0
M  V30 29 H 2.852150 -1.596170 4.342127 0
M  V30 30 H 1.301217 -2.293030 5.004392 0
M  V30 31 H 1.269374 -0.622432 4.419874 0
M  V30 32 H 0.625259 -1.760623 1.059478 0
M  V30 33 H 0.536405 -0.406868 2.223379 0
M  V30 34 H 4.171604 -1.506880 0.280591 0
M  V30 35 H 3.370509 -2.676818 1.437816 0
M  V30 36 H 2.651310 -2.279144 -0.204001 0
M  V30 37 H 2.896051 0.407758 3.068298 0
M  V30 38 H 4.017725 0.721638 1.754837 0
M  V30 39 H 4.214375 -0.814487 2.614772 0
M  V30 40 H 1.788584 1.176260 0.583182 0
M  V30 41 H 3.264249 0.648118 -0.213721 0
M  V30 42 H 2.141661 -0.556875 -1.748127 0
M  V30 43 H -1.214293 1.222617 2.028488 0
M  V30 44 H -2.496216 2.127945 3.900577 0
M  V30 45 H -6.026921 1.260977 1.764986 0
M  V30 46 H -4.800320 0.342619 -0.138516 0
M  V30 47 H -3.513830 -1.316282 -3.661113 0
M  V30 48 H 0.195261 -2.187016 -5.272513 0
M  V30 49 H 1.272501 -1.316058 -3.297096 0
M  V30 END ATOM
M  V30 BEGIN BOND
M  V30 1 1 1 2
M  V30 2 1 2 3
M  V30 3 1 2 4
M  V30 4 1 4 5
M  V30 5 1 5 6
M  V30 6 1 5 7
M  V30 7 1 5 8
M  V30 8 1 8 9
M  V30 9 1 9 10
M  V30 10 2 10 11
M  V30 11 1 11 12
M  V30 12 1 12 13
M  V30 13 2 13 14
M  V30 14 1 14 15
M  V30 15 2 15 16
M  V30 16 1 16 17
M  V30 17 2 17 18
M  V30 18 2 12 19
M  V30 19 1 19 20
M  V30 20 2 20 21
M  V30 21 1 21 22
M  V30 22 2 22 23
M  V30 23 1 23 24
M  V30 24 2 24 25
M  V30 25 1 25 10
M  V30 26 1 18 13
M  V30 27 1 25 20
M  V30 28 1 1 26
M  V30 29 1 1 27
M  V30 30 1 1 28
M  V30 31 1 3 29
M  V30 32 1 3 30
M  V30 33 1 3 31
M  V30 34 1 4 32
M  V30 35 1 4 33
M  V30 36 1 6 34
M  V30 37 1 6 35
M  V30 38 1 6 36
M  V30 39 1 7 37
M  V30 40 1 7 38
M  V30 41 1 7 39
M  V30 42 1 8 40
M  V30 43 1 8 41
M  V30 44 1 9 42
M  V30 45 1 14 43
M  V30 46 1 15 44
M  V30 47 1 17 45
M  V30 48 1 18 46
M  V30 49 1 21 47
M  V30 50 1 23 48
M  V30 51 1 24 49
M  V30 END BOND
M  V30 END CTAB
M  END
>  <Dataset>  (320) 
ChEMBL_Kinases

>  <Ligand_Instance>  (320) 
nan

>  <PDB_ID>  (320) 
nan

>  <Standardized_SMILES>  (320) 
CN(C)CC(C)(C)CNc1nc(-c2ccncc2)nc2cnccc12

>  <Name>  (320) 
nan

>  <Pocket>  (320) 
nan

>  <ATP_Site>  (320) 
nan

>  <Peripheral>  (320) 
nan

>  <Num_H_Atoms_ProtBoundConf>  (320) 
nan

>  <Num_Resolved_Atoms>  (320) 
nan

>  <Num_Not_Resolved_Atoms>  (320) 
nan

$$$$
CHEMBL4468753
     RDKit          3D

  0  0  0  0  0  0  0  0  0  0999 V3000
M  V30 BEGIN CTAB
M  V30 COUNTS 24 26 0 0 0
M  V30 BEGIN ATOM
M  V30 1 N 1.051400 -2.658265 4.584032 0
M  V30 2 C 0.870712 -2.506318 3.178784 0
M  V30 3 N 0.781640 -3.568637 2.363092 0
M  V30 4 C 0.609143 -3.398912 1.024224 0
M  V30 5 C 0.539789 -2.089479 0.620082 0
M  V30 6 C 0.620456 -0.959298 1.376977 0
M  V30 7 C 0.558466 0.435101 1.039965 0
M  V30 8 C 0.671238 1.416211 2.033177 0
M  V30 9 N 0.583480 2.619712 1.472729 0
M  V30 10 N 0.418667 2.536287 0.167049 0
M  V30 11 N 0.283026 3.417423 -0.804909 0
M  V30 12 C 0.124725 3.053927 -2.089593 0
M  V30 13 C 0.106028 1.685010 -2.384560 0
M  V30 14 C 0.248116 0.803837 -1.361876 0
M  V30 15 C 0.406746 1.218738 -0.069040 0
M  V30 16 N 0.789262 -1.291627 2.669239 0
M  V30 17 H 1.775150 -3.298969 4.938359 0
M  V30 18 H 0.442965 -2.113716 5.262118 0
M  V30 19 H 0.530717 -4.210928 0.319384 0
M  V30 20 H 0.403982 -1.973832 -0.435939 0
M  V30 21 H 0.809936 1.385105 3.121035 0
M  V30 22 H 0.022128 3.866208 -2.809019 0
M  V30 23 H -0.022093 1.429059 -3.420165 0
M  V30 24 H 0.226464 -0.204890 -1.641133 0
M  V30 END ATOM
M  V30 BEGIN BOND
M  V30 1 1 1 2
M  V30 2 2 2 3
M  V30 3 1 3 4
M  V30 4 2 4 5
M  V30 5 1 5 6
M  V30 6 1 6 7
M  V30 7 1 7 8
M  V30 8 2 8 9
M  V30 9 1 9 10
M  V30 10 1 10 11
M  V30 11 2 11 12
M  V30 12 1 12 13
M  V30 13 2 13 14
M  V30 14 1 14 15
M  V30 15 2 6 16
M  V30 16 1 16 2
M  V30 17 2 15 7
M  V30 18 1 15 10
M  V30 19 1 1 17
M  V30 20 1 1 18
M  V30 21 1 4 19
M  V30 22 1 5 20
M  V30 23 1 8 21
M  V30 24 1 12 22
M  V30 25 1 13 23
M  V30 26 1 14 24
M  V30 END BOND
M  V30 END CTAB
M  END
>  <Dataset>  (321) 
ChEMBL_Kinases

>  <Ligand_Instance>  (321) 
nan

>  <PDB_ID>  (321) 
nan

>  <Standardized_SMILES>  (321) 
Nc1nccc(-c2cnn3ncccc23)n1

>  <Name>  (321) 
nan

>  <Pocket>  (321) 
nan

>  <ATP_Site>  (321) 
nan

>  <Peripheral>  (321) 
nan

>  <Num_H_Atoms_ProtBoundConf>  (321) 
nan

>  <Num_Resolved_Atoms>  (321) 
nan

>  <Num_Not_Resolved_Atoms>  (321) 
nan

$$$$
CHEMBL471137
     RDKit          3D

  0  0  0  0  0  0  0  0  0  0999 V3000
M  V30 BEGIN CTAB
M  V30 COUNTS 74 76 0 0 0
M  V30 BEGIN ATOM
M  V30 1 C 3.789088 -1.293028 5.338137 0
M  V30 2 O 4.513362 -1.151350 4.138176 0
M  V30 3 C 4.198469 -0.234033 3.153708 0
M  V30 4 C 3.157146 0.665752 3.180501 0
M  V30 5 C 2.900588 1.554820 2.159766 0
M  V30 6 C 3.693422 1.586838 1.035436 0
M  V30 7 C 3.605333 2.425224 -0.149544 0
M  V30 8 C 2.438498 2.720005 -0.690648 0
M  V30 9 C 1.048390 2.350403 -0.325668 0
M  V30 10 C 0.292953 2.339442 -1.612631 0
M  V30 11 C -1.132766 2.788278 -1.348138 0
M  V30 12 O -1.093724 4.010799 -0.690756 0
M  V30 13 C 0.317640 1.006095 -2.331381 0
M  V30 14 O -0.397855 0.062447 -1.550700 0
M  V30 15 C -0.553798 -1.270665 -1.967117 0
M  V30 16 O 0.055072 -1.303907 -3.060656 0
M  V30 17 C -1.331221 -1.985258 -0.966986 0
M  V30 18 C -2.696410 -1.955845 -1.159006 0
M  V30 19 C -3.452141 -1.312590 -2.235076 0
M  V30 20 C -3.742012 0.147963 -1.952779 0
M  V30 21 C -2.909969 -1.439369 -3.612555 0
M  V30 22 C -3.411231 -2.644421 -0.166238 0
M  V30 23 C -2.793149 -3.279133 0.886311 0
M  V30 24 C -3.674865 -3.967969 1.865254 0
M  V30 25 C -4.518354 -5.033109 1.229401 0
M  V30 26 C -4.544201 -2.940020 2.601171 0
M  V30 27 C -1.441718 -3.248260 0.983187 0
M  V30 28 C -0.639150 -2.588189 0.043599 0
M  V30 29 C 0.825221 -2.604109 0.215797 0
M  V30 30 C 1.370395 -1.407633 0.956050 0
M  V30 31 C 1.606536 -2.940423 -1.021893 0
M  V30 32 O 0.995042 3.263534 -2.413941 0
M  V30 33 C 2.236164 3.546251 -1.873472 0
M  V30 34 O 3.078776 4.395228 -2.330066 0
M  V30 35 C 4.753675 0.676290 0.999540 0
M  V30 36 C 4.998065 -0.215325 2.040728 0
M  V30 37 H 3.716709 -2.371142 5.644561 0
M  V30 38 H 2.764193 -0.895990 5.311214 0
M  V30 39 H 4.327367 -0.728413 6.153233 0
M  V30 40 H 2.518700 0.666659 4.044045 0
M  V30 41 H 2.102809 2.264345 2.156319 0
M  V30 42 H 4.495319 2.823317 -0.608265 0
M  V30 43 H 0.962429 1.419048 0.249890 0
M  V30 44 H 0.588008 3.152028 0.311762 0
M  V30 45 H -1.703949 2.866711 -2.290620 0
M  V30 46 H -1.553800 2.037888 -0.643396 0
M  V30 47 H -1.590506 3.977373 0.185179 0
M  V30 48 H 1.359668 0.720646 -2.506018 0
M  V30 49 H -0.171247 1.168419 -3.309127 0
M  V30 50 H -4.470003 -1.816918 -2.264035 0
M  V30 51 H -3.831101 0.367710 -0.861990 0
M  V30 52 H -4.727127 0.380840 -2.398529 0
M  V30 53 H -3.008983 0.814669 -2.461928 0
M  V30 54 H -2.342834 -2.347323 -3.818198 0
M  V30 55 H -3.771850 -1.478023 -4.350595 0
M  V30 56 H -2.409865 -0.482051 -3.884348 0
M  V30 57 H -4.508367 -2.668570 -0.246810 0
M  V30 58 H -3.069358 -4.447254 2.660955 0
M  V30 59 H -5.553462 -4.625258 1.073661 0
M  V30 60 H -4.094585 -5.365890 0.264298 0
M  V30 61 H -4.638183 -5.950525 1.836065 0
M  V30 62 H -5.426027 -3.402765 3.048039 0
M  V30 63 H -3.902519 -2.385191 3.343849 0
M  V30 64 H -4.829910 -2.161904 1.842850 0
M  V30 65 H -0.977828 -3.751627 1.814906 0
M  V30 66 H 1.045135 -3.468644 0.920116 0
M  V30 67 H 0.492182 -0.897025 1.421907 0
M  V30 68 H 1.977399 -0.746645 0.306968 0
M  V30 69 H 2.041403 -1.681844 1.793331 0
M  V30 70 H 0.988291 -3.510204 -1.745388 0
M  V30 71 H 2.462144 -3.653781 -0.808750 0
M  V30 72 H 2.134667 -2.065447 -1.469029 0
M  V30 73 H 5.452319 0.613633 0.149732 0
M  V30 74 H 5.847703 -0.910793 1.958099 0
M  V30 END ATOM
M  V30 BEGIN BOND
M  V30 1 1 1 2
M  V30 2 1 2 3
M  V30 3 2 3 4
M  V30 4 1 4 5
M  V30 5 2 5 6
M  V30 6 1 6 7
M  V30 7 2 7 8
M  V30 8 1 8 9
M  V30 9 1 9 10
M  V30 10 1 10 11
M  V30 11 1 11 12
M  V30 12 1 10 13
M  V30 13 1 13 14
M  V30 14 1 14 15
M  V30 15 2 15 16
M  V30 16 1 15 17
M  V30 17 2 17 18
M  V30 18 1 18 19
M  V30 19 1 19 20
M  V30 20 1 19 21
M  V30 21 1 18 22
M  V30 22 2 22 23
M  V30 23 1 23 24
M  V30 24 1 24 25
M  V30 25 1 24 26
M  V30 26 1 23 27
M  V30 27 2 27 28
M  V30 28 1 28 29
M  V30 29 1 29 30
M  V30 30 1 29 31
M  V30 31 1 10 32
M  V30 32 1 32 33
M  V30 33 2 33 34
M  V30 34 1 6 35
M  V30 35 2 35 36
M  V30 36 1 36 3
M  V30 37 1 33 8
M  V30 38 1 28 17
M  V30 39 1 1 37
M  V30 40 1 1 38
M  V30 41 1 1 39
M  V30 42 1 4 40
M  V30 43 1 5 41
M  V30 44 1 7 42
M  V30 45 1 9 43
M  V30 46 1 9 44
M  V30 47 1 11 45
M  V30 48 1 11 46
M  V30 49 1 12 47
M  V30 50 1 13 48
M  V30 51 1 13 49
M  V30 52 1 19 50
M  V30 53 1 20 51
M  V30 54 1 20 52
M  V30 55 1 20 53
M  V30 56 1 21 54
M  V30 57 1 21 55
M  V30 58 1 21 56
M  V30 59 1 22 57
M  V30 60 1 24 58
M  V30 61 1 25 59
M  V30 62 1 25 60
M  V30 63 1 25 61
M  V30 64 1 26 62
M  V30 65 1 26 63
M  V30 66 1 26 64
M  V30 67 1 27 65
M  V30 68 1 29 66
M  V30 69 1 30 67
M  V30 70 1 30 68
M  V30 71 1 30 69
M  V30 72 1 31 70
M  V30 73 1 31 71
M  V30 74 1 31 72
M  V30 75 1 35 73
M  V30 76 1 36 74
M  V30 END BOND
M  V30 END CTAB
M  END
>  <Dataset>  (322) 
ChEMBL_Kinases

>  <Ligand_Instance>  (322) 
nan

>  <PDB_ID>  (322) 
nan

>  <Standardized_SMILES>  (322) 
COc1ccc(/C=C2\CC(CO)(COC(=O)c3c(C(C)C)cc(C(C)C)cc3C(C)C)OC2=O)cc1

>  <Name>  (322) 
nan

>  <Pocket>  (322) 
nan

>  <ATP_Site>  (322) 
nan

>  <Peripheral>  (322) 
nan

>  <Num_H_Atoms_ProtBoundConf>  (322) 
nan

>  <Num_Resolved_Atoms>  (322) 
nan

>  <Num_Not_Resolved_Atoms>  (322) 
nan

$$$$
CHEMBL4468662
     RDKit          3D

  0  0  0  0  0  0  0  0  0  0999 V3000
M  V30 BEGIN CTAB
M  V30 COUNTS 49 52 0 0 0
M  V30 BEGIN ATOM
M  V30 1 C 2.546322 -7.066112 1.771142 0
M  V30 2 O 3.025899 -6.505860 0.568347 0
M  V30 3 C 3.199166 -5.157059 0.367336 0
M  V30 4 C 2.928711 -4.185758 1.308538 0
M  V30 5 C 3.123082 -2.850949 1.046186 0
M  V30 6 C 3.599459 -2.422297 -0.176045 0
M  V30 7 C 3.852384 -1.047764 -0.595349 0
M  V30 8 C 4.959674 -0.558919 -1.262561 0
M  V30 9 N 4.805583 0.760214 -1.463335 0
M  V30 10 C 3.640808 1.199730 -0.963318 0
M  V30 11 N 2.966425 2.360890 -0.866390 0
M  V30 12 C 1.758411 2.475854 -0.276325 0
M  V30 13 C 1.146440 1.368848 0.269687 0
M  V30 14 C -0.156517 1.427336 0.919270 0
M  V30 15 C -0.925040 2.483732 1.083190 0
M  V30 16 C -2.235490 2.555076 1.733884 0
M  V30 17 O -2.851009 3.644124 1.811806 0
M  V30 18 N -2.878365 1.447000 2.300005 0
M  V30 19 C -4.167889 1.412359 2.962705 0
M  V30 20 C -5.255679 1.456469 1.965148 0
M  V30 21 C -5.914076 2.550600 1.445404 0
M  V30 22 C -6.912572 2.399459 0.509608 0
M  V30 23 N -7.284571 1.191037 0.067284 0
M  V30 24 C -6.685359 0.054383 0.529071 0
M  V30 25 C -5.687559 0.223145 1.465498 0
M  V30 26 C 1.812226 0.165211 0.186192 0
M  V30 27 C 3.046575 0.078563 -0.423471 0
M  V30 28 C 3.871505 -3.388690 -1.120571 0
M  V30 29 C 3.673239 -4.727061 -0.848082 0
M  V30 30 H 2.979395 -8.075523 1.916270 0
M  V30 31 H 1.433294 -7.130734 1.657571 0
M  V30 32 H 2.794459 -6.482119 2.671921 0
M  V30 33 H 2.554108 -4.487597 2.277007 0
M  V30 34 H 2.921738 -2.067201 1.761649 0
M  V30 35 H 5.810201 -1.169580 -1.566053 0
M  V30 36 H 5.486608 1.400733 -1.945447 0
M  V30 37 H 1.289616 3.448461 -0.243976 0
M  V30 38 H -0.582477 0.521413 1.329693 0
M  V30 39 H -0.515547 3.422849 0.674021 0
M  V30 40 H -2.385942 0.517929 2.250082 0
M  V30 41 H -4.251182 2.268841 3.679006 0
M  V30 42 H -4.300231 0.509351 3.577528 0
M  V30 43 H -5.579603 3.499862 1.835050 0
M  V30 44 H -7.357516 3.329395 0.173692 0
M  V30 45 H -6.965999 -0.933307 0.189568 0
M  V30 46 H -5.221131 -0.702397 1.821406 0
M  V30 47 H 1.329062 -0.694265 0.613639 0
M  V30 48 H 4.253859 -3.151056 -2.123212 0
M  V30 49 H 3.898403 -5.476069 -1.618673 0
M  V30 END ATOM
M  V30 BEGIN BOND
M  V30 1 1 1 2
M  V30 2 1 2 3
M  V30 3 2 3 4
M  V30 4 1 4 5
M  V30 5 2 5 6
M  V30 6 1 6 7
M  V30 7 2 7 8
M  V30 8 1 8 9
M  V30 9 1 9 10
M  V30 10 2 10 11
M  V30 11 1 11 12
M  V30 12 2 12 13
M  V30 13 1 13 14
M  V30 14 2 14 15
M  V30 15 1 15 16
M  V30 16 2 16 17
M  V30 17 1 16 18
M  V30 18 1 18 19
M  V30 19 1 19 20
M  V30 20 2 20 21
M  V30 21 1 21 22
M  V30 22 2 22 23
M  V30 23 1 23 24
M  V30 24 2 24 25
M  V30 25 1 13 26
M  V30 26 2 26 27
M  V30 27 1 6 28
M  V30 28 2 28 29
M  V30 29 1 29 3
M  V30 30 1 27 7
M  V30 31 1 27 10
M  V30 32 1 25 20
M  V30 33 1 1 30
M  V30 34 1 1 31
M  V30 35 1 1 32
M  V30 36 1 4 33
M  V30 37 1 5 34
M  V30 38 1 8 35
M  V30 39 1 9 36
M  V30 40 1 12 37
M  V30 41 1 14 38
M  V30 42 1 15 39
M  V30 43 1 18 40
M  V30 44 1 19 41
M  V30 45 1 19 42
M  V30 46 1 21 43
M  V30 47 1 22 44
M  V30 48 1 24 45
M  V30 49 1 25 46
M  V30 50 1 26 47
M  V30 51 1 28 48
M  V30 52 1 29 49
M  V30 END BOND
M  V30 END CTAB
M  END
>  <Dataset>  (323) 
ChEMBL_Kinases

>  <Ligand_Instance>  (323) 
nan

>  <PDB_ID>  (323) 
nan

>  <Standardized_SMILES>  (323) 
COc1ccc(-c2c[nH]c3ncc(/C=C/C(=O)NCc4ccncc4)cc23)cc1

>  <Name>  (323) 
nan

>  <Pocket>  (323) 
nan

>  <ATP_Site>  (323) 
nan

>  <Peripheral>  (323) 
nan

>  <Num_H_Atoms_ProtBoundConf>  (323) 
nan

>  <Num_Resolved_Atoms>  (323) 
nan

>  <Num_Not_Resolved_Atoms>  (323) 
nan

$$$$
CHEMBL4468521
     RDKit          3D

  0  0  0  0  0  0  0  0  0  0999 V3000
M  V30 BEGIN CTAB
M  V30 COUNTS 62 64 0 0 0
M  V30 BEGIN ATOM
M  V30 1 C 7.163243 -0.366678 4.320305 0
M  V30 2 O 6.468105 -1.492014 3.945029 0
M  V30 3 C 5.213735 -1.302829 3.456585 0
M  V30 4 C 5.258320 -0.448349 2.186404 0
M  V30 5 O 4.063398 -0.231036 1.657214 0
M  V30 6 C 3.047535 0.105436 0.978826 0
M  V30 7 C 3.254021 0.893196 -0.149200 0
M  V30 8 C 2.206832 1.325969 -0.971982 0
M  V30 9 N 2.398723 2.093109 -2.054710 0
M  V30 10 C 1.336882 2.472583 -2.784242 0
M  V30 11 N 0.088116 2.099038 -2.451881 0
M  V30 12 C -0.151611 1.317020 -1.356465 0
M  V30 13 N -1.480351 0.951718 -1.035419 0
M  V30 14 C -2.425819 -0.003890 -1.481221 0
M  V30 15 C -3.589130 -0.135330 -0.738084 0
M  V30 16 C -4.486231 -1.061922 -1.227616 0
M  V30 17 O -5.666536 -1.279818 -0.581362 0
M  V30 18 C -6.170035 -0.701604 0.573123 0
M  V30 19 C -4.242829 -1.811743 -2.383761 0
M  V30 20 O -5.221334 -2.732457 -2.803571 0
M  V30 21 C -5.139095 -4.044323 -2.297363 0
M  V30 22 C -3.047328 -1.632393 -3.091054 0
M  V30 23 O -2.928919 -2.434294 -4.217338 0
M  V30 24 C -1.749358 -2.311624 -4.987507 0
M  V30 25 C -2.132552 -0.714343 -2.626517 0
M  V30 26 C 0.941451 0.930001 -0.609893 0
M  V30 27 C 0.710727 0.153136 0.496735 0
M  V30 28 C 1.731391 -0.277133 1.312436 0
M  V30 29 O 1.679829 -1.034775 2.425463 0
M  V30 30 C 0.678808 -1.625999 3.144005 0
M  V30 31 C -0.363379 -0.753472 3.752749 0
M  V30 32 O -1.273127 -1.596273 4.439273 0
M  V30 33 C -2.263856 -0.800221 5.030879 0
M  V30 34 H 6.585154 0.194411 5.109049 0
M  V30 35 H 8.120414 -0.748509 4.789161 0
M  V30 36 H 7.475349 0.291974 3.499947 0
M  V30 37 H 4.760773 -2.260956 3.132346 0
M  V30 38 H 4.528446 -0.804625 4.174058 0
M  V30 39 H 5.941220 -1.034771 1.492612 0
M  V30 40 H 5.877146 0.479533 2.399629 0
M  V30 41 H 4.238461 1.218716 -0.456423 0
M  V30 42 H 1.562148 3.095665 -3.652337 0
M  V30 43 H -1.672985 1.635903 -0.274943 0
M  V30 44 H -3.761460 0.450952 0.152846 0
M  V30 45 H -6.990218 -1.291785 1.044675 0
M  V30 46 H -6.641077 0.267615 0.310807 0
M  V30 47 H -5.407866 -0.490931 1.365673 0
M  V30 48 H -5.026181 -4.734178 -3.186695 0
M  V30 49 H -5.999609 -4.331232 -1.662044 0
M  V30 50 H -4.210551 -4.200935 -1.697978 0
M  V30 51 H -0.831289 -2.228098 -4.386600 0
M  V30 52 H -1.667632 -3.138305 -5.724641 0
M  V30 53 H -1.791866 -1.376825 -5.619996 0
M  V30 54 H -1.250316 -0.624511 -3.204425 0
M  V30 55 H -0.276485 -0.138012 0.748206 0
M  V30 56 H 0.137761 -2.332284 2.440550 0
M  V30 57 H 1.137108 -2.329070 3.897336 0
M  V30 58 H -0.983475 -0.246950 2.991307 0
M  V30 59 H 0.027252 -0.078247 4.543724 0
M  V30 60 H -3.021485 -1.390730 5.589138 0
M  V30 61 H -1.797018 -0.046666 5.728758 0
M  V30 62 H -2.772525 -0.178073 4.270127 0
M  V30 END ATOM
M  V30 BEGIN BOND
M  V30 1 1 1 2
M  V30 2 1 2 3
M  V30 3 1 3 4
M  V30 4 1 4 5
M  V30 5 1 5 6
M  V30 6 2 6 7
M  V30 7 1 7 8
M  V30 8 2 8 9
M  V30 9 1 9 10
M  V30 10 2 10 11
M  V30 11 1 11 12
M  V30 12 1 12 13
M  V30 13 1 13 14
M  V30 14 2 14 15
M  V30 15 1 15 16
M  V30 16 1 16 17
M  V30 17 1 17 18
M  V30 18 2 16 19
M  V30 19 1 19 20
M  V30 20 1 20 21
M  V30 21 1 19 22
M  V30 22 1 22 23
M  V30 23 1 23 24
M  V30 24 2 22 25
M  V30 25 2 12 26
M  V30 26 1 26 27
M  V30 27 2 27 28
M  V30 28 1 28 29
M  V30 29 1 29 30
M  V30 30 1 30 31
M  V30 31 1 31 32
M  V30 32 1 32 33
M  V30 33 1 28 6
M  V30 34 1 26 8
M  V30 35 1 25 14
M  V30 36 1 1 34
M  V30 37 1 1 35
M  V30 38 1 1 36
M  V30 39 1 3 37
M  V30 40 1 3 38
M  V30 41 1 4 39
M  V30 42 1 4 40
M  V30 43 1 7 41
M  V30 44 1 10 42
M  V30 45 1 13 43
M  V30 46 1 15 44
M  V30 47 1 18 45
M  V30 48 1 18 46
M  V30 49 1 18 47
M  V30 50 1 21 48
M  V30 51 1 21 49
M  V30 52 1 21 50
M  V30 53 1 24 51
M  V30 54 1 24 52
M  V30 55 1 24 53
M  V30 56 1 25 54
M  V30 57 1 27 55
M  V30 58 1 30 56
M  V30 59 1 30 57
M  V30 60 1 31 58
M  V30 61 1 31 59
M  V30 62 1 33 60
M  V30 63 1 33 61
M  V30 64 1 33 62
M  V30 END BOND
M  V30 END CTAB
M  END
>  <Dataset>  (324) 
ChEMBL_Kinases

>  <Ligand_Instance>  (324) 
nan

>  <PDB_ID>  (324) 
nan

>  <Standardized_SMILES>  (324) 
COCCOc1cc2ncnc(Nc3cc(OC)c(OC)c(OC)c3)c2cc1OCCOC

>  <Name>  (324) 
nan

>  <Pocket>  (324) 
nan

>  <ATP_Site>  (324) 
nan

>  <Peripheral>  (324) 
nan

>  <Num_H_Atoms_ProtBoundConf>  (324) 
nan

>  <Num_Resolved_Atoms>  (324) 
nan

>  <Num_Not_Resolved_Atoms>  (324) 
nan

$$$$
CHEMBL4468495
     RDKit          3D

  0  0  0  0  0  0  0  0  0  0999 V3000
M  V30 BEGIN CTAB
M  V30 COUNTS 54 57 0 0 0
M  V30 BEGIN ATOM
M  V30 1 C 2.416124 -1.598624 1.583326 0
M  V30 2 C 3.623884 -0.726208 1.704855 0
M  V30 3 C 4.554546 -1.365354 2.738258 0
M  V30 4 N 4.342070 -0.668584 0.430541 0
M  V30 5 C 3.305329 0.664240 2.111304 0
M  V30 6 N 2.480888 1.397941 1.233581 0
M  V30 7 C 1.204985 1.485584 0.643007 0
M  V30 8 O 0.455424 0.563689 1.027632 0
M  V30 9 C 0.705616 2.465099 -0.298562 0
M  V30 10 C 1.420253 3.531863 -0.782680 0
M  V30 11 N 0.847659 4.374357 -1.643863 0
M  V30 12 C -0.409968 4.246303 -2.079099 0
M  V30 13 C -1.117353 3.172575 -1.586968 0
M  V30 14 C -0.591347 2.234061 -0.675212 0
M  V30 15 N -1.540134 1.265511 -0.371233 0
M  V30 16 C -1.900419 -0.089796 -0.388607 0
M  V30 17 C -2.239177 -0.925389 0.643815 0
M  V30 18 C -2.560978 -2.235083 0.486784 0
M  V30 19 C -2.917532 -3.136363 1.554158 0
M  V30 20 C -3.213354 -4.451157 1.212784 0
M  V30 21 C -3.566311 -5.403924 2.140655 0
M  V30 22 C -3.647759 -5.109109 3.470227 0
M  V30 23 F -3.989910 -6.022067 4.392704 0
M  V30 24 C -3.362931 -3.819630 3.849771 0
M  V30 25 C -3.015512 -2.898833 2.899591 0
M  V30 26 F -2.751197 -1.659586 3.342811 0
M  V30 27 N -2.536540 -2.707138 -0.765408 0
M  V30 28 C -2.218039 -1.966353 -1.838074 0
M  V30 29 N -2.169148 -2.359468 -3.123359 0
M  V30 30 C -1.804347 -1.277615 -3.833913 0
M  V30 31 C -1.629957 -0.220242 -2.978925 0
M  V30 32 C -1.886645 -0.621896 -1.683882 0
M  V30 33 H 2.741750 -2.682341 1.670201 0
M  V30 34 H 1.660042 -1.381298 2.351080 0
M  V30 35 H 2.006573 -1.528303 0.560686 0
M  V30 36 H 4.364302 -2.450617 2.738167 0
M  V30 37 H 4.362473 -0.918682 3.716339 0
M  V30 38 H 5.610658 -1.220190 2.382455 0
M  V30 39 H 4.425732 -1.636033 0.044710 0
M  V30 40 H 5.316981 -0.316064 0.558147 0
M  V30 41 H 4.250456 1.258341 2.260988 0
M  V30 42 H 2.820519 0.566406 3.142461 0
M  V30 43 H 2.990654 2.244244 0.817739 0
M  V30 44 H 2.433492 3.684651 -0.468354 0
M  V30 45 H -0.809810 4.966476 -2.777231 0
M  V30 46 H -2.138070 3.135957 -1.989580 0
M  V30 47 H -2.421224 1.652055 0.088404 0
M  V30 48 H -2.226394 -0.446519 1.591704 0
M  V30 49 H -3.181774 -4.801019 0.186817 0
M  V30 50 H -3.789952 -6.414334 1.846667 0
M  V30 51 H -3.420717 -3.566741 4.887932 0
M  V30 52 H -2.372639 -3.311045 -3.496424 0
M  V30 53 H -1.681789 -1.291415 -4.906645 0
M  V30 54 H -1.338525 0.794216 -3.213582 0
M  V30 END ATOM
M  V30 BEGIN BOND
M  V30 1 1 1 2
M  V30 2 1 2 3
M  V30 3 1 2 4
M  V30 4 1 2 5
M  V30 5 1 5 6
M  V30 6 1 6 7
M  V30 7 2 7 8
M  V30 8 1 7 9
M  V30 9 2 9 10
M  V30 10 1 10 11
M  V30 11 2 11 12
M  V30 12 1 12 13
M  V30 13 2 13 14
M  V30 14 1 14 15
M  V30 15 1 15 16
M  V30 16 2 16 17
M  V30 17 1 17 18
M  V30 18 1 18 19
M  V30 19 2 19 20
M  V30 20 1 20 21
M  V30 21 2 21 22
M  V30 22 1 22 23
M  V30 23 1 22 24
M  V30 24 2 24 25
M  V30 25 1 25 26
M  V30 26 2 18 27
M  V30 27 1 27 28
M  V30 28 1 28 29
M  V30 29 1 29 30
M  V30 30 2 30 31
M  V30 31 1 31 32
M  V30 32 1 14 9
M  V30 33 1 32 16
M  V30 34 1 25 19
M  V30 35 2 32 28
M  V30 36 1 1 33
M  V30 37 1 1 34
M  V30 38 1 1 35
M  V30 39 1 3 36
M  V30 40 1 3 37
M  V30 41 1 3 38
M  V30 42 1 4 39
M  V30 43 1 4 40
M  V30 44 1 5 41
M  V30 45 1 5 42
M  V30 46 1 6 43
M  V30 47 1 10 44
M  V30 48 1 12 45
M  V30 49 1 13 46
M  V30 50 1 15 47
M  V30 51 1 17 48
M  V30 52 1 20 49
M  V30 53 1 21 50
M  V30 54 1 24 51
M  V30 55 1 29 52
M  V30 56 1 30 53
M  V30 57 1 31 54
M  V30 END BOND
M  V30 END CTAB
M  END
>  <Dataset>  (325) 
ChEMBL_Kinases

>  <Ligand_Instance>  (325) 
nan

>  <PDB_ID>  (325) 
nan

>  <Standardized_SMILES>  (325) 
CC(C)(N)CNC(=O)c1cnccc1Nc1cc(-c2ccc(F)cc2F)nc2[nH]ccc12

>  <Name>  (325) 
nan

>  <Pocket>  (325) 
nan

>  <ATP_Site>  (325) 
nan

>  <Peripheral>  (325) 
nan

>  <Num_H_Atoms_ProtBoundConf>  (325) 
nan

>  <Num_Resolved_Atoms>  (325) 
nan

>  <Num_Not_Resolved_Atoms>  (325) 
nan

$$$$
CHEMBL471140
     RDKit          3D

  0  0  0  0  0  0  0  0  0  0999 V3000
M  V30 BEGIN CTAB
M  V30 COUNTS 48 50 0 0 0
M  V30 BEGIN ATOM
M  V30 1 O -0.000735 -3.898933 1.180975 0
M  V30 2 C 0.224141 -2.856180 1.902095 0
M  V30 3 O 1.336954 -2.495716 2.682026 0
M  V30 4 C 1.420177 -1.088404 2.485134 0
M  V30 5 C 2.219275 -0.361566 3.500589 0
M  V30 6 O 3.532663 -0.815586 3.530472 0
M  V30 7 C 1.966755 -0.906013 1.066737 0
M  V30 8 O 2.088931 0.437970 0.728702 0
M  V30 9 C 2.527763 0.957563 -0.477576 0
M  V30 10 O 2.853944 0.133520 -1.366707 0
M  V30 11 C 2.520582 2.418939 -0.477452 0
M  V30 12 C 2.153472 3.243525 0.566458 0
M  V30 13 C 2.191743 4.610695 0.409659 0
M  V30 14 C 2.587201 5.220305 -0.765356 0
M  V30 15 N 2.549567 6.639041 -0.717975 0 CHG=1 VAL=4
M  V30 16 O 2.848625 7.420271 -1.655506 0
M  V30 17 O 2.174600 7.409812 0.367662 0 CHG=-1 VAL=1
M  V30 18 C 2.958750 4.403194 -1.822269 0
M  V30 19 C 2.920095 3.020292 -1.663191 0
M  V30 20 C -0.026699 -0.605600 2.546470 0
M  V30 21 C -0.771806 -1.771708 2.016555 0
M  V30 22 C -2.041044 -1.895524 1.698438 0
M  V30 23 C -2.761942 -3.041359 1.189800 0
M  V30 24 C -2.827197 -4.349832 1.570717 0
M  V30 25 C -3.581562 -5.271037 0.874966 0
M  V30 26 C -4.307146 -4.913141 -0.239041 0
M  V30 27 C -5.124277 -5.895365 -1.006952 0
M  V30 28 F -5.843223 -6.670550 -0.143318 0
M  V30 29 F -4.173929 -6.730499 -1.623027 0
M  V30 30 F -5.877949 -5.274127 -1.973639 0
M  V30 31 C -4.276779 -3.580192 -0.674154 0
M  V30 32 C -3.504851 -2.685244 0.054119 0
M  V30 33 H 1.738624 -0.471823 4.497740 0
M  V30 34 H 2.276567 0.709898 3.199097 0
M  V30 35 H 3.568799 -1.704536 3.923156 0
M  V30 36 H 1.332401 -1.495467 0.375377 0
M  V30 37 H 2.996854 -1.348466 1.107342 0
M  V30 38 H 1.852346 2.712302 1.465649 0
M  V30 39 H 1.870583 5.103114 1.334638 0
M  V30 40 H 3.254155 4.931310 -2.705651 0
M  V30 41 H 3.232565 2.485484 -2.551532 0
M  V30 42 H -0.337636 -0.353031 3.570476 0
M  V30 43 H -0.156925 0.267365 1.882641 0
M  V30 44 H -2.584217 -0.948384 1.870806 0
M  V30 45 H -2.252079 -4.560318 2.457828 0
M  V30 46 H -3.585790 -6.286039 1.235722 0
M  V30 47 H -4.851178 -3.338870 -1.540135 0
M  V30 48 H -3.567146 -1.678303 -0.393841 0
M  V30 END ATOM
M  V30 BEGIN BOND
M  V30 1 2 1 2
M  V30 2 1 2 3
M  V30 3 1 3 4
M  V30 4 1 4 5
M  V30 5 1 5 6
M  V30 6 1 4 7
M  V30 7 1 7 8
M  V30 8 1 8 9
M  V30 9 2 9 10
M  V30 10 1 9 11
M  V30 11 2 11 12
M  V30 12 1 12 13
M  V30 13 2 13 14
M  V30 14 1 14 15
M  V30 15 2 15 16
M  V30 16 1 15 17
M  V30 17 1 14 18
M  V30 18 2 18 19
M  V30 19 1 4 20
M  V30 20 1 20 21
M  V30 21 2 21 22
M  V30 22 1 22 23
M  V30 23 2 23 24
M  V30 24 1 24 25
M  V30 25 2 25 26
M  V30 26 1 26 27
M  V30 27 1 27 28
M  V30 28 1 27 29
M  V30 29 1 27 30
M  V30 30 1 26 31
M  V30 31 2 31 32
M  V30 32 1 21 2
M  V30 33 1 32 23
M  V30 34 1 19 11
M  V30 35 1 5 33
M  V30 36 1 5 34
M  V30 37 1 6 35
M  V30 38 1 7 36
M  V30 39 1 7 37
M  V30 40 1 12 38
M  V30 41 1 13 39
M  V30 42 1 18 40
M  V30 43 1 19 41
M  V30 44 1 20 42
M  V30 45 1 20 43
M  V30 46 1 22 44
M  V30 47 1 24 45
M  V30 48 1 25 46
M  V30 49 1 31 47
M  V30 50 1 32 48
M  V30 END BOND
M  V30 END CTAB
M  END
>  <Dataset>  (326) 
ChEMBL_Kinases

>  <Ligand_Instance>  (326) 
nan

>  <PDB_ID>  (326) 
nan

>  <Standardized_SMILES>  (326) 
O=C1OC(CO)(COC(=O)c2ccc([N+](=O)[O-])cc2)C/C1=C/c1ccc(C(F)(F)F)cc1

>  <Name>  (326) 
nan

>  <Pocket>  (326) 
nan

>  <ATP_Site>  (326) 
nan

>  <Peripheral>  (326) 
nan

>  <Num_H_Atoms_ProtBoundConf>  (326) 
nan

>  <Num_Resolved_Atoms>  (326) 
nan

>  <Num_Not_Resolved_Atoms>  (326) 
nan

$$$$
CHEMBL4469337
     RDKit          3D

  0  0  0  0  0  0  0  0  0  0999 V3000
M  V30 BEGIN CTAB
M  V30 COUNTS 36 39 0 0 0
M  V30 BEGIN ATOM
M  V30 1 C -0.758004 -4.176146 5.000678 0
M  V30 2 C -0.954285 -3.110120 3.968735 0
M  V30 3 C 0.127625 -2.499194 3.365773 0
M  V30 4 C -0.425567 -1.574318 2.474189 0
M  V30 5 C 0.415200 -0.720481 1.637990 0
M  V30 6 N 0.016736 -0.407748 0.370573 0
M  V30 7 C 0.755482 0.373202 -0.435427 0
M  V30 8 N 0.279984 0.658404 -1.743813 0
M  V30 9 C -1.000738 0.058476 -2.095290 0
M  V30 10 C -1.167886 -1.426189 -2.090666 0
M  V30 11 C -1.762448 0.778791 -3.191845 0
M  V30 12 C -2.195332 0.930675 -1.784015 0
M  V30 13 C 1.937074 0.834655 0.102066 0
M  V30 14 C 2.737260 1.641110 -0.679482 0
M  V30 15 C 3.930010 2.131904 -0.194855 0
M  V30 16 N 4.366043 1.844844 1.064135 0
M  V30 17 C 3.583782 1.048251 1.847198 0
M  V30 18 C 2.386367 0.549544 1.374583 0
M  V30 19 N 1.582576 -0.248552 2.131850 0
M  V30 20 O -1.740916 -1.658820 2.568886 0
M  V30 21 N -2.082295 -2.556245 3.442518 0
M  V30 22 H -1.729899 -4.526078 5.399022 0
M  V30 23 H -0.122301 -4.974985 4.606140 0
M  V30 24 H -0.214696 -3.706320 5.871215 0
M  V30 25 H 1.185367 -2.685955 3.536640 0
M  V30 26 H 0.743552 1.239474 -2.462968 0
M  V30 27 H -0.526230 -1.928620 -2.870682 0
M  V30 28 H -1.053884 -1.921572 -1.120894 0
M  V30 29 H -2.211056 -1.626344 -2.414953 0
M  V30 30 H -1.279080 1.627957 -3.713142 0
M  V30 31 H -2.439588 0.174346 -3.842193 0
M  V30 32 H -2.023352 1.911572 -1.324089 0
M  V30 33 H -3.065429 0.356827 -1.402234 0
M  V30 34 H 2.465466 1.916400 -1.687717 0
M  V30 35 H 4.580187 2.768554 -0.786702 0
M  V30 36 H 3.873942 0.775833 2.873762 0
M  V30 END ATOM
M  V30 BEGIN BOND
M  V30 1 1 1 2
M  V30 2 1 2 3
M  V30 3 2 3 4
M  V30 4 1 4 5
M  V30 5 2 5 6
M  V30 6 1 6 7
M  V30 7 1 7 8
M  V30 8 1 8 9
M  V30 9 1 9 10
M  V30 10 1 9 11
M  V30 11 1 11 12
M  V30 12 2 7 13
M  V30 13 1 13 14
M  V30 14 2 14 15
M  V30 15 1 15 16
M  V30 16 2 16 17
M  V30 17 1 17 18
M  V30 18 2 18 19
M  V30 19 1 4 20
M  V30 20 1 20 21
M  V30 21 2 21 2
M  V30 22 1 19 5
M  V30 23 1 12 9
M  V30 24 1 18 13
M  V30 25 1 1 22
M  V30 26 1 1 23
M  V30 27 1 1 24
M  V30 28 1 3 25
M  V30 29 1 8 26
M  V30 30 1 10 27
M  V30 31 1 10 28
M  V30 32 1 10 29
M  V30 33 1 11 30
M  V30 34 1 11 31
M  V30 35 1 12 32
M  V30 36 1 12 33
M  V30 37 1 14 34
M  V30 38 1 15 35
M  V30 39 1 17 36
M  V30 END BOND
M  V30 END CTAB
M  END
>  <Dataset>  (327) 
ChEMBL_Kinases

>  <Ligand_Instance>  (327) 
nan

>  <PDB_ID>  (327) 
nan

>  <Standardized_SMILES>  (327) 
Cc1cc(-c2nc(NC3(C)CC3)c3ccncc3n2)on1

>  <Name>  (327) 
nan

>  <Pocket>  (327) 
nan

>  <ATP_Site>  (327) 
nan

>  <Peripheral>  (327) 
nan

>  <Num_H_Atoms_ProtBoundConf>  (327) 
nan

>  <Num_Resolved_Atoms>  (327) 
nan

>  <Num_Not_Resolved_Atoms>  (327) 
nan

$$$$
CHEMBL4470852
     RDKit          3D

  0  0  0  0  0  0  0  0  0  0999 V3000
M  V30 BEGIN CTAB
M  V30 COUNTS 54 59 0 0 0
M  V30 BEGIN ATOM
M  V30 1 C 0.435185 -4.260042 3.337049 0
M  V30 2 N -0.337771 -5.038347 2.370768 0
M  V30 3 C -0.853024 -4.191132 1.324599 0
M  V30 4 C 0.244824 -3.941383 0.355271 0
M  V30 5 C 0.618160 -2.715294 -0.106474 0
M  V30 6 C 1.637255 -2.493121 -1.005134 0
M  V30 7 N 2.050461 -1.255563 -1.500854 0
M  V30 8 C 1.535846 0.033174 -1.201721 0
M  V30 9 N 2.061661 1.128601 -1.776870 0
M  V30 10 C 1.638769 2.379555 -1.551651 0
M  V30 11 C 0.595520 2.600287 -0.677020 0
M  V30 12 C 0.069455 3.839393 -0.361460 0
M  V30 13 O 0.566987 4.835888 -0.901269 0
M  V30 14 C -0.980399 3.919647 0.534591 0
M  V30 15 C -1.556790 5.216564 0.887580 0
M  V30 16 C -1.112038 5.999778 1.945198 0
M  V30 17 Cl 0.231305 5.390015 2.921821 0
M  V30 18 C -1.708420 7.225549 2.223490 0
M  V30 19 C -2.762965 7.681909 1.440154 0
M  V30 20 C -3.182587 6.880356 0.395577 0
M  V30 21 C -2.609408 5.660138 0.096731 0
M  V30 22 Cl -3.208518 4.699439 -1.258135 0
M  V30 23 C -1.532938 2.781572 1.137576 0
M  V30 24 N -1.005658 1.576076 0.817224 0
M  V30 25 C 0.031509 1.498981 -0.068257 0
M  V30 26 N 0.523322 0.285135 -0.357027 0
M  V30 27 C 2.272646 -3.645450 -1.415999 0
M  V30 28 C 1.935577 -4.905732 -0.981369 0
M  V30 29 C 0.906129 -5.071629 -0.080303 0
M  V30 30 C 0.458837 -6.387255 0.456354 0
M  V30 31 C 0.785624 -7.665440 -0.155447 0
M  V30 32 C -0.620745 -7.143249 -0.223987 0
M  V30 33 C 0.324045 -6.219735 1.946028 0
M  V30 34 H 0.064251 -3.212223 3.350822 0
M  V30 35 H 1.493260 -4.317447 3.018271 0
M  V30 36 H 0.301145 -4.740976 4.328955 0
M  V30 37 H -1.228733 -3.266731 1.807089 0
M  V30 38 H -1.704117 -4.728047 0.857585 0
M  V30 39 H 0.060728 -1.894515 0.276011 0
M  V30 40 H 2.850541 -1.265494 -2.190365 0
M  V30 41 H 2.083223 3.237704 -2.030156 0
M  V30 42 H -1.335968 7.826436 3.067966 0
M  V30 43 H -3.239472 8.639801 1.646615 0
M  V30 44 H -4.009267 7.280044 -0.187519 0
M  V30 45 H -2.352235 2.846922 1.836544 0
M  V30 46 H -1.387235 0.686566 1.245116 0
M  V30 47 H 3.103945 -3.620705 -2.130995 0
M  V30 48 H 2.460176 -5.791772 -1.328117 0
M  V30 49 H 1.050192 -8.571989 0.390354 0
M  V30 50 H 1.300190 -7.612085 -1.157502 0
M  V30 51 H -1.045499 -6.729033 -1.147320 0
M  V30 52 H -1.344602 -7.700574 0.423628 0
M  V30 53 H -0.065635 -7.140775 2.435459 0
M  V30 54 H 1.384213 -6.147248 2.329224 0
M  V30 END ATOM
M  V30 BEGIN BOND
M  V30 1 1 1 2
M  V30 2 1 2 3
M  V30 3 1 3 4
M  V30 4 2 4 5
M  V30 5 1 5 6
M  V30 6 1 6 7
M  V30 7 1 7 8
M  V30 8 2 8 9
M  V30 9 1 9 10
M  V30 10 2 10 11
M  V30 11 1 11 12
M  V30 12 2 12 13
M  V30 13 1 12 14
M  V30 14 1 14 15
M  V30 15 2 15 16
M  V30 16 1 16 17
M  V30 17 1 16 18
M  V30 18 2 18 19
M  V30 19 1 19 20
M  V30 20 2 20 21
M  V30 21 1 21 22
M  V30 22 2 14 23
M  V30 23 1 23 24
M  V30 24 1 24 25
M  V30 25 2 25 26
M  V30 26 2 6 27
M  V30 27 1 27 28
M  V30 28 2 28 29
M  V30 29 1 29 30
M  V30 30 1 30 31
M  V30 31 1 31 32
M  V30 32 1 30 33
M  V30 33 1 33 2
M  V30 34 1 29 4
M  V30 35 1 32 30
M  V30 36 1 26 8
M  V30 37 1 25 11
M  V30 38 1 21 15
M  V30 39 1 1 34
M  V30 40 1 1 35
M  V30 41 1 1 36
M  V30 42 1 3 37
M  V30 43 1 3 38
M  V30 44 1 5 39
M  V30 45 1 7 40
M  V30 46 1 10 41
M  V30 47 1 18 42
M  V30 48 1 19 43
M  V30 49 1 20 44
M  V30 50 1 23 45
M  V30 51 1 24 46
M  V30 52 1 27 47
M  V30 53 1 28 48
M  V30 54 1 31 49
M  V30 55 1 31 50
M  V30 56 1 32 51
M  V30 57 1 32 52
M  V30 58 1 33 53
M  V30 59 1 33 54
M  V30 END BOND
M  V30 END CTAB
M  END
>  <Dataset>  (328) 
ChEMBL_Kinases

>  <Ligand_Instance>  (328) 
nan

>  <PDB_ID>  (328) 
nan

>  <Standardized_SMILES>  (328) 
CN1Cc2cc(Nc3ncc4c(=O)c(-c5c(Cl)cccc5Cl)c[nH]c4n3)ccc2C2(CC2)C1

>  <Name>  (328) 
nan

>  <Pocket>  (328) 
nan

>  <ATP_Site>  (328) 
nan

>  <Peripheral>  (328) 
nan

>  <Num_H_Atoms_ProtBoundConf>  (328) 
nan

>  <Num_Resolved_Atoms>  (328) 
nan

>  <Num_Not_Resolved_Atoms>  (328) 
nan

$$$$
CHEMBL4470844
     RDKit          3D

  0  0  0  0  0  0  0  0  0  0999 V3000
M  V30 BEGIN CTAB
M  V30 COUNTS 40 42 0 0 0
M  V30 BEGIN ATOM
M  V30 1 C 0.294345 -4.582403 -1.260937 0
M  V30 2 C -0.137434 -3.570661 -0.173548 0 CFG=2
M  V30 3 O -1.070514 -4.257587 0.611840 0
M  V30 4 C -0.757995 -2.445920 -0.898681 0
M  V30 5 N -1.378295 -1.403392 -0.162455 0
M  V30 6 C -0.910354 -0.254344 0.507634 0
M  V30 7 C 0.398713 0.170690 0.551631 0
M  V30 8 C 0.919230 1.290557 1.157164 0
M  V30 9 C 2.327694 1.639837 1.137826 0
M  V30 10 C 3.341781 0.937479 0.534183 0
M  V30 11 C 4.652478 1.373570 0.584804 0
M  V30 12 N 4.987402 2.507976 1.230167 0
M  V30 13 C 4.018776 3.234070 1.840890 0
M  V30 14 C 2.709266 2.803223 1.793312 0
M  V30 15 N 0.000658 2.058200 1.785264 0
M  V30 16 C -1.301563 1.727239 1.798164 0
M  V30 17 C -2.173783 2.564071 2.461802 0
M  V30 18 N -3.509609 2.319866 2.534592 0
M  V30 19 C -4.006012 1.201365 1.926090 0
M  V30 20 C -3.110935 0.384588 1.271011 0
M  V30 21 C -1.767053 0.593566 1.175015 0
M  V30 22 C 1.061030 -3.336589 0.657300 0
M  V30 23 F 1.410529 -4.614795 1.170231 0
M  V30 24 F 2.182659 -2.906722 0.026395 0
M  V30 25 F 0.770847 -2.632869 1.838136 0
M  V30 26 H -0.515232 -5.323669 -1.444807 0
M  V30 27 H 0.494058 -4.069577 -2.214193 0
M  V30 28 H 1.211940 -5.122455 -0.969662 0
M  V30 29 H -1.664543 -3.588840 1.062826 0
M  V30 30 H 0.033066 -1.977782 -1.562510 0
M  V30 31 H -1.449116 -2.906842 -1.665326 0
M  V30 32 H -2.400423 -1.593614 -0.151578 0
M  V30 33 H 1.127486 -0.458035 0.035884 0
M  V30 34 H 3.087957 0.043211 0.023740 0
M  V30 35 H 5.396367 0.756969 0.079324 0
M  V30 36 H 4.348533 4.124006 2.335982 0
M  V30 37 H 2.022204 3.456712 2.312093 0
M  V30 38 H -1.786172 3.455065 2.947865 0
M  V30 39 H -5.070417 1.018836 1.991566 0
M  V30 40 H -3.584092 -0.463449 0.826794 0
M  V30 END ATOM
M  V30 BEGIN BOND
M  V30 1 1 1 2
M  V30 2 1 2 3 CFG=1
M  V30 3 1 2 4
M  V30 4 1 4 5
M  V30 5 1 5 6
M  V30 6 2 6 7
M  V30 7 1 7 8
M  V30 8 1 8 9
M  V30 9 2 9 10
M  V30 10 1 10 11
M  V30 11 2 11 12
M  V30 12 1 12 13
M  V30 13 2 13 14
M  V30 14 2 8 15
M  V30 15 1 15 16
M  V30 16 2 16 17
M  V30 17 1 17 18
M  V30 18 2 18 19
M  V30 19 1 19 20
M  V30 20 2 20 21
M  V30 21 1 2 22
M  V30 22 1 22 23
M  V30 23 1 22 24
M  V30 24 1 22 25
M  V30 25 1 21 6
M  V30 26 1 14 9
M  V30 27 1 21 16
M  V30 28 1 1 26
M  V30 29 1 1 27
M  V30 30 1 1 28
M  V30 31 1 3 29
M  V30 32 1 4 30
M  V30 33 1 4 31
M  V30 34 1 5 32
M  V30 35 1 7 33
M  V30 36 1 10 34
M  V30 37 1 11 35
M  V30 38 1 13 36
M  V30 39 1 14 37
M  V30 40 1 17 38
M  V30 41 1 19 39
M  V30 42 1 20 40
M  V30 END BOND
M  V30 END CTAB
M  END
>  <Dataset>  (329) 
ChEMBL_Kinases

>  <Ligand_Instance>  (329) 
nan

>  <PDB_ID>  (329) 
nan

>  <Standardized_SMILES>  (329) 
C[C@](O)(CNc1cc(-c2ccncc2)nc2cnccc12)C(F)(F)F

>  <Name>  (329) 
nan

>  <Pocket>  (329) 
nan

>  <ATP_Site>  (329) 
nan

>  <Peripheral>  (329) 
nan

>  <Num_H_Atoms_ProtBoundConf>  (329) 
nan

>  <Num_Resolved_Atoms>  (329) 
nan

>  <Num_Not_Resolved_Atoms>  (329) 
nan

$$$$
CHEMBL4470800
     RDKit          3D

  0  0  0  0  0  0  0  0  0  0999 V3000
M  V30 BEGIN CTAB
M  V30 COUNTS 60 64 0 0 0
M  V30 BEGIN ATOM
M  V30 1 O 1.013997 -5.271316 -0.387136 0
M  V30 2 C 0.144609 -4.393876 -0.235122 0
M  V30 3 C 0.413979 -3.040093 0.236815 0
M  V30 4 C 1.533817 -2.350614 0.621907 0
M  V30 5 C 1.473196 -1.035492 1.032784 0
M  V30 6 C 2.625266 -0.247590 1.454014 0
M  V30 7 C 3.906589 -0.747787 1.483128 0
M  V30 8 C 5.017332 -0.015554 1.880508 0
M  V30 9 N 4.796553 1.270938 2.258630 0
M  V30 10 C 3.550739 1.777208 2.236684 0
M  V30 11 N 3.255909 3.116976 2.620894 0
M  V30 12 C 1.972729 3.745865 2.632572 0
M  V30 13 C 2.043056 5.203056 3.108110 0
M  V30 14 C 0.632775 5.628123 3.361261 0
M  V30 15 C -0.293340 5.483738 2.202652 0
M  V30 16 C -0.065796 4.292826 1.333187 0
M  V30 17 C 1.347116 3.809968 1.261819 0
M  V30 18 N 2.507171 1.037167 1.846711 0
M  V30 19 C 0.235404 -0.427376 1.044529 0
M  V30 20 C -0.932237 -1.060872 0.670265 0
M  V30 21 C -0.816014 -2.386769 0.264141 0
M  V30 22 C -1.944113 -3.255065 -0.179181 0
M  V30 23 N -1.248145 -4.494481 -0.472515 0
M  V30 24 C -1.988156 -5.645758 -0.949387 0
M  V30 25 C -3.020146 -6.068099 0.071628 0
M  V30 26 O -2.355166 -6.393462 1.251718 0
M  V30 27 C -2.599168 -5.355304 -2.268154 0
M  V30 28 C -1.706194 -4.720142 -3.138477 0
M  V30 29 C -2.116268 -4.371636 -4.428969 0
M  V30 30 C -3.390272 -4.636674 -4.879983 0
M  V30 31 C -4.235537 -5.263964 -3.987350 0
M  V30 32 Cl -5.877863 -5.637296 -4.485112 0
M  V30 33 C -3.886038 -5.624030 -2.721051 0
M  V30 34 H 2.484424 -2.839266 0.605980 0
M  V30 35 H 4.103788 -1.749067 1.192578 0
M  V30 36 H 6.020833 -0.416306 1.900444 0
M  V30 37 H 4.080048 3.709766 2.931539 0
M  V30 38 H 1.320042 3.187907 3.347306 0
M  V30 39 H 2.574131 5.185961 4.063119 0
M  V30 40 H 2.562417 5.792521 2.341844 0
M  V30 41 H 0.671283 6.729774 3.604494 0
M  V30 42 H 0.285223 5.107124 4.290800 0
M  V30 43 H -1.327437 5.365039 2.638484 0
M  V30 44 H -0.377731 6.446446 1.622294 0
M  V30 45 H -0.332007 4.610217 0.282953 0
M  V30 46 H -0.751403 3.446985 1.554593 0
M  V30 47 H 1.338557 2.817377 0.783960 0
M  V30 48 H 1.977739 4.467370 0.629902 0
M  V30 49 H 0.158759 0.611288 1.364795 0
M  V30 50 H -1.877770 -0.533968 0.699149 0
M  V30 51 H -2.706079 -3.389600 0.630642 0
M  V30 52 H -2.461440 -2.840175 -1.056007 0
M  V30 53 H -1.260189 -6.486895 -1.110835 0
M  V30 54 H -3.586030 -6.947976 -0.226702 0
M  V30 55 H -3.657173 -5.180673 0.291716 0
M  V30 56 H -2.975094 -6.545487 2.007415 0
M  V30 57 H -0.666501 -4.460581 -2.884673 0
M  V30 58 H -1.435558 -3.875440 -5.124115 0
M  V30 59 H -3.713944 -4.370859 -5.874123 0
M  V30 60 H -4.487998 -6.109062 -1.984202 0
M  V30 END ATOM
M  V30 BEGIN BOND
M  V30 1 2 1 2
M  V30 2 1 2 3
M  V30 3 2 3 4
M  V30 4 1 4 5
M  V30 5 1 5 6
M  V30 6 2 6 7
M  V30 7 1 7 8
M  V30 8 2 8 9
M  V30 9 1 9 10
M  V30 10 1 10 11
M  V30 11 1 11 12
M  V30 12 1 12 13
M  V30 13 1 13 14
M  V30 14 1 14 15
M  V30 15 1 15 16
M  V30 16 1 16 17
M  V30 17 2 10 18
M  V30 18 2 5 19
M  V30 19 1 19 20
M  V30 20 2 20 21
M  V30 21 1 21 22
M  V30 22 1 22 23
M  V30 23 1 23 24
M  V30 24 1 24 25
M  V30 25 1 25 26
M  V30 26 1 24 27
M  V30 27 2 27 28
M  V30 28 1 28 29
M  V30 29 2 29 30
M  V30 30 1 30 31
M  V30 31 1 31 32
M  V30 32 2 31 33
M  V30 33 1 23 2
M  V30 34 1 33 27
M  V30 35 1 21 3
M  V30 36 1 18 6
M  V30 37 1 17 12
M  V30 38 1 4 34
M  V30 39 1 7 35
M  V30 40 1 8 36
M  V30 41 1 11 37
M  V30 42 1 12 38
M  V30 43 1 13 39
M  V30 44 1 13 40
M  V30 45 1 14 41
M  V30 46 1 14 42
M  V30 47 1 15 43
M  V30 48 1 15 44
M  V30 49 1 16 45
M  V30 50 1 16 46
M  V30 51 1 17 47
M  V30 52 1 17 48
M  V30 53 1 19 49
M  V30 54 1 20 50
M  V30 55 1 22 51
M  V30 56 1 22 52
M  V30 57 1 24 53
M  V30 58 1 25 54
M  V30 59 1 25 55
M  V30 60 1 26 56
M  V30 61 1 28 57
M  V30 62 1 29 58
M  V30 63 1 30 59
M  V30 64 1 33 60
M  V30 END BOND
M  V30 END CTAB
M  END
>  <Dataset>  (330) 
ChEMBL_Kinases

>  <Ligand_Instance>  (330) 
nan

>  <PDB_ID>  (330) 
nan

>  <Standardized_SMILES>  (330) 
O=C1c2cc(-c3ccnc(NC4CCCCC4)n3)ccc2CN1C(CO)c1cccc(Cl)c1

>  <Name>  (330) 
nan

>  <Pocket>  (330) 
nan

>  <ATP_Site>  (330) 
nan

>  <Peripheral>  (330) 
nan

>  <Num_H_Atoms_ProtBoundConf>  (330) 
nan

>  <Num_Resolved_Atoms>  (330) 
nan

>  <Num_Not_Resolved_Atoms>  (330) 
nan

$$$$
CHEMBL470424
     RDKit          3D

  0  0  0  0  0  0  0  0  0  0999 V3000
M  V30 BEGIN CTAB
M  V30 COUNTS 39 40 0 0 0
M  V30 BEGIN ATOM
M  V30 1 C -0.718184 -5.366625 4.081416 0
M  V30 2 O -1.183143 -4.080647 3.722540 0
M  V30 3 C -0.529884 -3.286486 2.782973 0
M  V30 4 C 0.596386 -3.848924 2.236321 0
M  V30 5 C 1.243386 -3.069757 1.308049 0
M  V30 6 C 0.817077 -1.812464 0.932805 0
M  V30 7 C 1.554722 -1.135450 -0.096022 0
M  V30 8 O 2.618290 -1.739493 -0.433715 0
M  V30 9 C 1.673406 -0.029123 -0.988120 0
M  V30 10 C 0.967765 1.035630 -1.277666 0
M  V30 11 C 1.153735 2.132753 -2.207245 0
M  V30 12 C 0.260921 3.164963 -2.343196 0
M  V30 13 C 0.468415 4.178170 -3.226338 0
M  V30 14 N 1.557138 4.213822 -4.005416 0
M  V30 15 C 2.496467 3.235211 -3.940774 0
M  V30 16 C 2.249576 2.224310 -3.032062 0
M  V30 17 C -0.322357 -1.358922 1.552661 0
M  V30 18 O -0.877891 -0.126517 1.302332 0
M  V30 19 C -0.581207 1.047848 2.021267 0
M  V30 20 C -1.057854 -2.045697 2.495979 0
M  V30 21 O -2.200885 -1.596611 3.118702 0
M  V30 22 C -2.312178 -0.877373 4.296755 0
M  V30 23 H 0.287909 -5.382437 4.504013 0
M  V30 24 H -1.472011 -5.914239 4.662340 0
M  V30 25 H -0.660219 -5.922637 3.099575 0
M  V30 26 H 0.954265 -4.829980 2.509842 0
M  V30 27 H 2.144848 -3.553066 0.887633 0
M  V30 28 H 2.513320 0.128346 -1.684594 0
M  V30 29 H 0.045329 1.125393 -0.730975 0
M  V30 30 H -0.640147 3.180119 -1.730997 0
M  V30 31 H -0.251312 4.962030 -3.300713 0
M  V30 32 H 3.363151 3.292746 -4.582248 0
M  V30 33 H 3.042297 1.487399 -3.042451 0
M  V30 34 H -0.242354 0.721984 3.032025 0
M  V30 35 H -1.470577 1.688736 2.190763 0
M  V30 36 H 0.258201 1.639344 1.613728 0
M  V30 37 H -1.523489 -1.152270 5.030324 0
M  V30 38 H -3.275129 -1.190077 4.795409 0
M  V30 39 H -2.360817 0.219188 4.191194 0
M  V30 END ATOM
M  V30 BEGIN BOND
M  V30 1 1 1 2
M  V30 2 1 2 3
M  V30 3 2 3 4
M  V30 4 1 4 5
M  V30 5 2 5 6
M  V30 6 1 6 7
M  V30 7 2 7 8
M  V30 8 1 7 9
M  V30 9 2 9 10
M  V30 10 1 10 11
M  V30 11 2 11 12
M  V30 12 1 12 13
M  V30 13 2 13 14
M  V30 14 1 14 15
M  V30 15 2 15 16
M  V30 16 1 6 17
M  V30 17 1 17 18
M  V30 18 1 18 19
M  V30 19 2 17 20
M  V30 20 1 20 21
M  V30 21 1 21 22
M  V30 22 1 20 3
M  V30 23 1 16 11
M  V30 24 1 1 23
M  V30 25 1 1 24
M  V30 26 1 1 25
M  V30 27 1 4 26
M  V30 28 1 5 27
M  V30 29 1 9 28
M  V30 30 1 10 29
M  V30 31 1 12 30
M  V30 32 1 13 31
M  V30 33 1 15 32
M  V30 34 1 16 33
M  V30 35 1 19 34
M  V30 36 1 19 35
M  V30 37 1 19 36
M  V30 38 1 22 37
M  V30 39 1 22 38
M  V30 40 1 22 39
M  V30 END BOND
M  V30 END CTAB
M  END
>  <Dataset>  (331) 
ChEMBL_Kinases

>  <Ligand_Instance>  (331) 
nan

>  <PDB_ID>  (331) 
nan

>  <Standardized_SMILES>  (331) 
COc1ccc(C(=O)/C=C/c2ccncc2)c(OC)c1OC

>  <Name>  (331) 
nan

>  <Pocket>  (331) 
nan

>  <ATP_Site>  (331) 
nan

>  <Peripheral>  (331) 
nan

>  <Num_H_Atoms_ProtBoundConf>  (331) 
nan

>  <Num_Resolved_Atoms>  (331) 
nan

>  <Num_Not_Resolved_Atoms>  (331) 
nan

$$$$
CHEMBL4470706
     RDKit          3D

  0  0  0  0  0  0  0  0  0  0999 V3000
M  V30 BEGIN CTAB
M  V30 COUNTS 38 42 0 0 0
M  V30 BEGIN ATOM
M  V30 1 O 0.600781 -3.618079 2.893101 0
M  V30 2 C 1.516707 -2.977976 2.312844 0
M  V30 3 N 2.800171 -3.244381 2.601763 0
M  V30 4 C 3.593749 -2.442445 1.864722 0
M  V30 5 C 4.959689 -2.226058 1.698673 0
M  V30 6 N 5.397049 -1.294197 0.828429 0
M  V30 7 C 4.597193 -0.535333 0.086800 0
M  V30 8 C 3.229551 -0.693619 0.197763 0
M  V30 9 C 2.768215 -1.646222 1.086971 0
M  V30 10 N 1.491116 -1.997553 1.383394 0
M  V30 11 C 0.262899 -1.492998 0.870488 0
M  V30 12 C -0.039880 -0.159116 0.970553 0
M  V30 13 C -1.185343 0.412946 0.511233 0
M  V30 14 C -1.608747 1.796734 0.561027 0
M  V30 15 C -2.830958 2.129748 0.018838 0
M  V30 16 C -3.316725 3.420401 0.020395 0
M  V30 17 Cl -4.863187 3.801696 -0.673143 0
M  V30 18 C -2.594224 4.457118 0.572062 0
M  V30 19 C -1.366135 4.159448 1.123781 0
M  V30 20 C -0.922293 2.855895 1.099068 0
M  V30 21 F 0.281623 2.644921 1.655092 0
M  V30 22 N -2.021914 -0.466992 -0.067250 0
M  V30 23 C -1.769241 -1.783428 -0.188825 0
M  V30 24 N -2.571651 -2.719902 -0.760993 0
M  V30 25 C -1.906827 -3.887686 -0.650909 0
M  V30 26 C -0.681656 -3.688576 -0.007759 0
M  V30 27 C -0.606526 -2.352221 0.279639 0
M  V30 28 H 3.222070 -3.932523 3.265638 0
M  V30 29 H 5.611868 -2.842957 2.301617 0
M  V30 30 H 5.036979 0.186585 -0.584502 0
M  V30 31 H 2.555241 -0.093193 -0.390212 0
M  V30 32 H 0.682441 0.480989 1.447626 0
M  V30 33 H -3.482865 1.388236 -0.442608 0
M  V30 34 H -2.988368 5.463065 0.565583 0
M  V30 35 H -0.780394 4.954511 1.562529 0
M  V30 36 H -3.512656 -2.615024 -1.206687 0
M  V30 37 H -2.173383 -4.876042 -0.967802 0
M  V30 38 H 0.090352 -4.386904 0.243241 0
M  V30 END ATOM
M  V30 BEGIN BOND
M  V30 1 2 1 2
M  V30 2 1 2 3
M  V30 3 1 3 4
M  V30 4 2 4 5
M  V30 5 1 5 6
M  V30 6 2 6 7
M  V30 7 1 7 8
M  V30 8 2 8 9
M  V30 9 1 9 10
M  V30 10 1 10 11
M  V30 11 2 11 12
M  V30 12 1 12 13
M  V30 13 1 13 14
M  V30 14 2 14 15
M  V30 15 1 15 16
M  V30 16 1 16 17
M  V30 17 2 16 18
M  V30 18 1 18 19
M  V30 19 2 19 20
M  V30 20 1 20 21
M  V30 21 2 13 22
M  V30 22 1 22 23
M  V30 23 1 23 24
M  V30 24 1 24 25
M  V30 25 2 25 26
M  V30 26 1 26 27
M  V30 27 1 10 2
M  V30 28 1 27 11
M  V30 29 1 9 4
M  V30 30 1 20 14
M  V30 31 2 27 23
M  V30 32 1 3 28
M  V30 33 1 5 29
M  V30 34 1 7 30
M  V30 35 1 8 31
M  V30 36 1 12 32
M  V30 37 1 15 33
M  V30 38 1 18 34
M  V30 39 1 19 35
M  V30 40 1 24 36
M  V30 41 1 25 37
M  V30 42 1 26 38
M  V30 END BOND
M  V30 END CTAB
M  END
>  <Dataset>  (332) 
ChEMBL_Kinases

>  <Ligand_Instance>  (332) 
nan

>  <PDB_ID>  (332) 
nan

>  <Standardized_SMILES>  (332) 
O=c1[nH]c2cnccc2n1-c1cc(-c2cc(Cl)ccc2F)nc2[nH]ccc12

>  <Name>  (332) 
nan

>  <Pocket>  (332) 
nan

>  <ATP_Site>  (332) 
nan

>  <Peripheral>  (332) 
nan

>  <Num_H_Atoms_ProtBoundConf>  (332) 
nan

>  <Num_Resolved_Atoms>  (332) 
nan

>  <Num_Not_Resolved_Atoms>  (332) 
nan

$$$$
CHEMBL470565
     RDKit          3D

  0  0  0  0  0  0  0  0  0  0999 V3000
M  V30 BEGIN CTAB
M  V30 COUNTS 40 43 0 0 0
M  V30 BEGIN ATOM
M  V30 1 C 3.840085 -4.046696 3.779177 0
M  V30 2 O 2.704723 -3.235868 3.457574 0
M  V30 3 C 2.224109 -3.198008 2.158703 0
M  V30 4 C 1.125490 -2.426063 1.802496 0
M  V30 5 C 0.676722 -2.414130 0.498464 0
M  V30 6 C 1.255409 -3.132202 -0.504020 0
M  V30 7 C 0.831066 -3.164238 -1.926125 0
M  V30 8 S 1.646692 -1.937289 -2.954062 0
M  V30 9 C 1.211545 -0.259208 -2.532418 0
M  V30 10 N 1.664450 0.861318 -3.118599 0
M  V30 11 N 1.077852 1.872602 -2.486008 0
M  V30 12 C 0.266760 1.416941 -1.515982 0
M  V30 13 C -0.570998 2.154662 -0.575459 0
M  V30 14 C -0.621731 3.532471 -0.585661 0
M  V30 15 C -1.426407 4.191196 0.320626 0
M  V30 16 C -2.204915 3.536398 1.262650 0
M  V30 17 C -2.114744 2.164549 1.226510 0
M  V30 18 C -1.327011 1.458184 0.342378 0
M  V30 19 C -2.988379 1.552122 2.277572 0
M  V30 20 C -3.363594 2.745807 3.096774 0
M  V30 21 O -3.089314 3.869765 2.278527 0
M  V30 22 O 0.394081 0.128496 -1.598597 0
M  V30 23 C 2.359720 -3.901216 -0.118934 0
M  V30 24 C 2.841499 -3.942203 1.174321 0
M  V30 25 H 4.120453 -3.864641 4.826074 0
M  V30 26 H 3.475537 -5.094783 3.609008 0
M  V30 27 H 4.629845 -3.776650 3.058666 0
M  V30 28 H 0.625223 -1.832442 2.564225 0
M  V30 29 H -0.175219 -1.811077 0.249673 0
M  V30 30 H -0.281776 -3.091415 -2.019762 0
M  V30 31 H 1.109831 -4.161278 -2.324333 0
M  V30 32 H -0.022396 4.069399 -1.312345 0
M  V30 33 H -1.486629 5.287941 0.335629 0
M  V30 34 H -1.263565 0.375192 0.323211 0
M  V30 35 H -2.395196 0.803685 2.851017 0
M  V30 36 H -3.841009 1.001116 1.844592 0
M  V30 37 H -2.830225 2.829960 4.066516 0
M  V30 38 H -4.453970 2.656796 3.345790 0
M  V30 39 H 2.873682 -4.502348 -0.868322 0
M  V30 40 H 3.705783 -4.565291 1.396285 0
M  V30 END ATOM
M  V30 BEGIN BOND
M  V30 1 1 1 2
M  V30 2 1 2 3
M  V30 3 2 3 4
M  V30 4 1 4 5
M  V30 5 2 5 6
M  V30 6 1 6 7
M  V30 7 1 7 8
M  V30 8 1 8 9
M  V30 9 2 9 10
M  V30 10 1 10 11
M  V30 11 2 11 12
M  V30 12 1 12 13
M  V30 13 2 13 14
M  V30 14 1 14 15
M  V30 15 2 15 16
M  V30 16 1 16 17
M  V30 17 2 17 18
M  V30 18 1 17 19
M  V30 19 1 19 20
M  V30 20 1 20 21
M  V30 21 1 12 22
M  V30 22 1 6 23
M  V30 23 2 23 24
M  V30 24 1 24 3
M  V30 25 1 22 9
M  V30 26 1 18 13
M  V30 27 1 21 16
M  V30 28 1 1 25
M  V30 29 1 1 26
M  V30 30 1 1 27
M  V30 31 1 4 28
M  V30 32 1 5 29
M  V30 33 1 7 30
M  V30 34 1 7 31
M  V30 35 1 14 32
M  V30 36 1 15 33
M  V30 37 1 18 34
M  V30 38 1 19 35
M  V30 39 1 19 36
M  V30 40 1 20 37
M  V30 41 1 20 38
M  V30 42 1 23 39
M  V30 43 1 24 40
M  V30 END BOND
M  V30 END CTAB
M  END
>  <Dataset>  (333) 
ChEMBL_Kinases

>  <Ligand_Instance>  (333) 
nan

>  <PDB_ID>  (333) 
nan

>  <Standardized_SMILES>  (333) 
COc1ccc(CSc2nnc(-c3ccc4c(c3)CCO4)o2)cc1

>  <Name>  (333) 
nan

>  <Pocket>  (333) 
nan

>  <ATP_Site>  (333) 
nan

>  <Peripheral>  (333) 
nan

>  <Num_H_Atoms_ProtBoundConf>  (333) 
nan

>  <Num_Resolved_Atoms>  (333) 
nan

>  <Num_Not_Resolved_Atoms>  (333) 
nan

$$$$
CHEMBL4470651
     RDKit          3D

  0  0  0  0  0  0  0  0  0  0999 V3000
M  V30 BEGIN CTAB
M  V30 COUNTS 58 62 0 0 0
M  V30 BEGIN ATOM
M  V30 1 O 0.959283 -4.519379 -0.059678 0
M  V30 2 C 0.006915 -3.671781 0.045271 0
M  V30 3 C 0.405264 -2.294224 0.357175 0
M  V30 4 C 1.568568 -1.599550 0.601207 0
M  V30 5 C 1.587256 -0.267322 0.890980 0
M  V30 6 C 2.793000 0.503419 1.150405 0
M  V30 7 C 3.982046 -0.149560 1.086739 0
M  V30 8 C 5.121645 0.584003 1.323964 0
M  V30 9 N 5.071610 1.890831 1.607403 0
M  V30 10 C 3.881020 2.560912 1.674947 0
M  V30 11 N 3.775988 3.955259 1.955549 0
M  V30 12 C 2.620463 4.814641 2.097590 0
M  V30 13 C 1.776401 4.555071 3.292464 0
M  V30 14 C 0.547829 3.757803 3.077284 0
M  V30 15 O -0.181314 3.991526 1.950040 0
M  V30 16 C 0.289188 4.987565 1.141628 0
M  V30 17 C 1.776276 4.857389 0.860038 0
M  V30 18 N 2.813859 1.790788 1.434540 0
M  V30 19 C 0.358024 0.356735 0.926857 0
M  V30 20 C -0.875615 -0.261150 0.693449 0
M  V30 21 C -0.789762 -1.611004 0.407934 0
M  V30 22 C -1.983741 -2.480972 0.098775 0
M  V30 23 N -1.429223 -3.787769 -0.082875 0
M  V30 24 C -1.946697 -5.115889 -0.342763 0 CFG=1
M  V30 25 C -2.756415 -5.562613 0.875915 0
M  V30 26 O -3.250298 -6.833799 0.624416 0
M  V30 27 C -2.787885 -5.163380 -1.565269 0
M  V30 28 C -2.502296 -6.130659 -2.531367 0
M  V30 29 C -3.179846 -6.332094 -3.719745 0
M  V30 30 C -4.235244 -5.501049 -3.974726 0
M  V30 31 C -4.562333 -4.529063 -3.057192 0
M  V30 32 Cl -5.925286 -3.441888 -3.366861 0
M  V30 33 C -3.856124 -4.367960 -1.886206 0
M  V30 34 H 2.470704 -2.155381 0.553703 0
M  V30 35 H 4.190305 -1.178608 0.874843 0
M  V30 36 H 6.143603 0.199315 1.307946 0
M  V30 37 H 4.753546 4.376726 2.069647 0
M  V30 38 H 3.060949 5.855856 2.226615 0
M  V30 39 H 1.509060 5.568491 3.744075 0
M  V30 40 H 2.358290 4.050770 4.111594 0
M  V30 41 H 0.820182 2.661810 3.117262 0
M  V30 42 H -0.118218 3.964894 3.978499 0
M  V30 43 H -0.207667 4.885601 0.145702 0
M  V30 44 H 0.037429 6.008466 1.483121 0
M  V30 45 H 2.017253 5.745589 0.237416 0
M  V30 46 H 1.981936 3.994228 0.187132 0
M  V30 47 H 0.325666 1.413914 1.150258 0
M  V30 48 H -1.781730 0.318383 0.745899 0
M  V30 49 H -2.663872 -2.380508 0.957114 0
M  V30 50 H -2.415863 -2.036796 -0.841639 0
M  V30 51 H -1.125750 -5.856756 -0.411813 0
M  V30 52 H -2.048736 -5.538610 1.732037 0
M  V30 53 H -3.630007 -4.903794 1.034554 0
M  V30 54 H -3.590019 -6.844982 -0.322070 0
M  V30 55 H -1.653982 -6.802568 -2.332012 0
M  V30 56 H -2.855510 -7.120224 -4.384184 0
M  V30 57 H -4.778592 -5.639920 -4.896469 0
M  V30 58 H -4.126918 -3.608586 -1.169853 0
M  V30 END ATOM
M  V30 BEGIN BOND
M  V30 1 2 1 2
M  V30 2 1 2 3
M  V30 3 2 3 4
M  V30 4 1 4 5
M  V30 5 1 5 6
M  V30 6 2 6 7
M  V30 7 1 7 8
M  V30 8 2 8 9
M  V30 9 1 9 10
M  V30 10 1 10 11
M  V30 11 1 11 12
M  V30 12 1 12 13
M  V30 13 1 13 14
M  V30 14 1 14 15
M  V30 15 1 15 16
M  V30 16 1 16 17
M  V30 17 2 10 18
M  V30 18 2 5 19
M  V30 19 1 19 20
M  V30 20 2 20 21
M  V30 21 1 21 22
M  V30 22 1 22 23
M  V30 23 1 23 24
M  V30 24 1 24 25
M  V30 25 1 25 26
M  V30 26 1 24 27
M  V30 27 2 27 28
M  V30 28 1 28 29
M  V30 29 2 29 30
M  V30 30 1 30 31
M  V30 31 1 31 32
M  V30 32 2 31 33
M  V30 33 1 23 2
M  V30 34 1 33 27
M  V30 35 1 21 3
M  V30 36 1 18 6
M  V30 37 1 17 12
M  V30 38 1 4 34
M  V30 39 1 7 35
M  V30 40 1 8 36
M  V30 41 1 11 37
M  V30 42 1 12 38
M  V30 43 1 13 39
M  V30 44 1 13 40
M  V30 45 1 14 41
M  V30 46 1 14 42
M  V30 47 1 16 43
M  V30 48 1 16 44
M  V30 49 1 17 45
M  V30 50 1 17 46
M  V30 51 1 19 47
M  V30 52 1 20 48
M  V30 53 1 22 49
M  V30 54 1 22 50
M  V30 55 1 24 51 CFG=3
M  V30 56 1 25 52
M  V30 57 1 25 53
M  V30 58 1 26 54
M  V30 59 1 28 55
M  V30 60 1 29 56
M  V30 61 1 30 57
M  V30 62 1 33 58
M  V30 END BOND
M  V30 END CTAB
M  END
>  <Dataset>  (334) 
ChEMBL_Kinases

>  <Ligand_Instance>  (334) 
nan

>  <PDB_ID>  (334) 
nan

>  <Standardized_SMILES>  (334) 
O=C1c2cc(-c3ccnc(NC4CCOCC4)n3)ccc2CN1[C@@H](CO)c1cccc(Cl)c1

>  <Name>  (334) 
nan

>  <Pocket>  (334) 
nan

>  <ATP_Site>  (334) 
nan

>  <Peripheral>  (334) 
nan

>  <Num_H_Atoms_ProtBoundConf>  (334) 
nan

>  <Num_Resolved_Atoms>  (334) 
nan

>  <Num_Not_Resolved_Atoms>  (334) 
nan

$$$$
CHEMBL4470612
     RDKit          3D

  0  0  0  0  0  0  0  0  0  0999 V3000
M  V30 BEGIN CTAB
M  V30 COUNTS 45 47 0 0 0
M  V30 BEGIN ATOM
M  V30 1 C -1.014116 -5.745201 2.745196 0
M  V30 2 O 0.251867 -5.645685 2.203182 0
M  V30 3 C 0.729297 -4.342601 2.144036 0
M  V30 4 C -0.184468 -3.522355 1.297316 0
M  V30 5 C 0.251551 -2.069206 1.152518 0
M  V30 6 C 0.293980 -1.437432 2.552581 0
M  V30 7 C 1.626492 -1.924339 0.566948 0
M  V30 8 N -0.776660 -1.388546 0.373878 0
M  V30 9 C -0.593323 -0.021696 0.025891 0
M  V30 10 N 0.475828 0.706870 0.353960 0
M  V30 11 C 0.700331 1.982131 0.050972 0
M  V30 12 C 1.928934 2.637295 0.488267 0
M  V30 13 C 2.169325 3.961896 0.177421 0
M  V30 14 C 3.355598 4.507067 0.628611 0
M  V30 15 N 4.302943 3.852449 1.350071 0
M  V30 16 C 4.028286 2.547138 1.636274 0
M  V30 17 C 2.852246 1.912941 1.220033 0
M  V30 18 N -0.207997 2.676254 -0.662850 0
M  V30 19 C -1.348009 2.040543 -1.059423 0
M  V30 20 C -2.289094 2.731586 -1.789589 0
M  V30 21 N -3.415797 2.097555 -2.179536 0
M  V30 22 C -3.632072 0.797489 -1.863928 0
M  V30 23 C -2.671917 0.131687 -1.131973 0
M  V30 24 C -1.500240 0.718213 -0.702343 0
M  V30 25 H -1.013336 -5.336645 3.787007 0
M  V30 26 H -1.250470 -6.835556 2.878904 0
M  V30 27 H -1.819616 -5.360429 2.107294 0
M  V30 28 H 1.727775 -4.409047 1.662811 0
M  V30 29 H 0.786578 -3.941284 3.175969 0
M  V30 30 H -0.232169 -3.981144 0.288693 0
M  V30 31 H -1.183676 -3.473913 1.792976 0
M  V30 32 H 1.131223 -1.946516 3.116176 0
M  V30 33 H -0.673195 -1.500933 3.071955 0
M  V30 34 H 0.668709 -0.405841 2.407943 0
M  V30 35 H 1.656249 -1.241242 -0.329937 0
M  V30 36 H 2.380231 -1.496992 1.275898 0
M  V30 37 H 2.044233 -2.928404 0.298576 0
M  V30 38 H -1.619508 -1.924855 0.093839 0
M  V30 39 H 1.482824 4.558586 -0.385913 0
M  V30 40 H 3.554876 5.555551 0.387353 0
M  V30 41 H 4.775407 1.994401 2.217340 0
M  V30 42 H 2.674994 0.884640 1.466330 0
M  V30 43 H -2.117363 3.766405 -2.041028 0
M  V30 44 H -4.558089 0.335110 -2.203865 0
M  V30 45 H -2.919826 -0.888950 -0.925686 0
M  V30 END ATOM
M  V30 BEGIN BOND
M  V30 1 1 1 2
M  V30 2 1 2 3
M  V30 3 1 3 4
M  V30 4 1 4 5
M  V30 5 1 5 6
M  V30 6 1 5 7
M  V30 7 1 5 8
M  V30 8 1 8 9
M  V30 9 2 9 10
M  V30 10 1 10 11
M  V30 11 1 11 12
M  V30 12 2 12 13
M  V30 13 1 13 14
M  V30 14 2 14 15
M  V30 15 1 15 16
M  V30 16 2 16 17
M  V30 17 2 11 18
M  V30 18 1 18 19
M  V30 19 2 19 20
M  V30 20 1 20 21
M  V30 21 2 21 22
M  V30 22 1 22 23
M  V30 23 2 23 24
M  V30 24 1 24 9
M  V30 25 1 17 12
M  V30 26 1 24 19
M  V30 27 1 1 25
M  V30 28 1 1 26
M  V30 29 1 1 27
M  V30 30 1 3 28
M  V30 31 1 3 29
M  V30 32 1 4 30
M  V30 33 1 4 31
M  V30 34 1 6 32
M  V30 35 1 6 33
M  V30 36 1 6 34
M  V30 37 1 7 35
M  V30 38 1 7 36
M  V30 39 1 7 37
M  V30 40 1 8 38
M  V30 41 1 13 39
M  V30 42 1 14 40
M  V30 43 1 16 41
M  V30 44 1 17 42
M  V30 45 1 20 43
M  V30 46 1 22 44
M  V30 47 1 23 45
M  V30 END BOND
M  V30 END CTAB
M  END
>  <Dataset>  (335) 
ChEMBL_Kinases

>  <Ligand_Instance>  (335) 
nan

>  <PDB_ID>  (335) 
nan

>  <Standardized_SMILES>  (335) 
COCCC(C)(C)Nc1nc(-c2ccncc2)nc2cnccc12

>  <Name>  (335) 
nan

>  <Pocket>  (335) 
nan

>  <ATP_Site>  (335) 
nan

>  <Peripheral>  (335) 
nan

>  <Num_H_Atoms_ProtBoundConf>  (335) 
nan

>  <Num_Resolved_Atoms>  (335) 
nan

>  <Num_Not_Resolved_Atoms>  (335) 
nan

$$$$
CHEMBL4470606
     RDKit          3D

  0  0  0  0  0  0  0  0  0  0999 V3000
M  V30 BEGIN CTAB
M  V30 COUNTS 59 62 0 0 0
M  V30 BEGIN ATOM
M  V30 1 C 4.502371 0.690572 6.531084 0
M  V30 2 N 5.325376 0.247079 5.429073 0
M  V30 3 N 6.626251 -0.054258 5.589226 0
M  V30 4 C 7.121799 -0.437640 4.402965 0
M  V30 5 C 6.049132 -0.345934 3.542469 0
M  V30 6 Cl 6.575055 -0.830979 1.918741 0
M  V30 7 C 4.911569 0.085886 4.183146 0
M  V30 8 C 3.710582 0.230290 3.426603 0
M  V30 9 C 3.582697 -0.035618 2.081375 0
M  V30 10 C 2.309931 0.194645 1.601684 0
M  V30 11 C 1.753006 0.044815 0.268022 0
M  V30 12 O 2.458666 -0.354405 -0.682570 0
M  V30 13 N 0.386831 0.353950 0.029595 0
M  V30 14 C -0.223223 0.229211 -1.254904 0 CFG=2
M  V30 15 C -0.895453 1.451516 -1.760924 0
M  V30 16 N -2.325847 1.485675 -1.607893 0
M  V30 17 C -2.994096 0.375763 -2.254237 0 CFG=2
M  V30 18 C -4.199713 0.052811 -1.412549 0
M  V30 19 C -5.037171 -1.083220 -1.931637 0
M  V30 20 O -5.532800 -0.833842 -3.211170 0
M  V30 21 C -6.207249 -1.234239 -0.942933 0
M  V30 22 O -5.579875 -1.480057 0.298692 0
M  V30 23 C -2.116009 -0.830244 -2.366115 0
M  V30 24 C -1.270853 -0.857025 -1.114777 0 CFG=1
M  V30 25 C -0.661201 -2.186306 -0.882538 0
M  V30 26 C 0.121336 -2.569268 -1.956299 0
M  V30 27 C 0.799581 -3.791413 -1.964250 0
M  V30 28 C 0.660473 -4.605562 -0.858926 0
M  V30 29 Cl 1.459582 -6.167955 -0.741361 0
M  V30 30 C -0.121372 -4.234239 0.225584 0
M  V30 31 Cl -0.343325 -5.214654 1.659065 0
M  V30 32 C -0.780727 -3.023594 0.209938 0
M  V30 33 O 1.632564 0.611894 2.668231 0
M  V30 34 C 2.433887 0.628702 3.695753 0
M  V30 35 Cl 1.702948 1.151942 5.170027 0
M  V30 36 H 3.668772 0.009085 6.755266 0
M  V30 37 H 4.147837 1.711216 6.400844 0
M  V30 38 H 5.138265 0.622724 7.473095 0
M  V30 39 H 8.158560 -0.692082 4.464362 0
M  V30 40 H 4.267689 -0.389942 1.307004 0
M  V30 41 H -0.209322 0.689942 0.827142 0
M  V30 42 H 0.552056 -0.135297 -1.966880 0
M  V30 43 H -0.512961 2.400960 -1.315337 0
M  V30 44 H -0.709375 1.504906 -2.863667 0
M  V30 45 H -2.654652 1.682927 -0.651111 0
M  V30 46 H -3.338033 0.626488 -3.268040 0
M  V30 47 H -4.831261 0.965908 -1.230021 0
M  V30 48 H -3.902467 -0.252022 -0.367740 0
M  V30 49 H -4.548840 -2.061923 -1.937355 0
M  V30 50 H -5.033788 -1.379525 -3.884213 0
M  V30 51 H -6.824727 -2.089372 -1.220638 0
M  V30 52 H -6.725089 -0.273100 -0.916252 0
M  V30 53 H -6.191841 -1.774278 0.994039 0
M  V30 54 H -1.386307 -0.748046 -3.212111 0
M  V30 55 H -2.637357 -1.797707 -2.437244 0
M  V30 56 H -1.895355 -0.557372 -0.249513 0
M  V30 57 H 0.304246 -2.009838 -2.879909 0
M  V30 58 H 1.421809 -4.134905 -2.777678 0
M  V30 59 H -1.423715 -2.597985 0.977314 0
M  V30 END ATOM
M  V30 BEGIN BOND
M  V30 1 1 1 2
M  V30 2 1 2 3
M  V30 3 2 3 4
M  V30 4 1 4 5
M  V30 5 1 5 6
M  V30 6 2 5 7
M  V30 7 1 7 8
M  V30 8 1 8 9
M  V30 9 2 9 10
M  V30 10 1 10 11
M  V30 11 2 11 12
M  V30 12 1 11 13
M  V30 13 1 13 14
M  V30 14 1 14 15
M  V30 15 1 15 16
M  V30 16 1 16 17
M  V30 17 1 17 18
M  V30 18 1 18 19
M  V30 19 1 19 20
M  V30 20 1 19 21
M  V30 21 1 21 22
M  V30 22 1 17 23
M  V30 23 1 23 24
M  V30 24 1 24 25
M  V30 25 2 25 26
M  V30 26 1 26 27
M  V30 27 2 27 28
M  V30 28 1 28 29
M  V30 29 1 28 30
M  V30 30 1 30 31
M  V30 31 2 30 32
M  V30 32 1 10 33
M  V30 33 1 33 34
M  V30 34 1 34 35
M  V30 35 1 7 2
M  V30 36 2 34 8
M  V30 37 1 24 14
M  V30 38 1 32 25
M  V30 39 1 1 36
M  V30 40 1 1 37
M  V30 41 1 1 38
M  V30 42 1 4 39
M  V30 43 1 9 40
M  V30 44 1 13 41
M  V30 45 1 14 42 CFG=3
M  V30 46 1 15 43
M  V30 47 1 15 44
M  V30 48 1 16 45
M  V30 49 1 17 46 CFG=3
M  V30 50 1 18 47
M  V30 51 1 18 48
M  V30 52 1 19 49
M  V30 53 1 20 50
M  V30 54 1 21 51
M  V30 55 1 21 52
M  V30 56 1 22 53
M  V30 57 1 23 54
M  V30 58 1 23 55
M  V30 59 1 24 56 CFG=1
M  V30 60 1 26 57
M  V30 61 1 27 58
M  V30 62 1 32 59
M  V30 END BOND
M  V30 END CTAB
M  END
>  <Dataset>  (336) 
ChEMBL_Kinases

>  <Ligand_Instance>  (336) 
nan

>  <PDB_ID>  (336) 
nan

>  <Standardized_SMILES>  (336) 
Cn1ncc(Cl)c1-c1cc(C(=O)N[C@@H]2CN[C@H](CC(O)CO)C[C@H]2c2ccc(Cl)c(Cl)c2)oc1Cl

>  <Name>  (336) 
nan

>  <Pocket>  (336) 
nan

>  <ATP_Site>  (336) 
nan

>  <Peripheral>  (336) 
nan

>  <Num_H_Atoms_ProtBoundConf>  (336) 
nan

>  <Num_Resolved_Atoms>  (336) 
nan

>  <Num_Not_Resolved_Atoms>  (336) 
nan

$$$$
CHEMBL4470602
     RDKit          3D

  0  0  0  0  0  0  0  0  0  0999 V3000
M  V30 BEGIN CTAB
M  V30 COUNTS 50 53 0 0 0
M  V30 BEGIN ATOM
M  V30 1 C 5.229174 -3.466693 2.847635 0
M  V30 2 N 5.901811 -3.361080 1.567707 0
M  V30 3 N 7.016950 -3.929110 1.155601 0
M  V30 4 C 7.263576 -3.545060 -0.108243 0
M  V30 5 C 6.262123 -2.695504 -0.519152 0
M  V30 6 Cl 6.105138 -1.913026 -2.077546 0
M  V30 7 C 5.401824 -2.590342 0.565101 0
M  V30 8 C 4.204233 -1.775607 0.536650 0
M  V30 9 C 4.195806 -0.493019 0.026730 0
M  V30 10 C 3.115639 0.361829 -0.046845 0
M  V30 11 C 1.930285 -0.153393 0.452578 0
M  V30 12 C 0.739363 0.695746 0.408713 0
M  V30 13 O 0.720389 1.857794 -0.050474 0
M  V30 14 N -0.485256 0.180754 0.917760 0
M  V30 15 C -1.780917 0.822318 0.982710 0 CFG=2
M  V30 16 C -2.075343 0.972087 2.482011 0
M  V30 17 N -1.824484 -0.350096 3.045902 0
M  V30 18 C -2.847958 -1.257324 2.575612 0
M  V30 19 C -3.736494 -0.645138 1.542068 0
M  V30 20 C -2.899375 -0.030149 0.439067 0 CFG=1
M  V30 21 C -3.735696 0.637746 -0.569876 0
M  V30 22 C -4.491584 1.774526 -0.284460 0
M  V30 23 C -5.290178 2.418301 -1.234368 0
M  V30 24 C -5.338341 1.909672 -2.521159 0
M  V30 25 C -4.603071 0.790143 -2.829689 0
M  V30 26 F -4.675197 0.314232 -4.114871 0
M  V30 27 C -3.829268 0.175779 -1.888096 0
M  V30 28 N 1.881511 -1.405296 0.964425 0
M  V30 29 C 2.976200 -2.199809 1.010315 0
M  V30 30 H 4.530098 -4.343232 2.849916 0
M  V30 31 H 4.676190 -2.541991 3.109820 0
M  V30 32 H 5.998315 -3.735426 3.613964 0
M  V30 33 H 8.093963 -3.823334 -0.748075 0
M  V30 34 H 5.148334 -0.103439 -0.364843 0
M  V30 35 H 3.236252 1.355038 -0.473223 0
M  V30 36 H -0.506178 -0.788827 1.310003 0
M  V30 37 H -1.774048 1.850846 0.570451 0
M  V30 38 H -1.320301 1.653272 2.952552 0
M  V30 39 H -3.096360 1.314033 2.666194 0
M  V30 40 H -1.737773 -0.329541 4.085944 0
M  V30 41 H -3.482615 -1.526438 3.446765 0
M  V30 42 H -2.426899 -2.219830 2.194127 0
M  V30 43 H -4.506176 0.027889 1.936144 0
M  V30 44 H -4.283762 -1.496735 1.040763 0
M  V30 45 H -2.407298 -0.911827 -0.064834 0
M  V30 46 H -4.401968 2.112520 0.743457 0
M  V30 47 H -5.841232 3.289193 -0.931598 0
M  V30 48 H -5.945824 2.382998 -3.280555 0
M  V30 49 H -3.271559 -0.705851 -2.195007 0
M  V30 50 H 2.889502 -3.201035 1.431492 0
M  V30 END ATOM
M  V30 BEGIN BOND
M  V30 1 1 1 2
M  V30 2 1 2 3
M  V30 3 2 3 4
M  V30 4 1 4 5
M  V30 5 1 5 6
M  V30 6 2 5 7
M  V30 7 1 7 8
M  V30 8 2 8 9
M  V30 9 1 9 10
M  V30 10 2 10 11
M  V30 11 1 11 12
M  V30 12 2 12 13
M  V30 13 1 12 14
M  V30 14 1 14 15
M  V30 15 1 15 16
M  V30 16 1 16 17
M  V30 17 1 17 18
M  V30 18 1 18 19
M  V30 19 1 19 20
M  V30 20 1 20 21
M  V30 21 2 21 22
M  V30 22 1 22 23
M  V30 23 2 23 24
M  V30 24 1 24 25
M  V30 25 1 25 26
M  V30 26 2 25 27
M  V30 27 1 11 28
M  V30 28 2 28 29
M  V30 29 1 7 2
M  V30 30 1 29 8
M  V30 31 1 20 15
M  V30 32 1 27 21
M  V30 33 1 1 30
M  V30 34 1 1 31
M  V30 35 1 1 32
M  V30 36 1 4 33
M  V30 37 1 9 34
M  V30 38 1 10 35
M  V30 39 1 14 36
M  V30 40 1 15 37 CFG=3
M  V30 41 1 16 38
M  V30 42 1 16 39
M  V30 43 1 17 40
M  V30 44 1 18 41
M  V30 45 1 18 42
M  V30 46 1 19 43
M  V30 47 1 19 44
M  V30 48 1 20 45 CFG=3
M  V30 49 1 22 46
M  V30 50 1 23 47
M  V30 51 1 24 48
M  V30 52 1 27 49
M  V30 53 1 29 50
M  V30 END BOND
M  V30 END CTAB
M  END
>  <Dataset>  (337) 
ChEMBL_Kinases

>  <Ligand_Instance>  (337) 
nan

>  <PDB_ID>  (337) 
nan

>  <Standardized_SMILES>  (337) 
Cn1ncc(Cl)c1-c1ccc(C(=O)N[C@@H]2CNCC[C@H]2c2cccc(F)c2)nc1

>  <Name>  (337) 
nan

>  <Pocket>  (337) 
nan

>  <ATP_Site>  (337) 
nan

>  <Peripheral>  (337) 
nan

>  <Num_H_Atoms_ProtBoundConf>  (337) 
nan

>  <Num_Resolved_Atoms>  (337) 
nan

>  <Num_Not_Resolved_Atoms>  (337) 
nan

$$$$
CHEMBL470566
     RDKit          3D

  0  0  0  0  0  0  0  0  0  0999 V3000
M  V30 BEGIN CTAB
M  V30 COUNTS 36 39 0 0 0
M  V30 BEGIN ATOM
M  V30 1 Cl 3.367656 -6.913731 1.637157 0
M  V30 2 C 2.931803 -5.216280 1.750163 0
M  V30 3 C 1.844707 -4.814209 2.458658 0
M  V30 4 C 1.502949 -3.479062 2.547013 0
M  V30 5 C 2.292132 -2.566006 1.898636 0
M  V30 6 C 3.402219 -2.887804 1.165160 0
M  V30 7 C 4.296286 -1.965406 0.440415 0
M  V30 8 S 3.845287 -1.656467 -1.261549 0
M  V30 9 C 2.293919 -0.770905 -1.305497 0
M  V30 10 N 1.832349 -0.473319 -2.546881 0
M  V30 11 N 0.683274 0.175811 -2.337710 0
M  V30 12 C 0.435753 0.280367 -1.021020 0
M  V30 13 C -0.696159 0.906696 -0.344785 0
M  V30 14 C -0.752417 0.901405 1.031083 0
M  V30 15 C -1.762747 1.455740 1.787783 0
M  V30 16 C -2.783156 2.056308 1.054523 0
M  V30 17 C -2.751989 2.076084 -0.324258 0
M  V30 18 C -1.719257 1.507825 -1.041845 0
M  V30 19 C -3.963778 2.780430 -0.818937 0
M  V30 20 C -4.404104 3.535620 0.413650 0
M  V30 21 O -3.942287 2.704832 1.456300 0
M  V30 22 O 1.441918 -0.309742 -0.422688 0
M  V30 23 C 3.706057 -4.254492 1.106655 0
M  V30 24 H 1.257074 -5.554316 2.947948 0
M  V30 25 H 0.650593 -3.125543 3.098488 0
M  V30 26 H 2.042814 -1.531393 1.957771 0
M  V30 27 H 4.301695 -1.017422 1.017018 0
M  V30 28 H 5.320461 -2.388992 0.468693 0
M  V30 29 H 0.066491 0.420893 1.568423 0
M  V30 30 H -1.747286 1.417487 2.870202 0
M  V30 31 H -1.633506 1.488459 -2.120597 0
M  V30 32 H -3.642270 3.475298 -1.627265 0
M  V30 33 H -4.717292 2.072490 -1.174947 0
M  V30 34 H -5.502335 3.682101 0.444634 0
M  V30 35 H -3.846406 4.486519 0.468286 0
M  V30 36 H 4.563218 -4.626148 0.554300 0
M  V30 END ATOM
M  V30 BEGIN BOND
M  V30 1 1 1 2
M  V30 2 2 2 3
M  V30 3 1 3 4
M  V30 4 2 4 5
M  V30 5 1 5 6
M  V30 6 1 6 7
M  V30 7 1 7 8
M  V30 8 1 8 9
M  V30 9 2 9 10
M  V30 10 1 10 11
M  V30 11 2 11 12
M  V30 12 1 12 13
M  V30 13 2 13 14
M  V30 14 1 14 15
M  V30 15 2 15 16
M  V30 16 1 16 17
M  V30 17 2 17 18
M  V30 18 1 17 19
M  V30 19 1 19 20
M  V30 20 1 20 21
M  V30 21 1 12 22
M  V30 22 2 6 23
M  V30 23 1 23 2
M  V30 24 1 22 9
M  V30 25 1 18 13
M  V30 26 1 21 16
M  V30 27 1 3 24
M  V30 28 1 4 25
M  V30 29 1 5 26
M  V30 30 1 7 27
M  V30 31 1 7 28
M  V30 32 1 14 29
M  V30 33 1 15 30
M  V30 34 1 18 31
M  V30 35 1 19 32
M  V30 36 1 19 33
M  V30 37 1 20 34
M  V30 38 1 20 35
M  V30 39 1 23 36
M  V30 END BOND
M  V30 END CTAB
M  END
>  <Dataset>  (338) 
ChEMBL_Kinases

>  <Ligand_Instance>  (338) 
nan

>  <PDB_ID>  (338) 
nan

>  <Standardized_SMILES>  (338) 
Clc1cccc(CSc2nnc(-c3ccc4c(c3)CCO4)o2)c1

>  <Name>  (338) 
nan

>  <Pocket>  (338) 
nan

>  <ATP_Site>  (338) 
nan

>  <Peripheral>  (338) 
nan

>  <Num_H_Atoms_ProtBoundConf>  (338) 
nan

>  <Num_Resolved_Atoms>  (338) 
nan

>  <Num_Not_Resolved_Atoms>  (338) 
nan

$$$$
CHEMBL4469756
     RDKit          3D

  0  0  0  0  0  0  0  0  0  0999 V3000
M  V30 BEGIN CTAB
M  V30 COUNTS 80 84 0 0 0
M  V30 BEGIN ATOM
M  V30 1 C -4.086180 1.815152 3.069459 0
M  V30 2 C -3.019737 1.061240 3.788790 0
M  V30 3 O -2.157218 0.351653 2.941217 0
M  V30 4 C -1.358877 0.877430 1.964210 0
M  V30 5 C -1.314738 2.228087 1.699996 0
M  V30 6 C -0.517231 2.779975 0.720640 0
M  V30 7 C -0.546534 4.223456 0.528017 0
M  V30 8 O -1.257354 4.931448 1.261830 0
M  V30 9 N 0.189782 4.892376 -0.453460 0
M  V30 10 C 0.281410 6.280650 -0.779841 0
M  V30 11 C -0.310006 6.424253 -2.186564 0
M  V30 12 C 0.687013 6.029007 -3.237582 0
M  V30 13 N 1.818756 6.912193 -3.193500 0
M  V30 14 C 2.056131 7.670934 -4.373808 0
M  V30 15 C 1.919444 7.672658 -1.973911 0
M  V30 16 C 1.641481 6.875784 -0.744216 0
M  V30 17 C 0.266983 1.927974 -0.020751 0
M  V30 18 C 0.213224 0.577572 0.254352 0
M  V30 19 C -0.568694 -0.013823 1.222589 0
M  V30 20 N -0.600202 -1.410854 1.469050 0
M  V30 21 C 0.140537 -2.451302 0.845777 0
M  V30 22 N 1.060166 -2.284103 -0.111542 0
M  V30 23 C 1.769068 -3.233441 -0.712297 0
M  V30 24 C 1.517718 -4.519011 -0.292793 0
M  V30 25 C 0.583992 -4.742920 0.684752 0
M  V30 26 N -0.076836 -3.713034 1.226557 0
M  V30 27 N 0.259838 -6.034208 1.169444 0
M  V30 28 C -0.947237 -6.422727 1.860236 0
M  V30 29 C -2.105510 -6.246191 0.948393 0
M  V30 30 C -2.320681 -7.381895 0.156400 0
M  V30 31 C -3.345788 -7.463733 -0.767671 0
M  V30 32 C -4.204928 -6.409931 -0.942126 0
M  V30 33 C -3.983763 -5.298087 -0.157868 0
M  V30 34 Br -5.102508 -3.756377 -0.298756 0
M  V30 35 C -2.969454 -5.189350 0.771341 0
M  V30 36 C 1.254165 -7.088890 0.933031 0 CFG=2
M  V30 37 C 2.224386 -7.112195 2.092879 0
M  V30 38 C 2.949153 -5.808568 2.260363 0
M  V30 39 C 1.933864 -6.930569 -0.369838 0
M  V30 40 O 2.270496 -7.925627 -1.069107 0
M  V30 41 N 2.213698 -5.609966 -0.842472 0
M  V30 42 C 3.213323 -5.373212 -1.890630 0
M  V30 43 H -4.063650 2.872454 3.381636 0
M  V30 44 H -4.023438 1.775096 1.961054 0
M  V30 45 H -5.060600 1.330541 3.342529 0
M  V30 46 H -3.421318 0.371970 4.566654 0
M  V30 47 H -2.388984 1.788846 4.354216 0
M  V30 48 H -1.931850 2.888896 2.288082 0
M  V30 49 H 0.809941 4.368707 -1.109157 0
M  V30 50 H -0.362913 6.823346 -0.045637 0
M  V30 51 H -1.250444 5.874902 -2.234198 0
M  V30 52 H -0.529026 7.500932 -2.314084 0
M  V30 53 H 0.252548 6.115107 -4.245941 0
M  V30 54 H 1.052439 5.002117 -3.054622 0
M  V30 55 H 2.390463 8.704584 -4.220071 0
M  V30 56 H 2.903191 7.175741 -4.929480 0
M  V30 57 H 1.207766 7.604658 -5.113614 0
M  V30 58 H 1.277223 8.565859 -2.080407 0
M  V30 59 H 2.973498 8.065642 -1.956388 0
M  V30 60 H 2.376889 6.046263 -0.672883 0
M  V30 61 H 1.752225 7.599931 0.113871 0
M  V30 62 H 0.887029 2.362231 -0.784014 0
M  V30 63 H 0.862685 0.003509 -0.379682 0
M  V30 64 H -1.269623 -1.694882 2.220129 0
M  V30 65 H 2.497119 -3.027525 -1.479205 0
M  V30 66 H -0.888743 -7.456733 2.248233 0
M  V30 67 H -1.145080 -5.754928 2.734130 0
M  V30 68 H -1.717612 -8.290134 0.190349 0
M  V30 69 H -3.522712 -8.332896 -1.384608 0
M  V30 70 H -5.024487 -6.410166 -1.644435 0
M  V30 71 H -2.755673 -4.362082 1.405605 0
M  V30 72 H 0.723535 -8.078663 0.889528 0
M  V30 73 H 1.714507 -7.359248 3.028544 0
M  V30 74 H 2.984077 -7.896369 1.865176 0
M  V30 75 H 3.582920 -5.890701 3.173513 0
M  V30 76 H 2.226653 -4.989598 2.496896 0
M  V30 77 H 3.622394 -5.558160 1.421502 0
M  V30 78 H 2.755239 -4.759328 -2.702305 0
M  V30 79 H 3.536676 -6.318210 -2.356168 0
M  V30 80 H 4.067401 -4.802083 -1.461525 0
M  V30 END ATOM
M  V30 BEGIN BOND
M  V30 1 1 1 2
M  V30 2 1 2 3
M  V30 3 1 3 4
M  V30 4 2 4 5
M  V30 5 1 5 6
M  V30 6 1 6 7
M  V30 7 2 7 8
M  V30 8 1 7 9
M  V30 9 1 9 10
M  V30 10 1 10 11
M  V30 11 1 11 12
M  V30 12 1 12 13
M  V30 13 1 13 14
M  V30 14 1 13 15
M  V30 15 1 15 16
M  V30 16 2 6 17
M  V30 17 1 17 18
M  V30 18 2 18 19
M  V30 19 1 19 20
M  V30 20 1 20 21
M  V30 21 2 21 22
M  V30 22 1 22 23
M  V30 23 2 23 24
M  V30 24 1 24 25
M  V30 25 2 25 26
M  V30 26 1 25 27
M  V30 27 1 27 28
M  V30 28 1 28 29
M  V30 29 2 29 30
M  V30 30 1 30 31
M  V30 31 2 31 32
M  V30 32 1 32 33
M  V30 33 1 33 34
M  V30 34 2 33 35
M  V30 35 1 27 36
M  V30 36 1 36 37
M  V30 37 1 37 38
M  V30 38 1 36 39
M  V30 39 2 39 40
M  V30 40 1 39 41
M  V30 41 1 41 42
M  V30 42 1 19 4
M  V30 43 1 26 21
M  V30 44 1 35 29
M  V30 45 1 16 10
M  V30 46 1 41 24
M  V30 47 1 1 43
M  V30 48 1 1 44
M  V30 49 1 1 45
M  V30 50 1 2 46
M  V30 51 1 2 47
M  V30 52 1 5 48
M  V30 53 1 9 49
M  V30 54 1 10 50
M  V30 55 1 11 51
M  V30 56 1 11 52
M  V30 57 1 12 53
M  V30 58 1 12 54
M  V30 59 1 14 55
M  V30 60 1 14 56
M  V30 61 1 14 57
M  V30 62 1 15 58
M  V30 63 1 15 59
M  V30 64 1 16 60
M  V30 65 1 16 61
M  V30 66 1 17 62
M  V30 67 1 18 63
M  V30 68 1 20 64
M  V30 69 1 23 65
M  V30 70 1 28 66
M  V30 71 1 28 67
M  V30 72 1 30 68
M  V30 73 1 31 69
M  V30 74 1 32 70
M  V30 75 1 35 71
M  V30 76 1 36 72 CFG=3
M  V30 77 1 37 73
M  V30 78 1 37 74
M  V30 79 1 38 75
M  V30 80 1 38 76
M  V30 81 1 38 77
M  V30 82 1 42 78
M  V30 83 1 42 79
M  V30 84 1 42 80
M  V30 END BOND
M  V30 END CTAB
M  END
>  <Dataset>  (339) 
ChEMBL_Kinases

>  <Ligand_Instance>  (339) 
nan

>  <PDB_ID>  (339) 
nan

>  <Standardized_SMILES>  (339) 
CCOc1cc(C(=O)NC2CCN(C)CC2)ccc1Nc1ncc2c(n1)N(Cc1cccc(Br)c1)[C@H](CC)C(=O)N2C

>  <Name>  (339) 
nan

>  <Pocket>  (339) 
nan

>  <ATP_Site>  (339) 
nan

>  <Peripheral>  (339) 
nan

>  <Num_H_Atoms_ProtBoundConf>  (339) 
nan

>  <Num_Resolved_Atoms>  (339) 
nan

>  <Num_Not_Resolved_Atoms>  (339) 
nan

$$$$
CHEMBL4470520
     RDKit          3D

  0  0  0  0  0  0  0  0  0  0999 V3000
M  V30 BEGIN CTAB
M  V30 COUNTS 41 43 0 0 0
M  V30 BEGIN ATOM
M  V30 1 C 0.863315 -4.906598 2.572884 0
M  V30 2 C 1.032325 -3.749358 1.625291 0
M  V30 3 C -0.126717 -2.770623 1.916547 0
M  V30 4 C -1.369620 -3.621445 1.634264 0
M  V30 5 C -0.100247 -2.549688 3.438130 0
M  V30 6 N -0.070374 -1.551701 1.242965 0
M  V30 7 C -0.013221 -0.317768 0.561153 0
M  V30 8 N 0.981209 0.579049 0.578571 0
M  V30 9 C 1.043142 1.739166 -0.064578 0
M  V30 10 C 2.205291 2.613856 0.056276 0
M  V30 11 C 3.248152 2.205029 0.860844 0
M  V30 12 C 4.307094 3.112368 0.906021 0
M  V30 13 N 4.317850 4.292431 0.223130 0
M  V30 14 C 3.268309 4.609091 -0.531250 0
M  V30 15 C 2.147811 3.789756 -0.661152 0
M  V30 16 Cl 0.781919 4.227598 -1.657976 0
M  V30 17 N -0.035715 1.997597 -0.801887 0
M  V30 18 C -1.114359 1.215442 -0.931838 0
M  V30 19 C -2.117768 1.685615 -1.749907 0
M  V30 20 N -3.202487 0.873261 -1.863451 0
M  V30 21 C -3.284859 -0.298644 -1.224002 0
M  V30 22 C -2.241785 -0.693434 -0.428458 0
M  V30 23 C -1.089602 0.030439 -0.226989 0
M  V30 24 H 1.843232 -5.259025 2.976775 0
M  V30 25 H 0.254894 -4.654571 3.458278 0
M  V30 26 H 0.374935 -5.801829 2.093542 0
M  V30 27 H 0.848003 -4.135965 0.595768 0
M  V30 28 H 2.015688 -3.252819 1.734672 0
M  V30 29 H -2.277706 -3.142420 2.053168 0
M  V30 30 H -1.270877 -4.609670 2.116297 0
M  V30 31 H -1.495975 -3.817815 0.561119 0
M  V30 32 H -0.284690 -1.456048 3.650619 0
M  V30 33 H 0.892347 -2.760150 3.863825 0
M  V30 34 H -0.943014 -3.070448 3.917796 0
M  V30 35 H 0.882605 -1.491602 1.713187 0
M  V30 36 H 3.278112 1.295058 1.408121 0
M  V30 37 H 5.203360 2.921067 1.503980 0
M  V30 38 H 3.307250 5.556426 -1.062992 0
M  V30 39 H -2.022132 2.636953 -2.253468 0
M  V30 40 H -4.156516 -0.939777 -1.321983 0
M  V30 41 H -2.326345 -1.624854 0.071789 0
M  V30 END ATOM
M  V30 BEGIN BOND
M  V30 1 1 1 2
M  V30 2 1 2 3
M  V30 3 1 3 4
M  V30 4 1 3 5
M  V30 5 1 3 6
M  V30 6 1 6 7
M  V30 7 2 7 8
M  V30 8 1 8 9
M  V30 9 1 9 10
M  V30 10 2 10 11
M  V30 11 1 11 12
M  V30 12 2 12 13
M  V30 13 1 13 14
M  V30 14 2 14 15
M  V30 15 1 15 16
M  V30 16 2 9 17
M  V30 17 1 17 18
M  V30 18 2 18 19
M  V30 19 1 19 20
M  V30 20 2 20 21
M  V30 21 1 21 22
M  V30 22 2 22 23
M  V30 23 1 23 7
M  V30 24 1 15 10
M  V30 25 1 23 18
M  V30 26 1 1 24
M  V30 27 1 1 25
M  V30 28 1 1 26
M  V30 29 1 2 27
M  V30 30 1 2 28
M  V30 31 1 4 29
M  V30 32 1 4 30
M  V30 33 1 4 31
M  V30 34 1 5 32
M  V30 35 1 5 33
M  V30 36 1 5 34
M  V30 37 1 6 35
M  V30 38 1 11 36
M  V30 39 1 12 37
M  V30 40 1 14 38
M  V30 41 1 19 39
M  V30 42 1 21 40
M  V30 43 1 22 41
M  V30 END BOND
M  V30 END CTAB
M  END
>  <Dataset>  (340) 
ChEMBL_Kinases

>  <Ligand_Instance>  (340) 
nan

>  <PDB_ID>  (340) 
nan

>  <Standardized_SMILES>  (340) 
CCC(C)(C)Nc1nc(-c2ccncc2Cl)nc2cnccc12

>  <Name>  (340) 
nan

>  <Pocket>  (340) 
nan

>  <ATP_Site>  (340) 
nan

>  <Peripheral>  (340) 
nan

>  <Num_H_Atoms_ProtBoundConf>  (340) 
nan

>  <Num_Resolved_Atoms>  (340) 
nan

>  <Num_Not_Resolved_Atoms>  (340) 
nan

$$$$
CHEMBL4470343
     RDKit          3D

  0  0  0  0  0  0  0  0  0  0999 V3000
M  V30 BEGIN CTAB
M  V30 COUNTS 51 55 0 0 0
M  V30 BEGIN ATOM
M  V30 1 C 5.340696 -3.162278 5.782167 0
M  V30 2 O 4.208951 -3.414894 4.969733 0
M  V30 3 C 3.992049 -2.554314 3.895460 0
M  V30 4 C 4.846667 -1.506079 3.643218 0
M  V30 5 C 4.580821 -0.674289 2.551586 0
M  V30 6 C 3.470441 -0.948588 1.780153 0
M  V30 7 S 3.140979 0.074729 0.432102 0
M  V30 8 O 4.439973 0.535077 -0.160277 0
M  V30 9 O 2.476469 -0.770836 -0.647653 0
M  V30 10 N 2.137424 1.432596 0.822633 0
M  V30 11 C 0.841800 1.005378 1.300557 0
M  V30 12 C -0.301089 1.634656 0.474557 0
M  V30 13 C -0.216276 1.001643 -0.846854 0
M  V30 14 C 1.117457 1.363307 -1.283836 0
M  V30 15 S 1.341043 0.671933 -2.847493 0
M  V30 16 C -0.332784 -0.108283 -2.945283 0
M  V30 17 N -0.968104 -0.856299 -3.873494 0
M  V30 18 C -2.197884 -1.311346 -3.705358 0
M  V30 19 N -2.741183 -0.969703 -2.557354 0
M  V30 20 C -2.197592 -0.244642 -1.595273 0
M  V30 21 N -3.014510 -0.041205 -0.461856 0
M  V30 22 C -4.341768 -0.536112 -0.383506 0
M  V30 23 C -5.128833 -0.488954 -1.541749 0
M  V30 24 C -6.421080 -0.968638 -1.586010 0
M  V30 25 C -7.002192 -1.527666 -0.459299 0
M  V30 26 C -6.285267 -1.604792 0.712723 0
M  V30 27 Cl -6.888503 -2.285916 2.221820 0
M  V30 28 C -5.003807 -1.112053 0.698581 0
M  V30 29 C -0.931843 0.247058 -1.722652 0
M  V30 30 C 2.008441 2.177857 -0.434808 0
M  V30 31 C 2.624518 -2.006491 2.050493 0
M  V30 32 C 2.873450 -2.848349 3.136354 0
M  V30 33 H 5.338529 -3.889049 6.622716 0
M  V30 34 H 6.252340 -3.405408 5.176678 0
M  V30 35 H 5.340144 -2.115437 6.143200 0
M  V30 36 H 5.700017 -1.321618 4.262728 0
M  V30 37 H 5.244631 0.153250 2.341978 0
M  V30 38 H 0.757576 -0.085609 1.131651 0
M  V30 39 H 0.720962 1.239328 2.382325 0
M  V30 40 H -1.205522 1.527964 1.043586 0
M  V30 41 H -0.122276 2.745319 0.399697 0
M  V30 42 H -2.587962 -1.893220 -4.518019 0
M  V30 43 H -2.989539 0.408037 0.462853 0
M  V30 44 H -4.862447 -0.086874 -2.506576 0
M  V30 45 H -7.083671 -0.968703 -2.430234 0
M  V30 46 H -8.007935 -1.920237 -0.428195 0
M  V30 47 H -4.384495 -1.146497 1.602717 0
M  V30 48 H 3.015148 2.138029 -0.888627 0
M  V30 49 H 1.708878 3.219638 -0.297759 0
M  V30 50 H 1.737442 -2.249040 1.457952 0
M  V30 51 H 2.207418 -3.679088 3.346606 0
M  V30 END ATOM
M  V30 BEGIN BOND
M  V30 1 1 1 2
M  V30 2 1 2 3
M  V30 3 2 3 4
M  V30 4 1 4 5
M  V30 5 2 5 6
M  V30 6 1 6 7
M  V30 7 2 7 8
M  V30 8 2 7 9
M  V30 9 1 7 10
M  V30 10 1 10 11
M  V30 11 1 11 12
M  V30 12 1 12 13
M  V30 13 2 13 14
M  V30 14 1 14 15
M  V30 15 1 15 16
M  V30 16 2 16 17
M  V30 17 1 17 18
M  V30 18 2 18 19
M  V30 19 1 19 20
M  V30 20 1 20 21
M  V30 21 1 21 22
M  V30 22 2 22 23
M  V30 23 1 23 24
M  V30 24 2 24 25
M  V30 25 1 25 26
M  V30 26 1 26 27
M  V30 27 2 26 28
M  V30 28 2 20 29
M  V30 29 1 14 30
M  V30 30 1 6 31
M  V30 31 2 31 32
M  V30 32 1 32 3
M  V30 33 1 30 10
M  V30 34 1 29 13
M  V30 35 1 29 16
M  V30 36 1 28 22
M  V30 37 1 1 33
M  V30 38 1 1 34
M  V30 39 1 1 35
M  V30 40 1 4 36
M  V30 41 1 5 37
M  V30 42 1 11 38
M  V30 43 1 11 39
M  V30 44 1 12 40
M  V30 45 1 12 41
M  V30 46 1 18 42
M  V30 47 1 21 43
M  V30 48 1 23 44
M  V30 49 1 24 45
M  V30 50 1 25 46
M  V30 51 1 28 47
M  V30 52 1 30 48
M  V30 53 1 30 49
M  V30 54 1 31 50
M  V30 55 1 32 51
M  V30 END BOND
M  V30 END CTAB
M  END
>  <Dataset>  (341) 
ChEMBL_Kinases

>  <Ligand_Instance>  (341) 
nan

>  <PDB_ID>  (341) 
nan

>  <Standardized_SMILES>  (341) 
COc1ccc(S(=O)(=O)N2CCc3c(sc4ncnc(Nc5cccc(Cl)c5)c34)C2)cc1

>  <Name>  (341) 
nan

>  <Pocket>  (341) 
nan

>  <ATP_Site>  (341) 
nan

>  <Peripheral>  (341) 
nan

>  <Num_H_Atoms_ProtBoundConf>  (341) 
nan

>  <Num_Resolved_Atoms>  (341) 
nan

>  <Num_Not_Resolved_Atoms>  (341) 
nan

$$$$
CHEMBL4470329
     RDKit          3D

  0  0  0  0  0  0  0  0  0  0999 V3000
M  V30 BEGIN CTAB
M  V30 COUNTS 37 40 0 0 0
M  V30 BEGIN ATOM
M  V30 1 C -1.155916 -6.371138 -0.462632 0
M  V30 2 C -0.149026 -5.293985 -0.306563 0
M  V30 3 C 0.314423 -4.702170 -1.463498 0
M  V30 4 C 1.252383 -3.693118 -1.390240 0
M  V30 5 C 1.714096 -3.291936 -0.131783 0
M  V30 6 N 2.691315 -2.251279 0.080415 0
M  V30 7 C 2.375199 -1.110553 -0.369111 0
M  V30 8 N 3.115255 0.115769 -0.321392 0
M  V30 9 C 2.294350 1.307463 -0.249886 0
M  V30 10 O 2.686964 2.494251 -0.209806 0
M  V30 11 C 0.876908 1.029458 -0.233912 0
M  V30 12 C -0.181372 1.498354 0.315769 0
M  V30 13 C -1.576591 1.101325 0.217238 0
M  V30 14 O -1.895800 0.165268 -0.547706 0
M  V30 15 N -2.312154 1.928533 1.075722 0
M  V30 16 C -1.363804 2.824208 1.695054 0
M  V30 17 C -1.733569 3.773489 2.624071 0
M  V30 18 C -0.741016 4.555824 3.171993 0
M  V30 19 C 0.568751 4.361314 2.775685 0
M  V30 20 I 2.000041 5.610562 3.679270 0
M  V30 21 C 0.829282 3.389501 1.843454 0
M  V30 22 C -0.084397 2.580552 1.253941 0
M  V30 23 S 0.899199 -0.483146 -1.257945 0
M  V30 24 C 1.232961 -3.901696 1.009941 0
M  V30 25 C 0.295159 -4.912461 0.960797 0
M  V30 26 Cl -0.340042 -5.710938 2.384443 0
M  V30 27 H -1.650914 -6.509256 0.541891 0
M  V30 28 H -0.699517 -7.323850 -0.776154 0
M  V30 29 H -1.935606 -6.086384 -1.218003 0
M  V30 30 H 0.008512 -4.955641 -2.455155 0
M  V30 31 H 1.718772 -3.126325 -2.186289 0
M  V30 32 H 4.184207 0.181171 -0.330810 0
M  V30 33 H -3.343723 1.839072 1.180426 0
M  V30 34 H -2.745444 3.946791 2.951157 0
M  V30 35 H -1.015288 5.304517 3.900854 0
M  V30 36 H 1.875421 3.354466 1.689600 0
M  V30 37 H 1.588628 -3.594437 2.002135 0
M  V30 END ATOM
M  V30 BEGIN BOND
M  V30 1 1 1 2
M  V30 2 2 2 3
M  V30 3 1 3 4
M  V30 4 2 4 5
M  V30 5 1 5 6
M  V30 6 2 6 7
M  V30 7 1 7 8
M  V30 8 1 8 9
M  V30 9 2 9 10
M  V30 10 1 9 11
M  V30 11 2 11 12
M  V30 12 1 12 13
M  V30 13 2 13 14
M  V30 14 1 13 15
M  V30 15 1 15 16
M  V30 16 2 16 17
M  V30 17 1 17 18
M  V30 18 2 18 19
M  V30 19 1 19 20
M  V30 20 1 19 21
M  V30 21 2 21 22
M  V30 22 1 11 23
M  V30 23 1 5 24
M  V30 24 2 24 25
M  V30 25 1 25 26
M  V30 26 1 25 2
M  V30 27 1 23 7
M  V30 28 1 22 12
M  V30 29 1 22 16
M  V30 30 1 1 27
M  V30 31 1 1 28
M  V30 32 1 1 29
M  V30 33 1 3 30
M  V30 34 1 4 31
M  V30 35 1 8 32
M  V30 36 1 15 33
M  V30 37 1 17 34
M  V30 38 1 18 35
M  V30 39 1 21 36
M  V30 40 1 24 37
M  V30 END BOND
M  V30 END CTAB
M  END
>  <Dataset>  (342) 
ChEMBL_Kinases

>  <Ligand_Instance>  (342) 
nan

>  <PDB_ID>  (342) 
nan

>  <Standardized_SMILES>  (342) 
Cc1ccc(/N=C2/NC(=O)/C(=C3/C(=O)Nc4ccc(I)cc43)S2)cc1Cl

>  <Name>  (342) 
nan

>  <Pocket>  (342) 
nan

>  <ATP_Site>  (342) 
nan

>  <Peripheral>  (342) 
nan

>  <Num_H_Atoms_ProtBoundConf>  (342) 
nan

>  <Num_Resolved_Atoms>  (342) 
nan

>  <Num_Not_Resolved_Atoms>  (342) 
nan

$$$$
CHEMBL4470285
     RDKit          3D

  0  0  0  0  0  0  0  0  0  0999 V3000
M  V30 BEGIN CTAB
M  V30 COUNTS 39 42 0 0 0
M  V30 BEGIN ATOM
M  V30 1 O 0.626354 -1.700253 1.834643 0
M  V30 2 C -0.605823 -1.913568 1.848746 0
M  V30 3 N -0.148091 -2.601704 0.731901 0
M  V30 4 C 1.034914 -2.849323 0.009329 0
M  V30 5 C 1.907077 -3.802655 -0.365592 0
M  V30 6 C 2.979494 -3.401461 -1.122467 0
M  V30 7 C 3.158573 -2.090322 -1.482957 0
M  V30 8 C 2.237522 -1.198324 -1.066302 0
M  V30 9 N 1.200682 -1.568442 -0.338749 0
M  V30 10 C 1.906955 0.188288 -1.092671 0
M  V30 11 N 2.978698 0.927888 -0.802382 0
M  V30 12 N 2.675506 2.242996 -0.816386 0
M  V30 13 C 1.349409 2.226732 -1.135568 0
M  V30 14 N 0.863345 0.961786 -1.309592 0
M  V30 15 C -0.493212 0.725300 -1.683863 0
M  V30 16 C -1.528372 1.275262 -0.779659 0
M  V30 17 C -1.687610 0.712679 0.573524 0
M  V30 18 O -0.639122 0.805031 1.470943 0
M  V30 19 C -0.736233 0.289026 2.775405 0
M  V30 20 C -0.862638 1.132580 3.855363 0
M  V30 21 C -0.943208 0.526191 5.083954 0
M  V30 22 C -0.914120 -0.813451 5.382420 0
M  V30 23 C -0.787640 -1.649127 4.297790 0
M  V30 24 C -0.704925 -1.102159 3.047599 0
M  V30 25 H -0.720767 -3.206950 0.121190 0
M  V30 26 H 1.510590 -4.682578 0.041757 0
M  V30 27 H 3.674183 -4.138415 -1.425200 0
M  V30 28 H 3.890075 -1.560879 -2.040152 0
M  V30 29 H 0.885003 3.223350 -1.202051 0
M  V30 30 H -0.680153 -0.381908 -1.735402 0
M  V30 31 H -0.707517 1.060454 -2.735045 0
M  V30 32 H -1.397719 2.409669 -0.703813 0
M  V30 33 H -2.544513 1.143076 -1.284985 0
M  V30 34 H -1.999533 -0.370391 0.555691 0
M  V30 35 H -2.569783 1.215060 1.091804 0
M  V30 36 H -0.898121 2.207543 3.762784 0
M  V30 37 H -1.044061 1.169257 5.962701 0
M  V30 38 H -0.970641 -1.341723 6.298949 0
M  V30 39 H -0.707614 -2.709338 4.122456 0
M  V30 END ATOM
M  V30 BEGIN BOND
M  V30 1 2 1 2
M  V30 2 1 2 3
M  V30 3 1 3 4
M  V30 4 2 4 5
M  V30 5 1 5 6
M  V30 6 2 6 7
M  V30 7 1 7 8
M  V30 8 2 8 9
M  V30 9 1 8 10
M  V30 10 2 10 11
M  V30 11 1 11 12
M  V30 12 2 12 13
M  V30 13 1 13 14
M  V30 14 1 14 15
M  V30 15 1 15 16
M  V30 16 1 16 17
M  V30 17 1 17 18
M  V30 18 1 18 19
M  V30 19 2 19 20
M  V30 20 1 20 21
M  V30 21 2 21 22
M  V30 22 1 22 23
M  V30 23 2 23 24
M  V30 24 1 24 2
M  V30 25 1 9 4
M  V30 26 1 14 10
M  V30 27 1 24 19
M  V30 28 1 3 25
M  V30 29 1 5 26
M  V30 30 1 6 27
M  V30 31 1 7 28
M  V30 32 1 13 29
M  V30 33 1 15 30
M  V30 34 1 15 31
M  V30 35 1 16 32
M  V30 36 1 16 33
M  V30 37 1 17 34
M  V30 38 1 17 35
M  V30 39 1 20 36
M  V30 40 1 21 37
M  V30 41 1 22 38
M  V30 42 1 23 39
M  V30 END BOND
M  V30 END CTAB
M  END
>  <Dataset>  (343) 
ChEMBL_Kinases

>  <Ligand_Instance>  (343) 
nan

>  <PDB_ID>  (343) 
nan

>  <Standardized_SMILES>  (343) 
O=C1Nc2cccc(n2)-c2nncn2CCCOc2ccccc21

>  <Name>  (343) 
nan

>  <Pocket>  (343) 
nan

>  <ATP_Site>  (343) 
nan

>  <Peripheral>  (343) 
nan

>  <Num_H_Atoms_ProtBoundConf>  (343) 
nan

>  <Num_Resolved_Atoms>  (343) 
nan

>  <Num_Not_Resolved_Atoms>  (343) 
nan

$$$$
CHEMBL470567
     RDKit          3D

  0  0  0  0  0  0  0  0  0  0999 V3000
M  V30 BEGIN CTAB
M  V30 COUNTS 36 39 0 0 0
M  V30 BEGIN ATOM
M  V30 1 Cl 0.828843 -3.516640 4.691437 0
M  V30 2 C 1.944969 -3.095633 3.410984 0
M  V30 3 C 1.488815 -3.129343 2.114968 0
M  V30 4 C 2.383611 -2.794005 1.116947 0
M  V30 5 C 3.711982 -2.426769 1.352512 0
M  V30 6 C 4.640710 -2.073612 0.251082 0
M  V30 7 S 4.504566 -0.274400 -0.035071 0
M  V30 8 C 2.855305 0.028018 -0.654539 0
M  V30 9 N 2.551530 0.004751 -1.969489 0
M  V30 10 N 1.256082 0.268963 -2.050298 0
M  V30 11 C 0.734840 0.457915 -0.825916 0
M  V30 12 C -0.623762 0.769064 -0.392046 0
M  V30 13 C -0.831767 0.900857 0.965423 0
M  V30 14 C -2.128748 1.198016 1.381459 0
M  V30 15 C -3.158828 1.353004 0.469107 0
M  V30 16 C -2.888474 1.207764 -0.895618 0
M  V30 17 C -1.619128 0.914726 -1.336820 0
M  V30 18 C -4.180672 1.430041 -1.613515 0
M  V30 19 C -5.226581 1.417253 -0.524574 0
M  V30 20 O -4.515776 1.648892 0.674656 0
M  V30 21 O 1.764236 0.297997 -0.000953 0
M  V30 22 C 4.168134 -2.395043 2.674498 0
M  V30 23 C 3.255048 -2.733588 3.645082 0
M  V30 24 H 0.491404 -3.396858 1.830008 0
M  V30 25 H 2.109770 -2.792766 0.056890 0
M  V30 26 H 5.672819 -2.387960 0.399967 0
M  V30 27 H 4.250144 -2.577179 -0.664348 0
M  V30 28 H -0.069405 0.791045 1.716982 0
M  V30 29 H -2.313520 1.306492 2.456319 0
M  V30 30 H -1.392453 0.799702 -2.377413 0
M  V30 31 H -4.293056 0.552050 -2.300490 0
M  V30 32 H -4.197267 2.366808 -2.191889 0
M  V30 33 H -5.719760 0.422997 -0.496999 0
M  V30 34 H -6.031483 2.160549 -0.693413 0
M  V30 35 H 5.175398 -2.122743 2.934342 0
M  V30 36 H 3.616140 -2.707236 4.675712 0
M  V30 END ATOM
M  V30 BEGIN BOND
M  V30 1 1 1 2
M  V30 2 2 2 3
M  V30 3 1 3 4
M  V30 4 2 4 5
M  V30 5 1 5 6
M  V30 6 1 6 7
M  V30 7 1 7 8
M  V30 8 2 8 9
M  V30 9 1 9 10
M  V30 10 2 10 11
M  V30 11 1 11 12
M  V30 12 2 12 13
M  V30 13 1 13 14
M  V30 14 2 14 15
M  V30 15 1 15 16
M  V30 16 2 16 17
M  V30 17 1 16 18
M  V30 18 1 18 19
M  V30 19 1 19 20
M  V30 20 1 11 21
M  V30 21 1 5 22
M  V30 22 2 22 23
M  V30 23 1 23 2
M  V30 24 1 21 8
M  V30 25 1 17 12
M  V30 26 1 20 15
M  V30 27 1 3 24
M  V30 28 1 4 25
M  V30 29 1 6 26
M  V30 30 1 6 27
M  V30 31 1 13 28
M  V30 32 1 14 29
M  V30 33 1 17 30
M  V30 34 1 18 31
M  V30 35 1 18 32
M  V30 36 1 19 33
M  V30 37 1 19 34
M  V30 38 1 22 35
M  V30 39 1 23 36
M  V30 END BOND
M  V30 END CTAB
M  END
>  <Dataset>  (344) 
ChEMBL_Kinases

>  <Ligand_Instance>  (344) 
nan

>  <PDB_ID>  (344) 
nan

>  <Standardized_SMILES>  (344) 
Clc1ccc(CSc2nnc(-c3ccc4c(c3)CCO4)o2)cc1

>  <Name>  (344) 
nan

>  <Pocket>  (344) 
nan

>  <ATP_Site>  (344) 
nan

>  <Peripheral>  (344) 
nan

>  <Num_H_Atoms_ProtBoundConf>  (344) 
nan

>  <Num_Resolved_Atoms>  (344) 
nan

>  <Num_Not_Resolved_Atoms>  (344) 
nan

$$$$
CHEMBL4470115
     RDKit          3D

  0  0  0  0  0  0  0  0  0  0999 V3000
M  V30 BEGIN CTAB
M  V30 COUNTS 61 65 0 0 0
M  V30 BEGIN ATOM
M  V30 1 N 1.314266 -4.799568 2.981655 0
M  V30 2 C 1.545016 -3.391646 2.858787 0
M  V30 3 C 1.368687 -2.715564 1.649583 0
M  V30 4 C 1.603892 -1.353200 1.568472 0
M  V30 5 C 2.015995 -0.667919 2.697432 0
M  V30 6 C 2.287098 0.751783 2.711329 0
M  V30 7 C 2.532752 1.928722 2.723413 0
M  V30 8 C 2.849939 3.347396 2.722904 0
M  V30 9 C 3.105125 4.071430 1.559655 0
M  V30 10 O 3.031682 3.437613 0.353274 0
M  V30 11 C 1.860233 2.887384 -0.142633 0
M  V30 12 C 0.664931 2.998976 0.535082 0
M  V30 13 C -0.486049 2.441173 0.024847 0
M  V30 14 C -0.426635 1.769523 -1.174967 0
M  V30 15 N -1.452329 1.101145 -1.920661 0
M  V30 16 C -1.595992 -0.219236 -1.601226 0
M  V30 17 O -0.890158 -0.829704 -0.712637 0
M  V30 18 C -2.114701 -1.556875 -1.635525 0
M  V30 19 C -3.030547 -1.056243 -2.725436 0
M  V30 20 C -4.030159 -1.785881 -3.456476 0
M  V30 21 C -4.213880 -3.150538 -3.148231 0
M  V30 22 N -3.407867 -3.626378 -2.176096 0
M  V30 23 C -3.275508 -4.911034 -1.581062 0
M  V30 24 C -4.206175 -5.498953 -0.766706 0
M  V30 25 C -4.057077 -6.750590 -0.201628 0
M  V30 26 C -2.889145 -7.444538 -0.483784 0
M  V30 27 F -2.641241 -8.683458 0.019579 0
M  V30 28 C -1.912101 -6.895442 -1.303152 0
M  V30 29 C -2.142457 -5.630944 -1.830272 0
M  V30 30 C -2.573751 -2.740343 -1.665992 0
M  V30 31 O -1.716717 -3.034648 -0.707774 0
M  V30 32 C 0.778913 1.647420 -1.877087 0
M  V30 33 C 1.943316 2.217917 -1.348798 0
M  V30 34 F 3.150335 2.130603 -1.990473 0
M  V30 35 C 3.423208 5.402186 1.705661 0
M  V30 36 C 3.489764 6.005681 2.942662 0
M  V30 37 N 3.233413 5.262179 4.036807 0
M  V30 38 C 2.914571 3.952883 3.979176 0
M  V30 39 N 2.652365 3.228391 5.174875 0
M  V30 40 N 2.179234 -1.337208 3.847878 0
M  V30 41 C 1.962261 -2.672270 3.984402 0
M  V30 42 H 2.096970 -5.457655 3.222193 0
M  V30 43 H 0.457257 -5.421464 2.880306 0
M  V30 44 H 1.048244 -3.251222 0.778617 0
M  V30 45 H 1.489418 -0.774491 0.684235 0
M  V30 46 H 0.550009 3.518667 1.470251 0
M  V30 47 H -1.474073 2.441641 0.429715 0
M  V30 48 H -2.165446 1.221510 -2.639383 0
M  V30 49 H -3.319245 -0.129072 -3.343908 0
M  V30 50 H -4.787105 -1.657282 -4.255092 0
M  V30 51 H -4.836474 -3.950791 -3.481001 0
M  V30 52 H -5.116811 -4.954975 -0.548813 0
M  V30 53 H -4.803975 -7.206440 0.442921 0
M  V30 54 H -0.988464 -7.412250 -1.542796 0
M  V30 55 H -1.363590 -5.218960 -2.469065 0
M  V30 56 H 0.953584 1.150527 -2.819685 0
M  V30 57 H 3.618372 5.942818 0.775579 0
M  V30 58 H 3.749522 7.056661 2.945349 0
M  V30 59 H 3.225297 2.962749 6.028825 0
M  V30 60 H 1.690537 2.835115 5.315125 0
M  V30 61 H 2.103653 -3.185927 4.935199 0
M  V30 END ATOM
M  V30 BEGIN BOND
M  V30 1 1 1 2
M  V30 2 2 2 3
M  V30 3 1 3 4
M  V30 4 2 4 5
M  V30 5 1 5 6
M  V30 6 3 6 7
M  V30 7 1 7 8
M  V30 8 1 8 9
M  V30 9 1 9 10
M  V30 10 1 10 11
M  V30 11 2 11 12
M  V30 12 1 12 13
M  V30 13 2 13 14
M  V30 14 1 14 15
M  V30 15 1 15 16
M  V30 16 2 16 17
M  V30 17 1 16 18
M  V30 18 2 18 19
M  V30 19 1 19 20
M  V30 20 2 20 21
M  V30 21 1 21 22
M  V30 22 1 22 23
M  V30 23 2 23 24
M  V30 24 1 24 25
M  V30 25 2 25 26
M  V30 26 1 26 27
M  V30 27 1 26 28
M  V30 28 2 28 29
M  V30 29 1 22 30
M  V30 30 2 30 31
M  V30 31 1 14 32
M  V30 32 2 32 33
M  V30 33 1 33 34
M  V30 34 2 9 35
M  V30 35 1 35 36
M  V30 36 2 36 37
M  V30 37 1 37 38
M  V30 38 1 38 39
M  V30 39 1 5 40
M  V30 40 2 40 41
M  V30 41 1 41 2
M  V30 42 2 38 8
M  V30 43 1 33 11
M  V30 44 1 30 18
M  V30 45 1 29 23
M  V30 46 1 1 42
M  V30 47 1 1 43
M  V30 48 1 3 44
M  V30 49 1 4 45
M  V30 50 1 12 46
M  V30 51 1 13 47
M  V30 52 1 15 48
M  V30 53 1 19 49
M  V30 54 1 20 50
M  V30 55 1 21 51
M  V30 56 1 24 52
M  V30 57 1 25 53
M  V30 58 1 28 54
M  V30 59 1 29 55
M  V30 60 1 32 56
M  V30 61 1 35 57
M  V30 62 1 36 58
M  V30 63 1 39 59
M  V30 64 1 39 60
M  V30 65 1 41 61
M  V30 END BOND
M  V30 END CTAB
M  END
>  <Dataset>  (345) 
ChEMBL_Kinases

>  <Ligand_Instance>  (345) 
nan

>  <PDB_ID>  (345) 
nan

>  <Standardized_SMILES>  (345) 
Nc1ccc(C#Cc2c(Oc3ccc(NC(=O)c4cccn(-c5ccc(F)cc5)c4=O)cc3F)ccnc2N)nc1

>  <Name>  (345) 
nan

>  <Pocket>  (345) 
nan

>  <ATP_Site>  (345) 
nan

>  <Peripheral>  (345) 
nan

>  <Num_H_Atoms_ProtBoundConf>  (345) 
nan

>  <Num_Resolved_Atoms>  (345) 
nan

>  <Num_Not_Resolved_Atoms>  (345) 
nan

$$$$
CHEMBL4470113
     RDKit          3D

  0  0  0  0  0  0  0  0  0  0999 V3000
M  V30 BEGIN CTAB
M  V30 COUNTS 54 58 0 0 0
M  V30 BEGIN ATOM
M  V30 1 C 0.795583 -1.758862 4.282358 0
M  V30 2 C 1.624554 -0.598831 3.830135 0
M  V30 3 C 2.814682 -0.287155 4.438972 0
M  V30 4 N 3.555635 0.763929 4.022162 0
M  V30 5 C 3.094736 1.500210 2.990432 0
M  V30 6 N 3.682297 2.637637 2.369962 0
M  V30 7 C 4.536459 2.700255 1.235356 0
M  V30 8 C 5.047352 3.893692 0.731860 0
M  V30 9 C 5.809691 3.556520 -0.346180 0
M  V30 10 N 5.768981 2.225859 -0.496378 0
M  V30 11 N 4.999585 1.709722 0.459593 0
M  V30 12 C 4.709997 0.297247 0.630485 0
M  V30 13 N 1.934354 1.176896 2.414662 0
M  V30 14 C 1.139574 0.152828 2.765794 0
M  V30 15 C -0.128702 -0.144761 2.077092 0
M  V30 16 C -0.085997 -0.109963 0.697571 0
M  V30 17 C -1.363284 -0.414941 0.257676 0
M  V30 18 N -2.130290 -0.621881 1.343391 0
M  V30 19 C -1.406250 -0.464428 2.475303 0
M  V30 20 C -3.520733 -0.964279 1.318206 0
M  V30 21 C -4.181292 -0.818808 -0.002735 0
M  V30 22 N -3.320103 -0.864060 -1.149521 0
M  V30 23 C -3.873080 -1.261392 -2.429271 0
M  V30 24 C -3.729902 -2.735747 -2.535611 0
M  V30 25 C -4.658417 -3.670941 -2.122826 0
M  V30 26 C -4.421578 -5.028686 -2.272398 0
M  V30 27 C -3.269940 -5.518243 -2.830061 0
M  V30 28 C -2.331407 -4.582926 -3.247578 0
M  V30 29 Cl -0.864206 -5.245168 -3.959420 0
M  V30 30 C -2.571040 -3.251907 -3.097444 0
M  V30 31 C -1.936543 -0.529220 -1.083314 0
M  V30 32 O -1.218477 -0.335952 -2.085319 0
M  V30 33 H 1.468030 -2.442199 4.863796 0
M  V30 34 H 0.020417 -1.455750 5.013519 0
M  V30 35 H 0.417429 -2.357527 3.432549 0
M  V30 36 H 3.186417 -0.869182 5.260115 0
M  V30 37 H 3.389794 3.483842 2.887093 0
M  V30 38 H 4.908937 4.914167 1.075746 0
M  V30 39 H 6.396412 4.128730 -1.047901 0
M  V30 40 H 5.358067 -0.275569 -0.056706 0
M  V30 41 H 4.824688 -0.037704 1.670831 0
M  V30 42 H 3.641544 0.155738 0.372321 0
M  V30 43 H 0.724722 0.101273 -0.019803 0
M  V30 44 H -1.625545 -0.536505 3.531812 0
M  V30 45 H -4.085776 -0.317572 2.051730 0
M  V30 46 H -3.632530 -2.035948 1.652174 0
M  V30 47 H -5.023699 -1.538099 -0.145885 0
M  V30 48 H -4.693679 0.187900 -0.057582 0
M  V30 49 H -3.322390 -0.766798 -3.244332 0
M  V30 50 H -4.959427 -1.047543 -2.491016 0
M  V30 51 H -5.567856 -3.292258 -1.683455 0
M  V30 52 H -5.180281 -5.709135 -1.933018 0
M  V30 53 H -3.100830 -6.573826 -2.939824 0
M  V30 54 H -1.755726 -2.646129 -3.466421 0
M  V30 END ATOM
M  V30 BEGIN BOND
M  V30 1 1 1 2
M  V30 2 2 2 3
M  V30 3 1 3 4
M  V30 4 2 4 5
M  V30 5 1 5 6
M  V30 6 1 6 7
M  V30 7 2 7 8
M  V30 8 1 8 9
M  V30 9 2 9 10
M  V30 10 1 10 11
M  V30 11 1 11 12
M  V30 12 1 5 13
M  V30 13 2 13 14
M  V30 14 1 14 15
M  V30 15 1 15 16
M  V30 16 2 16 17
M  V30 17 1 17 18
M  V30 18 1 18 19
M  V30 19 1 18 20
M  V30 20 1 20 21
M  V30 21 1 21 22
M  V30 22 1 22 23
M  V30 23 1 23 24
M  V30 24 2 24 25
M  V30 25 1 25 26
M  V30 26 2 26 27
M  V30 27 1 27 28
M  V30 28 1 28 29
M  V30 29 2 28 30
M  V30 30 1 22 31
M  V30 31 2 31 32
M  V30 32 1 14 2
M  V30 33 2 19 15
M  V30 34 1 30 24
M  V30 35 1 11 7
M  V30 36 1 31 17
M  V30 37 1 1 33
M  V30 38 1 1 34
M  V30 39 1 1 35
M  V30 40 1 3 36
M  V30 41 1 6 37
M  V30 42 1 8 38
M  V30 43 1 9 39
M  V30 44 1 12 40
M  V30 45 1 12 41
M  V30 46 1 12 42
M  V30 47 1 16 43
M  V30 48 1 19 44
M  V30 49 1 20 45
M  V30 50 1 20 46
M  V30 51 1 21 47
M  V30 52 1 21 48
M  V30 53 1 23 49
M  V30 54 1 23 50
M  V30 55 1 25 51
M  V30 56 1 26 52
M  V30 57 1 27 53
M  V30 58 1 30 54
M  V30 END BOND
M  V30 END CTAB
M  END
>  <Dataset>  (346) 
ChEMBL_Kinases

>  <Ligand_Instance>  (346) 
nan

>  <PDB_ID>  (346) 
nan

>  <Standardized_SMILES>  (346) 
Cc1cnc(Nc2ccnn2C)nc1-c1cc2n(c1)CCN(Cc1cccc(Cl)c1)C2=O

>  <Name>  (346) 
nan

>  <Pocket>  (346) 
nan

>  <ATP_Site>  (346) 
nan

>  <Peripheral>  (346) 
nan

>  <Num_H_Atoms_ProtBoundConf>  (346) 
nan

>  <Num_Resolved_Atoms>  (346) 
nan

>  <Num_Not_Resolved_Atoms>  (346) 
nan

$$$$
CHEMBL4470089
     RDKit          3D

  0  0  0  0  0  0  0  0  0  0999 V3000
M  V30 BEGIN CTAB
M  V30 COUNTS 56 59 0 0 0
M  V30 BEGIN ATOM
M  V30 1 C 2.096105 -1.381502 4.485710 0
M  V30 2 N 1.555625 -2.509552 3.754039 0
M  V30 3 C 1.827905 -2.651484 2.368833 0
M  V30 4 N 2.597110 -1.743318 1.740827 0
M  V30 5 C 2.875287 -1.865603 0.427213 0
M  V30 6 N 3.689101 -0.915210 -0.263209 0
M  V30 7 C 3.161662 0.252711 -0.909106 0
M  V30 8 C 3.960224 1.159753 -1.573283 0
M  V30 9 N 3.338159 2.212409 -2.134654 0
M  V30 10 C 2.008437 2.410511 -2.076357 0
M  V30 11 C 1.523211 3.585212 -2.731468 0
M  V30 12 N 1.115054 4.541413 -3.251899 0
M  V30 13 C 1.175717 1.504973 -1.408495 0
M  V30 14 O -0.153701 1.852617 -1.441984 0
M  V30 15 C -1.224382 1.164785 -0.876901 0
M  V30 16 C -2.246041 0.707612 -1.880620 0
M  V30 17 C -2.671035 1.891745 -2.701464 0
M  V30 18 N -2.861117 3.018831 -1.833518 0
M  V30 19 C -3.856132 3.937624 -2.356714 0
M  V30 20 C -3.166991 2.578021 -0.504974 0
M  V30 21 C -1.955544 1.980472 0.176982 0
M  V30 22 C 1.790904 0.418116 -0.825229 0
M  V30 23 N 2.365924 -2.916687 -0.240873 0
M  V30 24 C 1.592718 -3.846688 0.348167 0
M  V30 25 C 1.290853 -3.738990 1.712489 0
M  V30 26 C 0.439743 -4.764753 2.305462 0
M  V30 27 C 0.742874 -6.109354 2.049319 0
M  V30 28 N -0.177861 -6.879081 2.691457 0
M  V30 29 N -1.029510 -6.091599 3.327335 0
M  V30 30 C -2.162228 -6.516325 4.131791 0
M  V30 31 C -0.683386 -4.805791 3.113714 0
M  V30 32 H 3.101888 -1.081940 4.123825 0
M  V30 33 H 1.418063 -0.498123 4.333057 0
M  V30 34 H 2.088732 -1.566144 5.578701 0
M  V30 35 H 0.979385 -3.179070 4.303782 0
M  V30 36 H 4.715555 -1.077527 -0.299520 0
M  V30 37 H 5.033862 1.002413 -1.621993 0
M  V30 38 H -0.869143 0.232170 -0.359791 0
M  V30 39 H -3.134109 0.325414 -1.340163 0
M  V30 40 H -1.893358 -0.141682 -2.499101 0
M  V30 41 H -1.893314 2.177917 -3.449200 0
M  V30 42 H -3.571229 1.595288 -3.269926 0
M  V30 43 H -3.958718 4.767260 -1.603014 0
M  V30 44 H -3.541984 4.372815 -3.312542 0
M  V30 45 H -4.847839 3.467854 -2.466446 0
M  V30 46 H -4.051005 1.902301 -0.439326 0
M  V30 47 H -3.440718 3.496952 0.092224 0
M  V30 48 H -2.312226 1.323383 0.973639 0
M  V30 49 H -1.334122 2.830974 0.530328 0
M  V30 50 H 1.107063 -0.248403 -0.323974 0
M  V30 51 H 1.229541 -4.662519 -0.287878 0
M  V30 52 H 1.510555 -6.630180 1.481593 0
M  V30 53 H -1.913665 -6.837183 5.140092 0
M  V30 54 H -2.737436 -7.292005 3.548901 0
M  V30 55 H -2.906796 -5.671502 4.221597 0
M  V30 56 H -1.114161 -3.895198 3.445391 0
M  V30 END ATOM
M  V30 BEGIN BOND
M  V30 1 1 1 2
M  V30 2 1 2 3
M  V30 3 2 3 4
M  V30 4 1 4 5
M  V30 5 1 5 6
M  V30 6 1 6 7
M  V30 7 2 7 8
M  V30 8 1 8 9
M  V30 9 2 9 10
M  V30 10 1 10 11
M  V30 11 3 11 12
M  V30 12 1 10 13
M  V30 13 1 13 14
M  V30 14 1 14 15
M  V30 15 1 15 16
M  V30 16 1 16 17
M  V30 17 1 17 18
M  V30 18 1 18 19
M  V30 19 1 18 20
M  V30 20 1 20 21
M  V30 21 2 13 22
M  V30 22 2 5 23
M  V30 23 1 23 24
M  V30 24 2 24 25
M  V30 25 1 25 26
M  V30 26 1 26 27
M  V30 27 2 27 28
M  V30 28 1 28 29
M  V30 29 1 29 30
M  V30 30 1 29 31
M  V30 31 1 25 3
M  V30 32 2 31 26
M  V30 33 1 22 7
M  V30 34 1 21 15
M  V30 35 1 1 32
M  V30 36 1 1 33
M  V30 37 1 1 34
M  V30 38 1 2 35
M  V30 39 1 6 36
M  V30 40 1 8 37
M  V30 41 1 15 38
M  V30 42 1 16 39
M  V30 43 1 16 40
M  V30 44 1 17 41
M  V30 45 1 17 42
M  V30 46 1 19 43
M  V30 47 1 19 44
M  V30 48 1 19 45
M  V30 49 1 20 46
M  V30 50 1 20 47
M  V30 51 1 21 48
M  V30 52 1 21 49
M  V30 53 1 22 50
M  V30 54 1 24 51
M  V30 55 1 27 52
M  V30 56 1 30 53
M  V30 57 1 30 54
M  V30 58 1 30 55
M  V30 59 1 31 56
M  V30 END BOND
M  V30 END CTAB
M  END
>  <Dataset>  (347) 
ChEMBL_Kinases

>  <Ligand_Instance>  (347) 
nan

>  <PDB_ID>  (347) 
nan

>  <Standardized_SMILES>  (347) 
CNc1nc(Nc2cnc(C#N)c(OC3CCN(C)CC3)c2)ncc1-c1cnn(C)c1

>  <Name>  (347) 
nan

>  <Pocket>  (347) 
nan

>  <ATP_Site>  (347) 
nan

>  <Peripheral>  (347) 
nan

>  <Num_H_Atoms_ProtBoundConf>  (347) 
nan

>  <Num_Resolved_Atoms>  (347) 
nan

>  <Num_Not_Resolved_Atoms>  (347) 
nan

$$$$
CHEMBL4470043
     RDKit          3D

  0  0  0  0  0  0  0  0  0  0999 V3000
M  V30 BEGIN CTAB
M  V30 COUNTS 49 51 0 0 0
M  V30 BEGIN ATOM
M  V30 1 C 0.119860 -5.395185 2.242927 0
M  V30 2 C 1.266611 -4.555078 1.812136 0
M  V30 3 N 2.572913 -4.845214 1.901560 0
M  V30 4 N 3.314573 -3.864840 1.419660 0
M  V30 5 C 2.449145 -2.914452 1.007734 0
M  V30 6 C 1.147715 -3.308213 1.236273 0
M  V30 7 C -0.086452 -2.588728 0.944599 0
M  V30 8 N -0.035908 -1.376405 0.378936 0
M  V30 9 C -1.104877 -0.620629 0.064586 0
M  V30 10 N -1.008444 0.654512 -0.557145 0
M  V30 11 C 0.238390 1.260663 -0.866123 0
M  V30 12 C -0.108331 2.325777 -1.961341 0
M  V30 13 C 1.138496 0.277119 -1.579811 0
M  V30 14 C 0.919713 2.078702 0.146696 0
M  V30 15 C 1.341699 1.579594 1.450839 0
M  V30 16 C 2.061394 2.699032 2.263962 0
M  V30 17 C 0.116462 1.323313 2.309802 0
M  V30 18 O 2.159283 0.510052 1.515392 0
M  V30 19 C -2.288504 -1.245899 0.396652 0
M  V30 20 C -3.484427 -0.610573 0.143230 0
M  V30 21 C -4.724580 -1.138239 0.432198 0
M  V30 22 N -4.793174 -2.374071 1.009342 0
M  V30 23 C -3.643979 -3.043202 1.280173 0
M  V30 24 C -2.419221 -2.488201 0.979043 0
M  V30 25 N -1.257632 -3.153408 1.248014 0
M  V30 26 H -0.575696 -4.779394 2.861926 0
M  V30 27 H -0.427331 -5.785223 1.370844 0
M  V30 28 H 0.532845 -6.255519 2.840782 0
M  V30 29 H 4.366053 -3.890336 1.394867 0
M  V30 30 H 2.777464 -1.998779 0.570338 0
M  V30 31 H -1.887587 1.158222 -0.788710 0
M  V30 32 H -0.794848 3.063919 -1.514505 0
M  V30 33 H -0.466274 1.832853 -2.871540 0
M  V30 34 H 0.841436 2.860629 -2.164167 0
M  V30 35 H 0.550333 -0.639562 -1.825499 0
M  V30 36 H 1.528381 0.644253 -2.551601 0
M  V30 37 H 2.043131 0.024128 -0.994453 0
M  V30 38 H 0.318303 3.043623 0.241279 0
M  V30 39 H 1.859660 2.472483 -0.360116 0
M  V30 40 H 2.858148 3.168977 1.691618 0
M  V30 41 H 1.305017 3.478294 2.492097 0
M  V30 42 H 2.380454 2.247613 3.206249 0
M  V30 43 H 0.119352 1.906176 3.260350 0
M  V30 44 H -0.806229 1.653279 1.763061 0
M  V30 45 H -0.030850 0.271543 2.584460 0
M  V30 46 H 3.048076 0.554043 1.145401 0
M  V30 47 H -3.573061 0.364894 -0.306809 0
M  V30 48 H -5.669966 -0.661133 0.243547 0
M  V30 49 H -3.594636 -4.028858 1.736847 0
M  V30 END ATOM
M  V30 BEGIN BOND
M  V30 1 1 1 2
M  V30 2 2 2 3
M  V30 3 1 3 4
M  V30 4 1 4 5
M  V30 5 2 5 6
M  V30 6 1 6 7
M  V30 7 2 7 8
M  V30 8 1 8 9
M  V30 9 1 9 10
M  V30 10 1 10 11
M  V30 11 1 11 12
M  V30 12 1 11 13
M  V30 13 1 11 14
M  V30 14 1 14 15
M  V30 15 1 15 16
M  V30 16 1 15 17
M  V30 17 1 15 18
M  V30 18 2 9 19
M  V30 19 1 19 20
M  V30 20 2 20 21
M  V30 21 1 21 22
M  V30 22 2 22 23
M  V30 23 1 23 24
M  V30 24 2 24 25
M  V30 25 1 6 2
M  V30 26 1 25 7
M  V30 27 1 24 19
M  V30 28 1 1 26
M  V30 29 1 1 27
M  V30 30 1 1 28
M  V30 31 1 4 29
M  V30 32 1 5 30
M  V30 33 1 10 31
M  V30 34 1 12 32
M  V30 35 1 12 33
M  V30 36 1 12 34
M  V30 37 1 13 35
M  V30 38 1 13 36
M  V30 39 1 13 37
M  V30 40 1 14 38
M  V30 41 1 14 39
M  V30 42 1 16 40
M  V30 43 1 16 41
M  V30 44 1 16 42
M  V30 45 1 17 43
M  V30 46 1 17 44
M  V30 47 1 17 45
M  V30 48 1 18 46
M  V30 49 1 20 47
M  V30 50 1 21 48
M  V30 51 1 23 49
M  V30 END BOND
M  V30 END CTAB
M  END
>  <Dataset>  (348) 
ChEMBL_Kinases

>  <Ligand_Instance>  (348) 
nan

>  <PDB_ID>  (348) 
nan

>  <Standardized_SMILES>  (348) 
Cc1n[nH]cc1-c1nc(NC(C)(C)CC(C)(C)O)c2ccncc2n1

>  <Name>  (348) 
nan

>  <Pocket>  (348) 
nan

>  <ATP_Site>  (348) 
nan

>  <Peripheral>  (348) 
nan

>  <Num_H_Atoms_ProtBoundConf>  (348) 
nan

>  <Num_Resolved_Atoms>  (348) 
nan

>  <Num_Not_Resolved_Atoms>  (348) 
nan

$$$$
CHEMBL470970
     RDKit          3D

  0  0  0  0  0  0  0  0  0  0999 V3000
M  V30 BEGIN CTAB
M  V30 COUNTS 59 60 0 0 0
M  V30 BEGIN ATOM
M  V30 1 C 1.658345 4.409405 6.911520 0
M  V30 2 C 1.861845 3.129169 6.106380 0
M  V30 3 C 3.264965 2.671764 6.332555 0
M  V30 4 C 3.613901 1.399674 5.593224 0
M  V30 5 C 3.442306 1.633078 4.130280 0
M  V30 6 C 3.769072 0.415039 3.292624 0
M  V30 7 C 3.573509 0.726333 1.860898 0
M  V30 8 C 2.771967 0.213196 0.942883 0
M  V30 9 C 2.539494 0.486393 -0.493103 0
M  V30 10 C 1.237841 -0.245900 -0.752556 0
M  V30 11 C 0.055896 0.694461 -0.522768 0
M  V30 12 O 0.147638 1.212695 0.765631 0
M  V30 13 C 1.177784 -0.863824 -2.123268 0
M  V30 14 O -0.028170 -1.578732 -2.216050 0
M  V30 15 C -0.365264 -2.255592 -3.356598 0
M  V30 16 O 0.390138 -2.271772 -4.379938 0
M  V30 17 C -1.615110 -2.983197 -3.423798 0
M  V30 18 C -2.478979 -3.005193 -2.348848 0
M  V30 19 C -3.683144 -3.676155 -2.348526 0
M  V30 20 C -4.059671 -4.370183 -3.480814 0
M  V30 21 N -5.300770 -5.099102 -3.572516 0
M  V30 22 C -5.726878 -5.836615 -4.738123 0
M  V30 23 C -6.154767 -5.059877 -2.379238 0
M  V30 24 C -3.228552 -4.389066 -4.608267 0
M  V30 25 C -2.020175 -3.686977 -4.541612 0
M  V30 26 O 1.192648 -1.297245 0.200943 0
M  V30 27 C 1.876242 -0.858161 1.325833 0
M  V30 28 O 1.658177 -1.390384 2.435250 0
M  V30 29 H 2.634656 4.864941 7.151175 0
M  V30 30 H 1.167674 4.179749 7.895857 0
M  V30 31 H 1.005229 5.133120 6.375629 0
M  V30 32 H 1.099885 2.414166 6.459731 0
M  V30 33 H 1.649523 3.410861 5.060201 0
M  V30 34 H 3.928829 3.513815 6.046071 0
M  V30 35 H 3.428038 2.525273 7.416143 0
M  V30 36 H 2.976669 0.581875 5.989034 0
M  V30 37 H 4.653450 1.097355 5.830798 0
M  V30 38 H 2.392637 1.917385 3.903286 0
M  V30 39 H 4.075895 2.500274 3.855153 0
M  V30 40 H 3.347402 -0.503017 3.662855 0
M  V30 41 H 4.890397 0.291214 3.424660 0
M  V30 42 H 4.223307 1.542439 1.498495 0
M  V30 43 H 2.484210 1.552274 -0.729171 0
M  V30 44 H 3.337757 -0.021007 -1.084967 0
M  V30 45 H -0.860876 0.126344 -0.696040 0
M  V30 46 H 0.126169 1.517711 -1.259660 0
M  V30 47 H -0.690816 1.631421 1.065695 0
M  V30 48 H 1.311075 -0.105486 -2.931350 0
M  V30 49 H 2.074149 -1.533083 -2.195079 0
M  V30 50 H -2.270577 -2.494248 -1.424046 0
M  V30 51 H -4.357081 -3.686012 -1.492351 0
M  V30 52 H -5.317902 -6.861542 -4.765251 0
M  V30 53 H -6.845170 -5.858152 -4.750848 0
M  V30 54 H -5.453108 -5.248828 -5.650026 0
M  V30 55 H -5.639413 -5.593931 -1.566689 0
M  V30 56 H -7.136069 -5.463815 -2.639964 0
M  V30 57 H -6.337502 -3.979133 -2.110121 0
M  V30 58 H -3.437481 -4.897992 -5.528776 0
M  V30 59 H -1.362372 -3.692138 -5.412896 0
M  V30 END ATOM
M  V30 BEGIN BOND
M  V30 1 1 1 2
M  V30 2 1 2 3
M  V30 3 1 3 4
M  V30 4 1 4 5
M  V30 5 1 5 6
M  V30 6 1 6 7
M  V30 7 2 7 8
M  V30 8 1 8 9
M  V30 9 1 9 10
M  V30 10 1 10 11
M  V30 11 1 11 12
M  V30 12 1 10 13
M  V30 13 1 13 14
M  V30 14 1 14 15
M  V30 15 2 15 16
M  V30 16 1 15 17
M  V30 17 2 17 18
M  V30 18 1 18 19
M  V30 19 2 19 20
M  V30 20 1 20 21
M  V30 21 1 21 22
M  V30 22 1 21 23
M  V30 23 1 20 24
M  V30 24 2 24 25
M  V30 25 1 10 26
M  V30 26 1 26 27
M  V30 27 2 27 28
M  V30 28 1 27 8
M  V30 29 1 25 17
M  V30 30 1 1 29
M  V30 31 1 1 30
M  V30 32 1 1 31
M  V30 33 1 2 32
M  V30 34 1 2 33
M  V30 35 1 3 34
M  V30 36 1 3 35
M  V30 37 1 4 36
M  V30 38 1 4 37
M  V30 39 1 5 38
M  V30 40 1 5 39
M  V30 41 1 6 40
M  V30 42 1 6 41
M  V30 43 1 7 42
M  V30 44 1 9 43
M  V30 45 1 9 44
M  V30 46 1 11 45
M  V30 47 1 11 46
M  V30 48 1 12 47
M  V30 49 1 13 48
M  V30 50 1 13 49
M  V30 51 1 18 50
M  V30 52 1 19 51
M  V30 53 1 22 52
M  V30 54 1 22 53
M  V30 55 1 22 54
M  V30 56 1 23 55
M  V30 57 1 23 56
M  V30 58 1 23 57
M  V30 59 1 24 58
M  V30 60 1 25 59
M  V30 END BOND
M  V30 END CTAB
M  END
>  <Dataset>  (349) 
ChEMBL_Kinases

>  <Ligand_Instance>  (349) 
nan

>  <PDB_ID>  (349) 
nan

>  <Standardized_SMILES>  (349) 
CCCCCC/C=C1/CC(CO)(COC(=O)c2ccc(N(C)C)cc2)OC1=O

>  <Name>  (349) 
nan

>  <Pocket>  (349) 
nan

>  <ATP_Site>  (349) 
nan

>  <Peripheral>  (349) 
nan

>  <Num_H_Atoms_ProtBoundConf>  (349) 
nan

>  <Num_Resolved_Atoms>  (349) 
nan

>  <Num_Not_Resolved_Atoms>  (349) 
nan

$$$$
CHEMBL470971
     RDKit          3D

  0  0  0  0  0  0  0  0  0  0999 V3000
M  V30 BEGIN CTAB
M  V30 COUNTS 54 55 0 0 0
M  V30 BEGIN ATOM
M  V30 1 C 1.492096 2.413803 6.329538 0
M  V30 2 C 1.092144 1.189188 5.509597 0
M  V30 3 C 2.330757 0.310662 5.323474 0
M  V30 4 C 3.423810 1.028066 4.613080 0
M  V30 5 C 3.097925 1.515785 3.245968 0
M  V30 6 C 2.706443 0.388357 2.295702 0
M  V30 7 C 2.418254 0.987855 1.014283 0
M  V30 8 C 1.330464 0.994999 0.300514 0
M  V30 9 C 0.969659 1.576827 -0.995665 0
M  V30 10 C -0.217584 0.649719 -1.424985 0
M  V30 11 C -1.022823 1.388291 -2.415308 0
M  V30 12 O -0.424322 1.514598 -3.660838 0
M  V30 13 C 0.316348 -0.692378 -1.775467 0
M  V30 14 O -0.573983 -1.748079 -1.907718 0
M  V30 15 C -1.552188 -1.943797 -2.821160 0
M  V30 16 O -1.856127 -1.198923 -3.763867 0
M  V30 17 C -2.323159 -3.177348 -2.658519 0
M  V30 18 C -2.124337 -4.113334 -1.671393 0
M  V30 19 C -2.875754 -5.261770 -1.557355 0
M  V30 20 C -3.883319 -5.518975 -2.456981 0
M  V30 21 C -4.713650 -6.744549 -2.366685 0
M  V30 22 F -5.692222 -6.612417 -1.389348 0
M  V30 23 F -3.963340 -7.850743 -2.030353 0
M  V30 24 F -5.314266 -7.042341 -3.577677 0
M  V30 25 C -4.139297 -4.638462 -3.461797 0
M  V30 26 C -3.362577 -3.514002 -3.528079 0
M  V30 27 O -0.899871 0.509566 -0.160397 0
M  V30 28 C 0.121987 0.321142 0.758263 0
M  V30 29 O -0.037653 -0.344936 1.812835 0
M  V30 30 H 2.299556 2.080520 7.013661 0
M  V30 31 H 0.630936 2.828943 6.892177 0
M  V30 32 H 1.905170 3.149888 5.608476 0
M  V30 33 H 0.348666 0.653221 6.128561 0
M  V30 34 H 0.642430 1.493012 4.544314 0
M  V30 35 H 2.075759 -0.678451 4.942831 0
M  V30 36 H 2.706060 0.147139 6.372333 0
M  V30 37 H 4.327969 0.413020 4.672441 0
M  V30 38 H 3.643213 1.946262 5.220295 0
M  V30 39 H 4.001592 2.026176 2.850515 0
M  V30 40 H 2.302859 2.276454 3.298888 0
M  V30 41 H 2.024829 -0.234048 2.812593 0
M  V30 42 H 3.639046 -0.237680 2.143481 0
M  V30 43 H 3.270997 1.530877 0.572224 0
M  V30 44 H 1.723428 1.457285 -1.792089 0
M  V30 45 H 0.627378 2.617180 -0.970843 0
M  V30 46 H -2.058509 1.089644 -2.495043 0
M  V30 47 H -1.095620 2.467195 -2.009199 0
M  V30 48 H -0.947370 2.200350 -4.180406 0
M  V30 49 H 0.980358 -0.988846 -0.902672 0
M  V30 50 H 0.993057 -0.646871 -2.684591 0
M  V30 51 H -1.329139 -3.920977 -0.952230 0
M  V30 52 H -2.648501 -5.950346 -0.741088 0
M  V30 53 H -4.913961 -4.812607 -4.172946 0
M  V30 54 H -3.582662 -2.817596 -4.342647 0
M  V30 END ATOM
M  V30 BEGIN BOND
M  V30 1 1 1 2
M  V30 2 1 2 3
M  V30 3 1 3 4
M  V30 4 1 4 5
M  V30 5 1 5 6
M  V30 6 1 6 7
M  V30 7 2 7 8
M  V30 8 1 8 9
M  V30 9 1 9 10
M  V30 10 1 10 11
M  V30 11 1 11 12
M  V30 12 1 10 13
M  V30 13 1 13 14
M  V30 14 1 14 15
M  V30 15 2 15 16
M  V30 16 1 15 17
M  V30 17 2 17 18
M  V30 18 1 18 19
M  V30 19 2 19 20
M  V30 20 1 20 21
M  V30 21 1 21 22
M  V30 22 1 21 23
M  V30 23 1 21 24
M  V30 24 1 20 25
M  V30 25 2 25 26
M  V30 26 1 10 27
M  V30 27 1 27 28
M  V30 28 2 28 29
M  V30 29 1 28 8
M  V30 30 1 26 17
M  V30 31 1 1 30
M  V30 32 1 1 31
M  V30 33 1 1 32
M  V30 34 1 2 33
M  V30 35 1 2 34
M  V30 36 1 3 35
M  V30 37 1 3 36
M  V30 38 1 4 37
M  V30 39 1 4 38
M  V30 40 1 5 39
M  V30 41 1 5 40
M  V30 42 1 6 41
M  V30 43 1 6 42
M  V30 44 1 7 43
M  V30 45 1 9 44
M  V30 46 1 9 45
M  V30 47 1 11 46
M  V30 48 1 11 47
M  V30 49 1 12 48
M  V30 50 1 13 49
M  V30 51 1 13 50
M  V30 52 1 18 51
M  V30 53 1 19 52
M  V30 54 1 25 53
M  V30 55 1 26 54
M  V30 END BOND
M  V30 END CTAB
M  END
>  <Dataset>  (350) 
ChEMBL_Kinases

>  <Ligand_Instance>  (350) 
nan

>  <PDB_ID>  (350) 
nan

>  <Standardized_SMILES>  (350) 
CCCCCC/C=C1/CC(CO)(COC(=O)c2ccc(C(F)(F)F)cc2)OC1=O

>  <Name>  (350) 
nan

>  <Pocket>  (350) 
nan

>  <ATP_Site>  (350) 
nan

>  <Peripheral>  (350) 
nan

>  <Num_H_Atoms_ProtBoundConf>  (350) 
nan

>  <Num_Resolved_Atoms>  (350) 
nan

>  <Num_Not_Resolved_Atoms>  (350) 
nan

$$$$
CHEMBL4469896
     RDKit          3D

  0  0  0  0  0  0  0  0  0  0999 V3000
M  V30 BEGIN CTAB
M  V30 COUNTS 51 55 0 0 0
M  V30 BEGIN ATOM
M  V30 1 C -1.694680 -3.791820 5.364944 0
M  V30 2 S -1.416979 -4.683329 3.812559 0
M  V30 3 C -0.495675 -3.604104 2.687195 0
M  V30 4 N 0.852898 -3.744881 2.827387 0
M  V30 5 C 1.413906 -2.885034 1.941557 0
M  V30 6 C 0.342545 -2.278365 1.320073 0
M  V30 7 C 0.586626 -1.237670 0.334517 0
M  V30 8 C 1.209947 -0.052961 0.747910 0
M  V30 9 C 1.544625 1.004266 -0.068303 0
M  V30 10 C 2.193489 2.208098 0.432324 0
M  V30 11 C 2.536503 2.420392 1.748113 0
M  V30 12 C 3.150877 3.548818 2.247259 0
M  V30 13 C 3.456975 4.563090 1.373635 0
M  V30 14 C 3.140775 4.416145 0.039776 0
M  V30 15 C 2.520201 3.251135 -0.401891 0
M  V30 16 O 3.566892 5.585843 -0.575059 0
M  V30 17 C 4.514480 6.263820 0.246861 0
M  V30 18 O 4.064595 5.813109 1.534230 0
M  V30 19 N 1.237487 0.865589 -1.369245 0
M  V30 20 C 0.640341 -0.230001 -1.869806 0
M  V30 21 N 0.346190 -0.366729 -3.106898 0
M  V30 22 C 0.325241 -1.263116 -1.016038 0
M  V30 23 C -0.240772 -2.468622 -1.541982 0
M  V30 24 N -0.679310 -3.448333 -1.972234 0
M  V30 25 N -0.854073 -2.689780 1.749135 0
M  V30 26 C -2.222909 -2.396410 1.535662 0
M  V30 27 C -2.912279 -3.143095 0.474903 0
M  V30 28 C -3.174807 -4.473872 0.422168 0
M  V30 29 C -3.874294 -5.094559 -0.589627 0
M  V30 30 C -4.359161 -4.348140 -1.641431 0
M  V30 31 C -4.130287 -2.996430 -1.652489 0
M  V30 32 C -3.429132 -2.445679 -0.617047 0
M  V30 33 H -0.864582 -3.057323 5.520695 0
M  V30 34 H -1.618208 -4.475527 6.250729 0
M  V30 35 H -2.632396 -3.230197 5.399900 0
M  V30 36 H 2.471189 -2.730311 1.779809 0
M  V30 37 H 1.435893 0.000712 1.824678 0
M  V30 38 H 2.326588 1.666785 2.491477 0
M  V30 39 H 3.397036 3.658590 3.297386 0
M  V30 40 H 2.327356 3.255037 -1.446974 0
M  V30 41 H 4.444695 7.358599 0.144369 0
M  V30 42 H 5.531976 5.861555 0.025839 0
M  V30 43 H 1.434330 1.585832 -2.085917 0
M  V30 44 H 0.564489 0.386591 -3.791256 0
M  V30 45 H -2.822060 -2.607748 2.478791 0
M  V30 46 H -2.349223 -1.285039 1.373351 0
M  V30 47 H -2.814050 -5.091562 1.222948 0
M  V30 48 H -4.053347 -6.164247 -0.577310 0
M  V30 49 H -4.911150 -4.802696 -2.450369 0
M  V30 50 H -4.502492 -2.396454 -2.467912 0
M  V30 51 H -3.278575 -1.356679 -0.683733 0
M  V30 END ATOM
M  V30 BEGIN BOND
M  V30 1 1 1 2
M  V30 2 1 2 3
M  V30 3 2 3 4
M  V30 4 1 4 5
M  V30 5 2 5 6
M  V30 6 1 6 7
M  V30 7 1 7 8
M  V30 8 2 8 9
M  V30 9 1 9 10
M  V30 10 2 10 11
M  V30 11 1 11 12
M  V30 12 2 12 13
M  V30 13 1 13 14
M  V30 14 2 14 15
M  V30 15 1 14 16
M  V30 16 1 16 17
M  V30 17 1 17 18
M  V30 18 1 9 19
M  V30 19 1 19 20
M  V30 20 2 20 21 CFG=2
M  V30 21 1 20 22
M  V30 22 1 22 23
M  V30 23 3 23 24
M  V30 24 1 6 25
M  V30 25 1 25 26
M  V30 26 1 26 27
M  V30 27 2 27 28
M  V30 28 1 28 29
M  V30 29 2 29 30
M  V30 30 1 30 31
M  V30 31 2 31 32
M  V30 32 1 25 3
M  V30 33 1 32 27
M  V30 34 2 22 7
M  V30 35 1 15 10
M  V30 36 1 18 13
M  V30 37 1 1 33
M  V30 38 1 1 34
M  V30 39 1 1 35
M  V30 40 1 5 36
M  V30 41 1 8 37
M  V30 42 1 11 38
M  V30 43 1 12 39
M  V30 44 1 15 40
M  V30 45 1 17 41
M  V30 46 1 17 42
M  V30 47 1 19 43
M  V30 48 1 21 44
M  V30 49 1 26 45
M  V30 50 1 26 46
M  V30 51 1 28 47
M  V30 52 1 29 48
M  V30 53 1 30 49
M  V30 54 1 31 50
M  V30 55 1 32 51
M  V30 END BOND
M  V30 END CTAB
M  END
>  <Dataset>  (351) 
ChEMBL_Kinases

>  <Ligand_Instance>  (351) 
nan

>  <PDB_ID>  (351) 
nan

>  <Standardized_SMILES>  (351) 
CSc1ncc(-c2cc(-c3ccc4c(c3)OCO4)[nH]c(=N)c2C#N)n1Cc1ccccc1

>  <Name>  (351) 
nan

>  <Pocket>  (351) 
nan

>  <ATP_Site>  (351) 
nan

>  <Peripheral>  (351) 
nan

>  <Num_H_Atoms_ProtBoundConf>  (351) 
nan

>  <Num_Resolved_Atoms>  (351) 
nan

>  <Num_Not_Resolved_Atoms>  (351) 
nan

$$$$
CHEMBL4470529
     RDKit          3D

  0  0  0  0  0  0  0  0  0  0999 V3000
M  V30 BEGIN CTAB
M  V30 COUNTS 74 77 0 0 0
M  V30 BEGIN ATOM
M  V30 1 C -2.925297 -5.886765 0.188082 0
M  V30 2 O -2.879991 -4.676834 0.915561 0
M  V30 3 C -1.742598 -3.909498 0.853886 0
M  V30 4 C -0.634975 -4.258213 0.119741 0
M  V30 5 C 0.489669 -3.464135 0.080523 0
M  V30 6 N 1.629964 -3.835920 -0.699934 0
M  V30 7 C 2.907100 -3.166696 -0.831571 0
M  V30 8 C 3.211641 -3.347889 -2.298327 0
M  V30 9 N 2.574327 -4.607047 -2.605876 0
M  V30 10 C 2.822777 -5.318043 -3.864959 0
M  V30 11 C 1.820652 -4.858366 -4.916757 0
M  V30 12 N 1.891700 -3.455821 -5.199429 0
M  V30 13 C 3.103732 -3.107079 -5.868611 0
M  V30 14 C 0.767493 -3.068822 -6.016713 0
M  V30 15 C 1.705862 -4.997983 -1.517658 0
M  V30 16 O 1.173686 -6.115423 -1.379595 0
M  V30 17 C 0.540594 -2.276758 0.787301 0
M  V30 18 C -0.591018 -1.962268 1.511005 0
M  V30 19 C -1.740605 -2.717180 1.585687 0
M  V30 20 N -2.870266 -2.363116 2.355325 0
M  V30 21 C -3.184144 -1.183514 3.056323 0
M  V30 22 N -4.251842 -0.997559 3.857067 0
M  V30 23 C -4.468479 0.191376 4.435155 0
M  V30 24 C -3.660973 1.274912 4.271413 0
M  V30 25 Cl -3.906063 2.832648 5.002584 0
M  V30 26 C -2.571321 1.090603 3.456970 0
M  V30 27 N -1.620955 2.104381 3.132945 0
M  V30 28 C -0.569105 2.760017 3.825137 0
M  V30 29 C -0.330537 2.430651 5.141152 0
M  V30 30 C 0.699654 3.056941 5.820762 0
M  V30 31 C 1.481340 4.008504 5.173517 0
M  V30 32 C 1.174476 4.286770 3.835528 0
M  V30 33 C 0.148866 3.683436 3.109333 0
M  V30 34 S -0.070394 4.167367 1.473181 0
M  V30 35 O 1.045537 5.077150 1.000254 0
M  V30 36 O 0.043065 2.935342 0.590240 0
M  V30 37 C -1.590618 4.934721 1.089301 0
M  V30 38 C -1.765255 6.305108 1.709470 0
M  V30 39 C -1.583990 5.153682 -0.439366 0
M  V30 40 N -2.403656 -0.112026 2.908220 0
M  V30 41 H -3.953976 -6.302999 0.144337 0
M  V30 42 H -2.636409 -5.699511 -0.886919 0
M  V30 43 H -2.225160 -6.646307 0.552127 0
M  V30 44 H -0.721375 -5.180208 -0.408388 0
M  V30 45 H 3.654364 -3.738639 -0.213435 0
M  V30 46 H 2.889996 -2.103459 -0.532394 0
M  V30 47 H 2.675730 -2.546187 -2.848048 0
M  V30 48 H 4.298809 -3.345690 -2.507685 0
M  V30 49 H 2.606774 -6.400518 -3.699890 0
M  V30 50 H 3.858821 -5.182819 -4.193824 0
M  V30 51 H 1.969962 -5.430882 -5.851173 0
M  V30 52 H 0.791155 -5.054901 -4.546780 0
M  V30 53 H 3.022322 -3.240252 -6.981405 0
M  V30 54 H 3.995389 -3.659625 -5.527590 0
M  V30 55 H 3.310061 -2.029650 -5.649768 0
M  V30 56 H 1.008895 -2.138169 -6.598596 0
M  V30 57 H 0.436791 -3.850660 -6.732862 0
M  V30 58 H -0.073412 -2.788681 -5.341848 0
M  V30 59 H 1.414685 -1.646717 0.765680 0
M  V30 60 H -0.491014 -1.030268 2.046496 0
M  V30 61 H -3.634616 -3.071205 2.450016 0
M  V30 62 H -5.347609 0.294142 5.078118 0
M  V30 63 H -1.863980 2.314507 2.140776 0
M  V30 64 H -0.922313 1.695515 5.662690 0
M  V30 65 H 0.954204 2.858066 6.849422 0
M  V30 66 H 2.295500 4.522747 5.664330 0
M  V30 67 H 1.803766 5.030475 3.365849 0
M  V30 68 H -2.501436 4.376189 1.280060 0
M  V30 69 H -0.791840 6.855259 1.793523 0
M  V30 70 H -2.340361 6.284736 2.651384 0
M  V30 71 H -2.364405 6.910754 1.001807 0
M  V30 72 H -0.585806 5.414042 -0.797992 0
M  V30 73 H -1.884138 4.152296 -0.871179 0
M  V30 74 H -2.283214 5.956757 -0.712238 0
M  V30 END ATOM
M  V30 BEGIN BOND
M  V30 1 1 1 2
M  V30 2 1 2 3
M  V30 3 2 3 4
M  V30 4 1 4 5
M  V30 5 1 5 6
M  V30 6 1 6 7
M  V30 7 1 7 8
M  V30 8 1 8 9
M  V30 9 1 9 10
M  V30 10 1 10 11
M  V30 11 1 11 12
M  V30 12 1 12 13
M  V30 13 1 12 14
M  V30 14 1 9 15
M  V30 15 2 15 16
M  V30 16 2 5 17
M  V30 17 1 17 18
M  V30 18 2 18 19
M  V30 19 1 19 20
M  V30 20 1 20 21
M  V30 21 2 21 22
M  V30 22 1 22 23
M  V30 23 2 23 24
M  V30 24 1 24 25
M  V30 25 1 24 26
M  V30 26 1 26 27
M  V30 27 1 27 28
M  V30 28 2 28 29
M  V30 29 1 29 30
M  V30 30 2 30 31
M  V30 31 1 31 32
M  V30 32 2 32 33
M  V30 33 1 33 34
M  V30 34 2 34 35
M  V30 35 2 34 36
M  V30 36 1 34 37
M  V30 37 1 37 38
M  V30 38 1 37 39
M  V30 39 2 26 40
M  V30 40 1 19 3
M  V30 41 1 40 21
M  V30 42 1 15 6
M  V30 43 1 33 28
M  V30 44 1 1 41
M  V30 45 1 1 42
M  V30 46 1 1 43
M  V30 47 1 4 44
M  V30 48 1 7 45
M  V30 49 1 7 46
M  V30 50 1 8 47
M  V30 51 1 8 48
M  V30 52 1 10 49
M  V30 53 1 10 50
M  V30 54 1 11 51
M  V30 55 1 11 52
M  V30 56 1 13 53
M  V30 57 1 13 54
M  V30 58 1 13 55
M  V30 59 1 14 56
M  V30 60 1 14 57
M  V30 61 1 14 58
M  V30 62 1 17 59
M  V30 63 1 18 60
M  V30 64 1 20 61
M  V30 65 1 23 62
M  V30 66 1 27 63
M  V30 67 1 29 64
M  V30 68 1 30 65
M  V30 69 1 31 66
M  V30 70 1 32 67
M  V30 71 1 37 68
M  V30 72 1 38 69
M  V30 73 1 38 70
M  V30 74 1 38 71
M  V30 75 1 39 72
M  V30 76 1 39 73
M  V30 77 1 39 74
M  V30 END BOND
M  V30 END CTAB
M  END
>  <Dataset>  (352) 
ChEMBL_Kinases

>  <Ligand_Instance>  (352) 
nan

>  <PDB_ID>  (352) 
nan

>  <Standardized_SMILES>  (352) 
COc1cc(N2CCN(CCN(C)C)C2=O)ccc1Nc1ncc(Cl)c(Nc2ccccc2S(=O)(=O)C(C)C)n1

>  <Name>  (352) 
nan

>  <Pocket>  (352) 
nan

>  <ATP_Site>  (352) 
nan

>  <Peripheral>  (352) 
nan

>  <Num_H_Atoms_ProtBoundConf>  (352) 
nan

>  <Num_Resolved_Atoms>  (352) 
nan

>  <Num_Not_Resolved_Atoms>  (352) 
nan

$$$$
CHEMBL4532879
     RDKit          3D

  0  0  0  0  0  0  0  0  0  0999 V3000
M  V30 BEGIN CTAB
M  V30 COUNTS 56 60 0 0 0
M  V30 BEGIN ATOM
M  V30 1 C 5.222827 0.121182 4.534284 0
M  V30 2 N 4.940691 -1.222416 4.065473 0
M  V30 3 C 5.637059 -1.567283 2.821810 0
M  V30 4 C 4.413516 -1.335873 2.108870 0
M  V30 5 C 3.651407 -1.226166 3.381426 0
M  V30 6 C 4.247898 -0.284374 1.064562 0
M  V30 7 N 3.056959 -1.012400 0.717781 0
M  V30 8 C 1.746453 -0.609614 0.273486 0
M  V30 9 C 1.784689 0.748071 -0.102750 0
M  V30 10 C 0.601299 1.302151 -0.543984 0
M  V30 11 C -0.406918 0.420840 -0.535153 0
M  V30 12 O -1.758465 0.740214 -0.952048 0
M  V30 13 C -2.049875 2.038903 -1.392493 0
M  V30 14 C -3.496494 2.175844 -1.789195 0
M  V30 15 C -4.374075 2.544609 -0.781205 0
M  V30 16 C -5.686897 2.660653 -1.183751 0
M  V30 17 C -6.188950 2.452313 -2.446560 0
M  V30 18 C -5.262779 2.088253 -3.400578 0
M  V30 19 C -3.929453 1.950779 -3.077467 0
M  V30 20 C -0.853473 -0.777020 -0.302050 0
M  V30 21 C -1.337949 -2.076650 -0.049137 0
M  V30 22 O -2.378379 -1.452465 -0.457787 0
M  V30 23 N -1.344527 -3.391563 0.317050 0
M  V30 24 C -2.480988 -4.203971 0.291518 0
M  V30 25 C -3.794574 -4.007972 -0.030578 0
M  V30 26 C -4.704949 -5.040578 0.043852 0
M  V30 27 N -4.317891 -6.264730 0.436381 0
M  V30 28 N -3.054501 -6.443140 0.743700 0
M  V30 29 C -2.110534 -5.489044 0.695750 0
M  V30 30 C 0.493751 -1.285290 0.164966 0
M  V30 31 C 3.870185 -2.201715 1.037407 0
M  V30 32 H 5.328586 0.125627 5.647142 0
M  V30 33 H 6.121697 0.542220 4.019175 0
M  V30 34 H 4.407035 0.834775 4.296700 0
M  V30 35 H 6.096300 -2.587556 2.841445 0
M  V30 36 H 6.487179 -0.847211 2.705931 0
M  V30 37 H 3.095441 -2.171887 3.567100 0
M  V30 38 H 3.070854 -0.296617 3.425529 0
M  V30 39 H 5.003363 -0.382713 0.280344 0
M  V30 40 H 4.110067 0.735700 1.468500 0
M  V30 41 H 2.552861 1.501364 -0.131733 0
M  V30 42 H 0.269622 2.262455 -0.897469 0
M  V30 43 H -1.420200 2.319454 -2.287257 0
M  V30 44 H -1.837091 2.798551 -0.600232 0
M  V30 45 H -4.066633 2.729906 0.238145 0
M  V30 46 H -6.398948 2.949016 -0.408205 0
M  V30 47 H -7.242229 2.575336 -2.634091 0
M  V30 48 H -5.618445 1.915049 -4.412172 0
M  V30 49 H -3.191656 1.667220 -3.817164 0
M  V30 50 H -0.370842 -3.556760 0.579916 0
M  V30 51 H -4.005017 -2.997228 -0.330882 0
M  V30 52 H -5.698884 -4.722077 -0.242919 0
M  V30 53 H -1.110935 -5.844174 0.992947 0
M  V30 54 H 0.991129 -2.243033 0.556006 0
M  V30 55 H 3.323858 -3.074865 1.380889 0
M  V30 56 H 4.591329 -2.389967 0.231619 0
M  V30 END ATOM
M  V30 BEGIN BOND
M  V30 1 1 1 2
M  V30 2 1 2 3
M  V30 3 1 3 4
M  V30 4 1 4 5
M  V30 5 1 4 6
M  V30 6 1 6 7
M  V30 7 1 7 8
M  V30 8 2 8 9
M  V30 9 1 9 10
M  V30 10 2 10 11
M  V30 11 1 11 12
M  V30 12 1 12 13
M  V30 13 1 13 14
M  V30 14 2 14 15
M  V30 15 1 15 16
M  V30 16 2 16 17
M  V30 17 1 17 18
M  V30 18 2 18 19
M  V30 19 1 11 20
M  V30 20 1 20 21
M  V30 21 2 21 22
M  V30 22 1 21 23
M  V30 23 1 23 24
M  V30 24 2 24 25
M  V30 25 1 25 26
M  V30 26 2 26 27
M  V30 27 1 27 28
M  V30 28 2 28 29
M  V30 29 2 20 30
M  V30 30 1 7 31
M  V30 31 1 5 2
M  V30 32 1 30 8
M  V30 33 1 31 4
M  V30 34 1 19 14
M  V30 35 1 29 24
M  V30 36 1 1 32
M  V30 37 1 1 33
M  V30 38 1 1 34
M  V30 39 1 3 35
M  V30 40 1 3 36
M  V30 41 1 5 37
M  V30 42 1 5 38
M  V30 43 1 6 39
M  V30 44 1 6 40
M  V30 45 1 9 41
M  V30 46 1 10 42
M  V30 47 1 13 43
M  V30 48 1 13 44
M  V30 49 1 15 45
M  V30 50 1 16 46
M  V30 51 1 17 47
M  V30 52 1 18 48
M  V30 53 1 19 49
M  V30 54 1 23 50
M  V30 55 1 25 51
M  V30 56 1 26 52
M  V30 57 1 29 53
M  V30 58 1 30 54
M  V30 59 1 31 55
M  V30 60 1 31 56
M  V30 END BOND
M  V30 END CTAB
M  END
>  <Dataset>  (353) 
ChEMBL_Kinases

>  <Ligand_Instance>  (353) 
nan

>  <PDB_ID>  (353) 
nan

>  <Standardized_SMILES>  (353) 
CN1CC2(C1)CN(c1ccc(OCc3ccccc3)c(C(=O)Nc3ccnnc3)c1)C2

>  <Name>  (353) 
nan

>  <Pocket>  (353) 
nan

>  <ATP_Site>  (353) 
nan

>  <Peripheral>  (353) 
nan

>  <Num_H_Atoms_ProtBoundConf>  (353) 
nan

>  <Num_Resolved_Atoms>  (353) 
nan

>  <Num_Not_Resolved_Atoms>  (353) 
nan

$$$$
CHEMBL4532859
     RDKit          3D

  0  0  0  0  0  0  0  0  0  0999 V3000
M  V30 BEGIN CTAB
M  V30 COUNTS 48 52 0 0 0
M  V30 BEGIN ATOM
M  V30 1 C 4.300320 -1.755582 0.020966 0
M  V30 2 C 3.511665 -0.600029 0.584602 0
M  V30 3 N 3.833893 0.399574 1.319005 0
M  V30 4 N 2.767884 1.240447 1.608158 0
M  V30 5 C 2.947656 2.398738 2.413265 0
M  V30 6 C 2.842467 2.496592 3.778471 0
M  V30 7 C 3.053725 3.713214 4.411798 0
M  V30 8 C 3.370124 4.820882 3.652892 0
M  V30 9 C 3.480671 4.747681 2.286976 0
M  V30 10 C 3.816135 5.933355 1.507793 0
M  V30 11 O 4.003710 7.025945 2.096198 0
M  V30 12 O 3.923296 5.836420 0.124887 0
M  V30 13 C 3.268770 3.531893 1.662292 0
M  V30 14 C 1.630692 0.684221 0.964085 0
M  V30 15 O 0.497618 1.216068 1.036538 0
M  V30 16 C 2.087837 -0.522121 0.285128 0
M  V30 17 C 1.224378 -1.265388 -0.383953 0
M  V30 18 C -0.198502 -1.076962 -0.619763 0
M  V30 19 C -1.103121 -0.119888 -1.020370 0
M  V30 20 C -2.385165 -0.624321 -1.025496 0
M  V30 21 C -2.210984 -1.915361 -0.614525 0
M  V30 22 C -3.294024 -2.898591 -0.450489 0
M  V30 23 C -4.603478 -2.560576 -0.721343 0
M  V30 24 C -5.601908 -3.501486 -0.558563 0
M  V30 25 C -5.298958 -4.783770 -0.124824 0
M  V30 26 C -3.998400 -5.134274 0.148859 0
M  V30 27 C -3.009049 -4.195954 -0.014274 0
M  V30 28 C -4.001657 -6.539538 0.581636 0
M  V30 29 O -3.001746 -7.207626 0.914932 0
M  V30 30 N -5.344874 -7.013114 0.556638 0
M  V30 31 C -6.181354 -5.935968 0.118183 0
M  V30 32 O -7.429193 -6.033366 -0.010336 0
M  V30 33 O -0.963752 -2.144321 -0.391942 0
M  V30 34 H 4.184573 -1.768010 -1.088073 0
M  V30 35 H 5.364869 -1.584189 0.216540 0
M  V30 36 H 3.906739 -2.701792 0.398429 0
M  V30 37 H 2.594227 1.592208 4.287992 0
M  V30 38 H 2.971476 3.786724 5.474530 0
M  V30 39 H 3.535052 5.766901 4.145865 0
M  V30 40 H 4.257195 6.614553 -0.449748 0
M  V30 41 H 3.370465 3.536974 0.579944 0
M  V30 42 H 1.725820 -2.156373 -0.812614 0
M  V30 43 H -0.727302 0.857130 -1.283848 0
M  V30 44 H -3.270016 -0.073082 -1.300018 0
M  V30 45 H -4.807880 -1.555319 -1.057053 0
M  V30 46 H -6.627321 -3.257102 -0.764571 0
M  V30 47 H -2.000296 -4.468041 0.198054 0
M  V30 48 H -5.668253 -7.974588 0.811873 0
M  V30 END ATOM
M  V30 BEGIN BOND
M  V30 1 1 1 2
M  V30 2 2 2 3
M  V30 3 1 3 4
M  V30 4 1 4 5
M  V30 5 2 5 6
M  V30 6 1 6 7
M  V30 7 2 7 8
M  V30 8 1 8 9
M  V30 9 1 9 10
M  V30 10 2 10 11
M  V30 11 1 10 12
M  V30 12 2 9 13
M  V30 13 1 4 14
M  V30 14 2 14 15
M  V30 15 1 14 16
M  V30 16 2 16 17
M  V30 17 1 17 18
M  V30 18 2 18 19
M  V30 19 1 19 20
M  V30 20 2 20 21
M  V30 21 1 21 22
M  V30 22 2 22 23
M  V30 23 1 23 24
M  V30 24 2 24 25
M  V30 25 1 25 26
M  V30 26 2 26 27
M  V30 27 1 26 28
M  V30 28 2 28 29
M  V30 29 1 28 30
M  V30 30 1 30 31
M  V30 31 2 31 32
M  V30 32 1 21 33
M  V30 33 1 16 2
M  V30 34 1 33 18
M  V30 35 1 13 5
M  V30 36 1 27 22
M  V30 37 1 31 25
M  V30 38 1 1 34
M  V30 39 1 1 35
M  V30 40 1 1 36
M  V30 41 1 6 37
M  V30 42 1 7 38
M  V30 43 1 8 39
M  V30 44 1 12 40
M  V30 45 1 13 41
M  V30 46 1 17 42
M  V30 47 1 19 43
M  V30 48 1 20 44
M  V30 49 1 23 45
M  V30 50 1 24 46
M  V30 51 1 27 47
M  V30 52 1 30 48
M  V30 END BOND
M  V30 END CTAB
M  END
>  <Dataset>  (354) 
ChEMBL_Kinases

>  <Ligand_Instance>  (354) 
nan

>  <PDB_ID>  (354) 
nan

>  <Standardized_SMILES>  (354) 
CC1=NN(c2cccc(C(=O)O)c2)C(=O)/C1=C\c1ccc(-c2ccc3c(c2)C(=O)NC3=O)o1

>  <Name>  (354) 
nan

>  <Pocket>  (354) 
nan

>  <ATP_Site>  (354) 
nan

>  <Peripheral>  (354) 
nan

>  <Num_H_Atoms_ProtBoundConf>  (354) 
nan

>  <Num_Resolved_Atoms>  (354) 
nan

>  <Num_Not_Resolved_Atoms>  (354) 
nan

$$$$
CHEMBL4532781
     RDKit          3D

  0  0  0  0  0  0  0  0  0  0999 V3000
M  V30 BEGIN CTAB
M  V30 COUNTS 53 57 0 0 0
M  V30 BEGIN ATOM
M  V30 1 C 2.940164 -10.289579 0.462231 0
M  V30 2 N 2.607781 -8.904636 0.767786 0
M  V30 3 C 2.517854 -7.896618 -0.146616 0
M  V30 4 C 2.178874 -6.732902 0.556062 0
M  V30 5 C 1.966938 -5.380717 0.011330 0
M  V30 6 C 1.044802 -4.571137 0.675323 0
M  V30 7 N 0.831065 -3.319188 0.192926 0
M  V30 8 C 1.491360 -2.860590 -0.903316 0
M  V30 9 C 1.481355 -1.659589 -1.609066 0
M  V30 10 C 0.658637 -0.501388 -1.275488 0
M  V30 11 C -0.007008 0.124709 -2.339718 0
M  V30 12 S -0.942315 1.549031 -1.508558 0
M  V30 13 C -0.351000 1.141603 0.072774 0
M  V30 14 C -0.667241 1.857748 1.356330 0
M  V30 15 O -0.176819 1.465482 2.435616 0
M  V30 16 N -1.537468 2.973880 1.236609 0
M  V30 17 C -1.858826 3.683121 2.463303 0 CFG=2
M  V30 18 C -3.365618 3.618397 2.645297 0
M  V30 19 C -4.006798 3.972525 1.332483 0
M  V30 20 C -3.465304 5.173354 0.663014 0
M  V30 21 C -2.197807 5.738185 1.146081 0
M  V30 22 C -1.557732 5.141831 2.343442 0 CFG=1
M  V30 23 N -2.086595 5.792524 3.552587 0
M  V30 24 C 0.427837 0.080166 -0.087089 0
M  V30 25 C 2.375450 -1.789827 -2.644338 0
M  V30 26 N 2.916839 -3.027956 -2.578009 0
M  V30 27 N 2.388294 -3.676602 -1.532109 0
M  V30 28 C 2.648961 -4.936031 -1.103652 0
M  V30 29 C 2.076428 -7.096545 1.894263 0
M  V30 30 N 2.343271 -8.413079 1.971462 0
M  V30 31 H 2.627767 -10.911591 1.317626 0
M  V30 32 H 3.996395 -10.414895 0.165407 0
M  V30 33 H 2.283730 -10.580963 -0.405972 0
M  V30 34 H 2.663881 -7.920104 -1.201608 0
M  V30 35 H 0.518367 -4.943251 1.553149 0
M  V30 36 H 0.034323 -0.203755 -3.510850 0
M  V30 37 H -1.916015 3.254340 0.307085 0
M  V30 38 H -1.329170 3.176427 3.272300 0
M  V30 39 H -3.705398 4.277929 3.460335 0
M  V30 40 H -3.603664 2.566987 2.905791 0
M  V30 41 H -5.099456 4.042839 1.523730 0
M  V30 42 H -3.910915 3.052511 0.689476 0
M  V30 43 H -4.260084 5.976036 0.725797 0
M  V30 44 H -3.407802 4.983153 -0.432546 0
M  V30 45 H -1.423705 5.741886 0.321102 0
M  V30 46 H -2.284003 6.843115 1.374808 0
M  V30 47 H -0.452343 5.349079 2.315244 0
M  V30 48 H -3.034644 6.199267 3.308389 0
M  V30 49 H -1.477258 6.628646 3.769855 0
M  V30 50 H 0.925296 -0.368337 0.790712 0
M  V30 51 H 2.581089 -0.996573 -3.374661 0
M  V30 52 H 3.357339 -5.567700 -1.608127 0
M  V30 53 H 1.826960 -6.455196 2.749600 0
M  V30 END ATOM
M  V30 BEGIN BOND
M  V30 1 1 1 2
M  V30 2 1 2 3
M  V30 3 2 3 4
M  V30 4 1 4 5
M  V30 5 1 5 6
M  V30 6 2 6 7
M  V30 7 1 7 8
M  V30 8 2 8 9
M  V30 9 1 9 10
M  V30 10 2 10 11
M  V30 11 1 11 12
M  V30 12 1 12 13
M  V30 13 1 13 14
M  V30 14 2 14 15
M  V30 15 1 14 16
M  V30 16 1 16 17
M  V30 17 1 17 18
M  V30 18 1 18 19
M  V30 19 1 19 20
M  V30 20 1 20 21
M  V30 21 1 21 22
M  V30 22 1 22 23
M  V30 23 2 13 24
M  V30 24 1 9 25
M  V30 25 2 25 26
M  V30 26 1 26 27
M  V30 27 1 27 28
M  V30 28 1 4 29
M  V30 29 2 29 30
M  V30 30 1 30 2
M  V30 31 2 28 5
M  V30 32 1 27 8
M  V30 33 1 24 10
M  V30 34 1 22 17
M  V30 35 1 1 31
M  V30 36 1 1 32
M  V30 37 1 1 33
M  V30 38 1 3 34
M  V30 39 1 6 35
M  V30 40 1 11 36
M  V30 41 1 16 37
M  V30 42 1 17 38 CFG=1
M  V30 43 1 18 39
M  V30 44 1 18 40
M  V30 45 1 19 41
M  V30 46 1 19 42
M  V30 47 1 20 43
M  V30 48 1 20 44
M  V30 49 1 21 45
M  V30 50 1 21 46
M  V30 51 1 22 47 CFG=3
M  V30 52 1 23 48
M  V30 53 1 23 49
M  V30 54 1 24 50
M  V30 55 1 25 51
M  V30 56 1 28 52
M  V30 57 1 29 53
M  V30 END BOND
M  V30 END CTAB
M  END
>  <Dataset>  (355) 
ChEMBL_Kinases

>  <Ligand_Instance>  (355) 
nan

>  <PDB_ID>  (355) 
nan

>  <Standardized_SMILES>  (355) 
Cn1cc(-c2cnc3c(-c4csc(C(=O)N[C@@H]5CCCC[C@H]5N)c4)cnn3c2)cn1

>  <Name>  (355) 
nan

>  <Pocket>  (355) 
nan

>  <ATP_Site>  (355) 
nan

>  <Peripheral>  (355) 
nan

>  <Num_H_Atoms_ProtBoundConf>  (355) 
nan

>  <Num_Resolved_Atoms>  (355) 
nan

>  <Num_Not_Resolved_Atoms>  (355) 
nan

$$$$
CHEMBL4532757
     RDKit          3D

  0  0  0  0  0  0  0  0  0  0999 V3000
M  V30 BEGIN CTAB
M  V30 COUNTS 39 42 0 0 0
M  V30 BEGIN ATOM
M  V30 1 C 1.430377 -2.884243 1.862958 0
M  V30 2 C 0.625975 -2.178555 2.944633 0
M  V30 3 N -0.760191 -1.885704 2.639537 0
M  V30 4 C -1.094889 -1.053911 1.539823 0
M  V30 5 N -0.067901 -0.567000 0.819169 0
M  V30 6 C -0.289525 0.230765 -0.242059 0
M  V30 7 C 0.796787 0.776583 -1.044837 0
M  V30 8 C 0.490406 1.585830 -2.118286 0
M  V30 9 C 1.563388 2.078429 -2.848605 0
M  V30 10 N 2.853676 1.801729 -2.553958 0
M  V30 11 C 3.137807 1.008986 -1.501424 0
M  V30 12 C 4.571902 0.746349 -1.234301 0
M  V30 13 F 4.641081 -0.453586 -0.539153 0
M  V30 14 F 5.100583 1.741844 -0.458247 0
M  V30 15 F 5.206896 0.641269 -2.457182 0
M  V30 16 C 2.103385 0.480282 -0.724735 0
M  V30 17 N -1.573941 0.506322 -0.532873 0
M  V30 18 C -2.630713 0.045653 0.154245 0
M  V30 19 C -3.936602 0.350297 -0.174367 0
M  V30 20 N -4.973463 -0.138993 0.550145 0
M  V30 21 C -4.753176 -0.945670 1.623516 0
M  V30 22 C -3.458674 -1.276762 1.988502 0
M  V30 23 C -2.412311 -0.773763 1.244902 0
M  V30 24 C 1.149743 -2.215580 4.318783 0
M  V30 25 C 1.383364 -0.967341 3.575820 0
M  V30 26 H 2.015359 -3.687900 2.397529 0
M  V30 27 H 2.108530 -2.174114 1.359501 0
M  V30 28 H 0.781818 -3.387187 1.122685 0
M  V30 29 H -1.332633 -2.373834 3.334657 0
M  V30 30 H -0.509197 1.849866 -2.413540 0
M  V30 31 H 1.350913 2.719648 -3.701021 0
M  V30 32 H 2.390936 -0.148624 0.106714 0
M  V30 33 H -4.120267 0.991987 -1.027658 0
M  V30 34 H -5.595222 -1.334772 2.200764 0
M  V30 35 H -3.248420 -1.904918 2.821906 0
M  V30 36 H 0.489668 -2.199828 5.215276 0
M  V30 37 H 2.049338 -2.852012 4.479311 0
M  V30 38 H 2.339290 -0.691317 3.131914 0
M  V30 39 H 0.762867 -0.101026 3.886068 0
M  V30 END ATOM
M  V30 BEGIN BOND
M  V30 1 1 1 2
M  V30 2 1 2 3
M  V30 3 1 3 4
M  V30 4 2 4 5
M  V30 5 1 5 6
M  V30 6 1 6 7
M  V30 7 2 7 8
M  V30 8 1 8 9
M  V30 9 2 9 10
M  V30 10 1 10 11
M  V30 11 1 11 12
M  V30 12 1 12 13
M  V30 13 1 12 14
M  V30 14 1 12 15
M  V30 15 2 11 16
M  V30 16 2 6 17
M  V30 17 1 17 18
M  V30 18 2 18 19
M  V30 19 1 19 20
M  V30 20 2 20 21
M  V30 21 1 21 22
M  V30 22 2 22 23
M  V30 23 1 2 24
M  V30 24 1 24 25
M  V30 25 1 25 2
M  V30 26 1 23 4
M  V30 27 1 16 7
M  V30 28 1 23 18
M  V30 29 1 1 26
M  V30 30 1 1 27
M  V30 31 1 1 28
M  V30 32 1 3 29
M  V30 33 1 8 30
M  V30 34 1 9 31
M  V30 35 1 16 32
M  V30 36 1 19 33
M  V30 37 1 21 34
M  V30 38 1 22 35
M  V30 39 1 24 36
M  V30 40 1 24 37
M  V30 41 1 25 38
M  V30 42 1 25 39
M  V30 END BOND
M  V30 END CTAB
M  END
>  <Dataset>  (356) 
ChEMBL_Kinases

>  <Ligand_Instance>  (356) 
nan

>  <PDB_ID>  (356) 
nan

>  <Standardized_SMILES>  (356) 
CC1(Nc2nc(-c3ccnc(C(F)(F)F)c3)nc3cnccc23)CC1

>  <Name>  (356) 
nan

>  <Pocket>  (356) 
nan

>  <ATP_Site>  (356) 
nan

>  <Peripheral>  (356) 
nan

>  <Num_H_Atoms_ProtBoundConf>  (356) 
nan

>  <Num_Resolved_Atoms>  (356) 
nan

>  <Num_Not_Resolved_Atoms>  (356) 
nan

$$$$
CHEMBL4532338
     RDKit          3D

  0  0  0  0  0  0  0  0  0  0999 V3000
M  V30 BEGIN CTAB
M  V30 COUNTS 51 55 0 0 0
M  V30 BEGIN ATOM
M  V30 1 C 5.084482 -4.333803 3.475774 0
M  V30 2 O 3.749346 -3.876128 3.317307 0
M  V30 3 C 3.502319 -2.709518 2.608637 0
M  V30 4 C 4.442642 -1.897801 2.010147 0
M  V30 5 C 4.084936 -0.762116 1.331406 0
M  V30 6 C 2.765155 -0.375271 1.213615 0
M  V30 7 S 2.174994 1.037400 0.373955 0
M  V30 8 O 3.208030 2.127941 0.378053 0
M  V30 9 O 0.998539 1.546699 1.155420 0
M  V30 10 N 1.810028 0.708986 -1.270848 0
M  V30 11 C 0.776041 -0.278967 -1.432940 0
M  V30 12 C -0.559386 0.304631 -1.783991 0
M  V30 13 C -0.877023 1.522056 -0.980116 0
M  V30 14 C 0.182027 2.370946 -1.084425 0
M  V30 15 S -0.256164 3.751442 -0.158840 0
M  V30 16 C -1.833269 3.163206 0.342426 0
M  V30 17 N -2.839974 3.682994 1.121687 0
M  V30 18 C -3.957707 3.001961 1.346219 0
M  V30 19 N -4.022263 1.812707 0.774202 0
M  V30 20 C -3.060430 1.252150 -0.002473 0
M  V30 21 N -3.514106 -0.046159 -0.411501 0
M  V30 22 C -3.350851 -1.374808 0.117601 0
M  V30 23 C -2.840492 -2.545453 -0.399950 0
M  V30 24 C -2.795234 -3.668495 0.392166 0
M  V30 25 C -3.229071 -3.707969 1.680472 0
M  V30 26 F -3.105081 -4.901084 2.304278 0
M  V30 27 C -3.743165 -2.538018 2.206607 0
M  V30 28 C -3.799435 -1.384655 1.422499 0
M  V30 29 F -4.344962 -0.368943 2.166143 0
M  V30 30 C -1.899883 1.955278 -0.238991 0
M  V30 31 C 1.413628 1.948190 -1.915612 0
M  V30 32 C 1.811301 -1.199403 1.821641 0
M  V30 33 C 2.152008 -2.357191 2.515653 0
M  V30 34 H 5.496959 -4.456065 2.455087 0
M  V30 35 H 5.634911 -3.473535 3.947638 0
M  V30 36 H 5.131564 -5.252759 4.085519 0
M  V30 37 H 5.466850 -2.204572 2.105540 0
M  V30 38 H 4.812132 -0.115406 0.858522 0
M  V30 39 H 1.082416 -0.901139 -2.322742 0
M  V30 40 H 0.727795 -1.011070 -0.606408 0
M  V30 41 H -0.586754 0.634393 -2.868747 0
M  V30 42 H -1.293441 -0.485232 -1.717066 0
M  V30 43 H -4.707655 3.468017 1.966368 0
M  V30 44 H -4.107998 -0.201809 -1.278804 0
M  V30 45 H -2.531924 -2.429754 -1.426128 0
M  V30 46 H -2.364581 -4.521703 -0.154291 0
M  V30 47 H -4.074701 -2.633538 3.248312 0
M  V30 48 H 1.132791 1.815647 -2.964496 0
M  V30 49 H 2.175179 2.729855 -1.760565 0
M  V30 50 H 0.754738 -0.977242 1.784753 0
M  V30 51 H 1.372446 -2.971601 2.975942 0
M  V30 END ATOM
M  V30 BEGIN BOND
M  V30 1 1 1 2
M  V30 2 1 2 3
M  V30 3 2 3 4
M  V30 4 1 4 5
M  V30 5 2 5 6
M  V30 6 1 6 7
M  V30 7 2 7 8
M  V30 8 2 7 9
M  V30 9 1 7 10
M  V30 10 1 10 11
M  V30 11 1 11 12
M  V30 12 1 12 13
M  V30 13 2 13 14
M  V30 14 1 14 15
M  V30 15 1 15 16
M  V30 16 2 16 17
M  V30 17 1 17 18
M  V30 18 2 18 19
M  V30 19 1 19 20
M  V30 20 1 20 21
M  V30 21 1 21 22
M  V30 22 2 22 23
M  V30 23 1 23 24
M  V30 24 2 24 25
M  V30 25 1 25 26
M  V30 26 1 25 27
M  V30 27 2 27 28
M  V30 28 1 28 29
M  V30 29 2 20 30
M  V30 30 1 14 31
M  V30 31 1 6 32
M  V30 32 2 32 33
M  V30 33 1 33 3
M  V30 34 1 31 10
M  V30 35 1 30 13
M  V30 36 1 30 16
M  V30 37 1 28 22
M  V30 38 1 1 34
M  V30 39 1 1 35
M  V30 40 1 1 36
M  V30 41 1 4 37
M  V30 42 1 5 38
M  V30 43 1 11 39
M  V30 44 1 11 40
M  V30 45 1 12 41
M  V30 46 1 12 42
M  V30 47 1 18 43
M  V30 48 1 21 44
M  V30 49 1 23 45
M  V30 50 1 24 46
M  V30 51 1 27 47
M  V30 52 1 31 48
M  V30 53 1 31 49
M  V30 54 1 32 50
M  V30 55 1 33 51
M  V30 END BOND
M  V30 END CTAB
M  END
>  <Dataset>  (357) 
ChEMBL_Kinases

>  <Ligand_Instance>  (357) 
nan

>  <PDB_ID>  (357) 
nan

>  <Standardized_SMILES>  (357) 
COc1ccc(S(=O)(=O)N2CCc3c(sc4ncnc(Nc5ccc(F)cc5F)c34)C2)cc1

>  <Name>  (357) 
nan

>  <Pocket>  (357) 
nan

>  <ATP_Site>  (357) 
nan

>  <Peripheral>  (357) 
nan

>  <Num_H_Atoms_ProtBoundConf>  (357) 
nan

>  <Num_Resolved_Atoms>  (357) 
nan

>  <Num_Not_Resolved_Atoms>  (357) 
nan

$$$$
CHEMBL4532329
     RDKit          3D

  0  0  0  0  0  0  0  0  0  0999 V3000
M  V30 BEGIN CTAB
M  V30 COUNTS 41 43 0 0 0
M  V30 BEGIN ATOM
M  V30 1 C 0.362730 -4.603155 1.942834 0
M  V30 2 C 0.726087 -3.662038 3.023698 0
M  V30 3 C 1.149159 -4.102867 4.282526 0
M  V30 4 N 1.480216 -3.242591 5.267488 0
M  V30 5 C 1.409321 -1.917268 5.056463 0
M  V30 6 C 0.990263 -1.442975 3.809569 0
M  V30 7 C 0.647215 -2.305396 2.788924 0
M  V30 8 C 0.220267 -1.730176 1.518491 0
M  V30 9 N 0.190892 -0.387530 1.431653 0
M  V30 10 C -0.196560 0.233987 0.278626 0
M  V30 11 N -0.190538 1.643569 0.297315 0
M  V30 12 C -1.393216 2.426554 0.063921 0
M  V30 13 C 1.019693 2.391800 0.551291 0
M  V30 14 C 1.380910 3.306538 -0.611023 0
M  V30 15 C 2.212572 1.483918 0.763914 0
M  V30 16 C -0.552054 -0.576406 -0.779922 0
M  V30 17 C -0.941306 0.063342 -1.938320 0
M  V30 18 C -1.307827 -0.716785 -3.029691 0
M  V30 19 N -1.262333 -2.062872 -2.894864 0
M  V30 20 C -0.890106 -2.702745 -1.787142 0
M  V30 21 C -0.527296 -1.953712 -0.706837 0
M  V30 22 N -0.133158 -2.490688 0.466131 0
M  V30 23 H 1.046765 -4.459709 1.093615 0
M  V30 24 H -0.712527 -4.470753 1.651986 0
M  V30 25 H 0.399757 -5.658086 2.326002 0
M  V30 26 H 1.188731 -5.183354 4.400349 0
M  V30 27 H 1.683904 -1.258737 5.873392 0
M  V30 28 H 0.971739 -0.363939 3.754370 0
M  V30 29 H -1.642872 3.064831 0.955447 0
M  V30 30 H -2.293261 1.793617 -0.084262 0
M  V30 31 H -1.263690 3.160535 -0.760774 0
M  V30 32 H 0.967775 3.032254 1.453051 0
M  V30 33 H 0.587448 4.011346 -0.864491 0
M  V30 34 H 2.250258 3.916002 -0.230400 0
M  V30 35 H 1.772722 2.712613 -1.471888 0
M  V30 36 H 2.175842 0.921428 1.709577 0
M  V30 37 H 3.122347 2.118182 0.793145 0
M  V30 38 H 2.359290 0.833029 -0.140229 0
M  V30 39 H -0.967822 1.137062 -2.016807 0
M  V30 40 H -1.628548 -0.274801 -3.984180 0
M  V30 41 H -0.859951 -3.780073 -1.697867 0
M  V30 END ATOM
M  V30 BEGIN BOND
M  V30 1 1 1 2
M  V30 2 2 2 3
M  V30 3 1 3 4
M  V30 4 2 4 5
M  V30 5 1 5 6
M  V30 6 2 6 7
M  V30 7 1 7 8
M  V30 8 2 8 9
M  V30 9 1 9 10
M  V30 10 1 10 11
M  V30 11 1 11 12
M  V30 12 1 11 13
M  V30 13 1 13 14
M  V30 14 1 13 15
M  V30 15 2 10 16
M  V30 16 1 16 17
M  V30 17 2 17 18
M  V30 18 1 18 19
M  V30 19 2 19 20
M  V30 20 1 20 21
M  V30 21 2 21 22
M  V30 22 1 7 2
M  V30 23 1 22 8
M  V30 24 1 21 16
M  V30 25 1 1 23
M  V30 26 1 1 24
M  V30 27 1 1 25
M  V30 28 1 3 26
M  V30 29 1 5 27
M  V30 30 1 6 28
M  V30 31 1 12 29
M  V30 32 1 12 30
M  V30 33 1 12 31
M  V30 34 1 13 32
M  V30 35 1 14 33
M  V30 36 1 14 34
M  V30 37 1 14 35
M  V30 38 1 15 36
M  V30 39 1 15 37
M  V30 40 1 15 38
M  V30 41 1 17 39
M  V30 42 1 18 40
M  V30 43 1 20 41
M  V30 END BOND
M  V30 END CTAB
M  END
>  <Dataset>  (358) 
ChEMBL_Kinases

>  <Ligand_Instance>  (358) 
nan

>  <PDB_ID>  (358) 
nan

>  <Standardized_SMILES>  (358) 
Cc1cnccc1-c1nc(N(C)C(C)C)c2ccncc2n1

>  <Name>  (358) 
nan

>  <Pocket>  (358) 
nan

>  <ATP_Site>  (358) 
nan

>  <Peripheral>  (358) 
nan

>  <Num_H_Atoms_ProtBoundConf>  (358) 
nan

>  <Num_Resolved_Atoms>  (358) 
nan

>  <Num_Not_Resolved_Atoms>  (358) 
nan

$$$$
CHEMBL4532321
     RDKit          3D

  0  0  0  0  0  0  0  0  0  0999 V3000
M  V30 BEGIN CTAB
M  V30 COUNTS 72 77 0 0 0
M  V30 BEGIN ATOM
M  V30 1 O 4.280687 -1.950471 2.199006 0
M  V30 2 S 4.957340 -0.846174 1.365685 0
M  V30 3 O 6.435036 -0.954637 1.680476 0
M  V30 4 N 4.300943 0.614780 1.919574 0
M  V30 5 C 3.055054 1.269406 2.131825 0
M  V30 6 N 2.699915 2.311804 2.503932 0
M  V30 7 C 1.472496 2.707353 2.679865 0
M  V30 8 C 1.143160 4.043241 3.154506 0
M  V30 9 C 1.412144 5.093714 2.271679 0
M  V30 10 C 1.185725 6.414148 2.518149 0
M  V30 11 C 0.648656 6.754186 3.732260 0
M  V30 12 F 0.414480 8.059736 4.003048 0
M  V30 13 C 0.369336 5.735842 4.632973 0
M  V30 14 C 0.603443 4.397618 4.371801 0
M  V30 15 C 0.402406 1.844670 2.415356 0
M  V30 16 C -1.058730 1.837617 2.456655 0
M  V30 17 C -1.914132 1.991698 3.521998 0
M  V30 18 C -3.270289 1.925241 3.231278 0
M  V30 19 N -3.705595 1.724807 1.997019 0
M  V30 20 C -2.867891 1.573196 0.948513 0
M  V30 21 N -3.396220 1.355387 -0.360880 0
M  V30 22 C -3.569247 0.007678 -0.782418 0
M  V30 23 C -3.230951 -1.040966 0.048894 0
M  V30 24 C -3.382335 -2.357696 -0.331010 0
M  V30 25 C -3.890359 -2.687372 -1.587956 0
M  V30 26 N -4.104314 -3.981299 -2.129969 0
M  V30 27 C -4.611846 -4.223177 -3.453280 0
M  V30 28 C -4.153266 -5.593206 -3.896263 0
M  V30 29 N -2.720710 -5.681439 -3.570611 0
M  V30 30 C -2.696958 -5.983398 -2.135995 0
M  V30 31 C -3.846936 -5.244592 -1.446464 0
M  V30 32 C -4.223954 -1.630418 -2.407428 0
M  V30 33 C -4.071583 -0.316166 -2.025026 0
M  V30 34 N -1.573239 1.637576 1.231179 0
M  V30 35 S 1.412386 0.360733 1.869528 0
M  V30 36 C 4.668105 -1.272299 -0.302760 0
M  V30 37 C 3.259597 -1.366663 -0.749188 0
M  V30 38 C 2.523163 -2.536035 -0.131354 0
M  V30 39 N 3.378007 -3.722931 -0.155674 0
M  V30 40 C 4.421900 -3.567137 -1.155227 0
M  V30 41 C 5.414804 -2.557879 -0.654585 0
M  V30 42 H 5.077733 1.283928 2.210877 0
M  V30 43 H 1.843215 4.876979 1.284240 0
M  V30 44 H 1.413786 7.181937 1.795276 0
M  V30 45 H -0.061776 6.010618 5.607272 0
M  V30 46 H 0.403737 3.596372 5.037577 0
M  V30 47 H -1.401791 2.145944 4.459648 0
M  V30 48 H -3.902832 2.054709 4.117671 0
M  V30 49 H -3.652928 2.130416 -1.002853 0
M  V30 50 H -2.826413 -0.887619 1.049938 0
M  V30 51 H -3.129792 -3.193034 0.289684 0
M  V30 52 H -5.711581 -4.109418 -3.520526 0
M  V30 53 H -4.078185 -3.508118 -4.146136 0
M  V30 54 H -4.704716 -6.392854 -3.355616 0
M  V30 55 H -4.309450 -5.702777 -4.988435 0
M  V30 56 H -2.231025 -6.382658 -4.138373 0
M  V30 57 H -1.724923 -5.713991 -1.705323 0
M  V30 58 H -2.856871 -7.062468 -2.024885 0
M  V30 59 H -4.744253 -5.882323 -1.387694 0
M  V30 60 H -3.502271 -5.051365 -0.412353 0
M  V30 61 H -4.632764 -1.693467 -3.416256 0
M  V30 62 H -4.321012 0.546642 -2.636991 0
M  V30 63 H 5.137323 -0.448981 -0.929144 0
M  V30 64 H 2.719187 -0.448045 -0.541603 0
M  V30 65 H 3.177278 -1.495724 -1.871323 0
M  V30 66 H 2.240088 -2.334588 0.908837 0
M  V30 67 H 1.647962 -2.751586 -0.752999 0
M  V30 68 H 2.821596 -4.592617 -0.290610 0
M  V30 69 H 3.987423 -3.335923 -2.132824 0
M  V30 70 H 4.976052 -4.550137 -1.173801 0
M  V30 71 H 5.832970 -2.991402 0.301451 0
M  V30 72 H 6.226273 -2.363057 -1.373206 0
M  V30 END ATOM
M  V30 BEGIN BOND
M  V30 1 2 1 2
M  V30 2 2 2 3
M  V30 3 1 2 4
M  V30 4 1 4 5
M  V30 5 2 5 6
M  V30 6 1 6 7
M  V30 7 1 7 8
M  V30 8 2 8 9
M  V30 9 1 9 10
M  V30 10 2 10 11
M  V30 11 1 11 12
M  V30 12 1 11 13
M  V30 13 2 13 14
M  V30 14 2 7 15
M  V30 15 1 15 16
M  V30 16 2 16 17
M  V30 17 1 17 18
M  V30 18 2 18 19
M  V30 19 1 19 20
M  V30 20 1 20 21
M  V30 21 1 21 22
M  V30 22 2 22 23
M  V30 23 1 23 24
M  V30 24 2 24 25
M  V30 25 1 25 26
M  V30 26 1 26 27
M  V30 27 1 27 28
M  V30 28 1 28 29
M  V30 29 1 29 30
M  V30 30 1 30 31
M  V30 31 1 25 32
M  V30 32 2 32 33
M  V30 33 2 20 34
M  V30 34 1 15 35
M  V30 35 1 2 36
M  V30 36 1 36 37
M  V30 37 1 37 38
M  V30 38 1 38 39
M  V30 39 1 39 40
M  V30 40 1 40 41
M  V30 41 1 35 5
M  V30 42 1 41 36
M  V30 43 1 14 8
M  V30 44 1 34 16
M  V30 45 1 33 22
M  V30 46 1 31 26
M  V30 47 1 4 42
M  V30 48 1 9 43
M  V30 49 1 10 44
M  V30 50 1 13 45
M  V30 51 1 14 46
M  V30 52 1 17 47
M  V30 53 1 18 48
M  V30 54 1 21 49
M  V30 55 1 23 50
M  V30 56 1 24 51
M  V30 57 1 27 52
M  V30 58 1 27 53
M  V30 59 1 28 54
M  V30 60 1 28 55
M  V30 61 1 29 56
M  V30 62 1 30 57
M  V30 63 1 30 58
M  V30 64 1 31 59
M  V30 65 1 31 60
M  V30 66 1 32 61
M  V30 67 1 33 62
M  V30 68 1 36 63
M  V30 69 1 37 64
M  V30 70 1 37 65
M  V30 71 1 38 66
M  V30 72 1 38 67
M  V30 73 1 39 68
M  V30 74 1 40 69
M  V30 75 1 40 70
M  V30 76 1 41 71
M  V30 77 1 41 72
M  V30 END BOND
M  V30 END CTAB
M  END
>  <Dataset>  (359) 
ChEMBL_Kinases

>  <Ligand_Instance>  (359) 
nan

>  <PDB_ID>  (359) 
nan

>  <Standardized_SMILES>  (359) 
O=S(=O)(Nc1nc(-c2ccc(F)cc2)c(-c2ccnc(Nc3ccc(N4CCNCC4)cc3)n2)s1)C1CCNCC1

>  <Name>  (359) 
nan

>  <Pocket>  (359) 
nan

>  <ATP_Site>  (359) 
nan

>  <Peripheral>  (359) 
nan

>  <Num_H_Atoms_ProtBoundConf>  (359) 
nan

>  <Num_Resolved_Atoms>  (359) 
nan

>  <Num_Not_Resolved_Atoms>  (359) 
nan

$$$$
CHEMBL4643188
     RDKit          3D

  0  0  0  0  0  0  0  0  0  0999 V3000
M  V30 BEGIN CTAB
M  V30 COUNTS 66 69 0 0 0
M  V30 BEGIN ATOM
M  V30 1 C 3.389131 -3.239779 5.692344 0
M  V30 2 C 2.547146 -3.140199 4.423701 0
M  V30 3 N 2.846214 -1.938248 3.709286 0
M  V30 4 C 2.116106 -1.724850 2.514663 0
M  V30 5 O 1.415050 -2.764257 2.534767 0
M  V30 6 C 2.335442 -0.543809 1.707351 0
M  V30 7 C 3.286323 0.349331 2.084168 0
M  V30 8 N 3.527233 1.441760 1.362665 0
M  V30 9 C 2.855964 1.733220 0.225649 0
M  V30 10 C 3.205310 2.887356 -0.426468 0
M  V30 11 C 2.522612 3.177010 -1.591859 0
M  V30 12 C 1.531358 2.305980 -2.047154 0
M  V30 13 C 0.861833 2.650956 -3.289328 0
M  V30 14 C 1.161680 3.804320 -3.980965 0
M  V30 15 C 0.567921 4.157468 -5.156038 0
M  V30 16 N -0.377852 3.365621 -5.722052 0
M  V30 17 C -0.697879 2.220555 -5.067754 0
M  V30 18 N -1.700758 1.449036 -5.774130 0
M  V30 19 C -0.098011 1.863201 -3.878590 0
M  V30 20 N 1.277896 1.210451 -1.324523 0
M  V30 21 C 1.884886 0.852544 -0.189826 0
M  V30 22 C 1.628405 -0.276149 0.546684 0
M  V30 23 N 0.614055 -1.165817 0.073255 0
M  V30 24 C -0.384127 -1.382352 -0.916444 0 CFG=1
M  V30 25 C -1.050366 -2.768439 -0.827570 0
M  V30 26 C -2.154753 -2.811720 0.171209 0
M  V30 27 C -2.217114 -1.694900 1.147779 0 CFG=2
M  V30 28 C -3.468663 -1.884419 1.995791 0
M  V30 29 N -3.480355 -3.104287 2.725269 0
M  V30 30 C -2.530525 -3.216851 3.781030 0
M  V30 31 C -4.804175 -3.320984 3.266511 0
M  V30 32 C -2.252724 -0.378158 0.456279 0
M  V30 33 C -1.550774 -0.416822 -0.880817 0
M  V30 34 H 2.830406 -3.763560 6.491569 0
M  V30 35 H 4.373922 -3.687492 5.506810 0
M  V30 36 H 3.567300 -2.201432 6.090197 0
M  V30 37 H 1.489513 -3.143070 4.714855 0
M  V30 38 H 2.714891 -4.059858 3.832801 0
M  V30 39 H 3.587828 -1.284479 4.112906 0
M  V30 40 H 3.904918 0.271239 2.954737 0
M  V30 41 H 3.985064 3.518618 -0.020513 0
M  V30 42 H 2.861956 4.109779 -2.043059 0
M  V30 43 H 1.875176 4.521040 -3.663155 0
M  V30 44 H 0.790315 5.059581 -5.714377 0
M  V30 45 H -2.309143 0.881929 -5.117077 0
M  V30 46 H -1.764830 1.486689 -6.800008 0
M  V30 47 H -0.410144 0.951216 -3.443662 0
M  V30 48 H 0.558257 -2.028053 0.650657 0
M  V30 49 H 0.064618 -1.286397 -1.926755 0
M  V30 50 H -0.247449 -3.531921 -0.600447 0
M  V30 51 H -1.386356 -3.000826 -1.858262 0
M  V30 52 H -2.126402 -3.817529 0.638471 0
M  V30 53 H -3.144285 -2.804194 -0.374957 0
M  V30 54 H -1.394395 -1.681885 1.886418 0
M  V30 55 H -3.613368 -0.960948 2.600819 0
M  V30 56 H -4.304792 -1.914280 1.262488 0
M  V30 57 H -2.422955 -2.271829 4.380285 0
M  V30 58 H -1.540706 -3.605039 3.497495 0
M  V30 59 H -2.947102 -3.946972 4.521135 0
M  V30 60 H -4.860849 -4.345394 3.733515 0
M  V30 61 H -5.025092 -2.635791 4.129286 0
M  V30 62 H -5.622833 -3.158000 2.538671 0
M  V30 63 H -3.296510 -0.013891 0.352893 0
M  V30 64 H -1.766444 0.382465 1.129176 0
M  V30 65 H -2.309317 -0.879406 -1.585853 0
M  V30 66 H -1.360898 0.568618 -1.304701 0
M  V30 END ATOM
M  V30 BEGIN BOND
M  V30 1 1 1 2
M  V30 2 1 2 3
M  V30 3 1 3 4
M  V30 4 2 4 5
M  V30 5 1 4 6
M  V30 6 2 6 7
M  V30 7 1 7 8
M  V30 8 2 8 9
M  V30 9 1 9 10
M  V30 10 2 10 11
M  V30 11 1 11 12
M  V30 12 1 12 13
M  V30 13 2 13 14
M  V30 14 1 14 15
M  V30 15 2 15 16
M  V30 16 1 16 17
M  V30 17 1 17 18
M  V30 18 2 17 19
M  V30 19 2 12 20
M  V30 20 1 20 21
M  V30 21 2 21 22
M  V30 22 1 22 23
M  V30 23 1 23 24
M  V30 24 1 24 25
M  V30 25 1 25 26
M  V30 26 1 26 27
M  V30 27 1 27 28
M  V30 28 1 28 29
M  V30 29 1 29 30
M  V30 30 1 29 31
M  V30 31 1 27 32
M  V30 32 1 32 33
M  V30 33 1 22 6
M  V30 34 1 33 24
M  V30 35 1 21 9
M  V30 36 1 19 13
M  V30 37 1 1 34
M  V30 38 1 1 35
M  V30 39 1 1 36
M  V30 40 1 2 37
M  V30 41 1 2 38
M  V30 42 1 3 39
M  V30 43 1 7 40
M  V30 44 1 10 41
M  V30 45 1 11 42
M  V30 46 1 14 43
M  V30 47 1 15 44
M  V30 48 1 18 45
M  V30 49 1 18 46
M  V30 50 1 19 47
M  V30 51 1 23 48
M  V30 52 1 24 49 CFG=3
M  V30 53 1 25 50
M  V30 54 1 25 51
M  V30 55 1 26 52
M  V30 56 1 26 53
M  V30 57 1 27 54 CFG=1
M  V30 58 1 28 55
M  V30 59 1 28 56
M  V30 60 1 30 57
M  V30 61 1 30 58
M  V30 62 1 30 59
M  V30 63 1 31 60
M  V30 64 1 31 61
M  V30 65 1 31 62
M  V30 66 1 32 63
M  V30 67 1 32 64
M  V30 68 1 33 65
M  V30 69 1 33 66
M  V30 END BOND
M  V30 END CTAB
M  END
>  <Dataset>  (360) 
ChEMBL_Kinases

>  <Ligand_Instance>  (360) 
nan

>  <PDB_ID>  (360) 
nan

>  <Standardized_SMILES>  (360) 
CCNC(=O)c1cnc2ccc(-c3ccnc(N)c3)nc2c1N[C@H]1CC[C@H](CN(C)C)CC1

>  <Name>  (360) 
nan

>  <Pocket>  (360) 
nan

>  <ATP_Site>  (360) 
nan

>  <Peripheral>  (360) 
nan

>  <Num_H_Atoms_ProtBoundConf>  (360) 
nan

>  <Num_Resolved_Atoms>  (360) 
nan

>  <Num_Not_Resolved_Atoms>  (360) 
nan

$$$$
CHEMBL4532014
     RDKit          3D

  0  0  0  0  0  0  0  0  0  0999 V3000
M  V30 BEGIN CTAB
M  V30 COUNTS 75 79 0 0 0
M  V30 BEGIN ATOM
M  V30 1 C 7.079020 -1.676308 6.850909 0
M  V30 2 O 7.136120 -0.488600 6.080228 0
M  V30 3 C 6.330379 -0.268403 4.986236 0
M  V30 4 C 5.430474 -1.219723 4.608879 0
M  V30 5 C 4.671831 -0.911369 3.506028 0
M  V30 6 C 4.758019 0.259270 2.779367 0
M  V30 7 C 3.928161 0.527812 1.621551 0
M  V30 8 C 2.642263 0.038318 1.514998 0
M  V30 9 C 1.804902 0.268325 0.419766 0
M  V30 10 C 2.343458 1.047258 -0.609314 0
M  V30 11 C 1.542412 1.350215 -1.800604 0
M  V30 12 N 0.273508 0.957554 -2.011978 0
M  V30 13 C -0.173313 1.399286 -3.188158 0
M  V30 14 C -1.350203 1.307739 -3.896083 0
M  V30 15 N -2.370729 0.569553 -3.243355 0
M  V30 16 N -2.165334 -0.017259 -2.030002 0
M  V30 17 C -2.277221 -1.406425 -1.896406 0
M  V30 18 C -3.668836 -1.880532 -2.249873 0
M  V30 19 C -3.813838 -3.395391 -2.091981 0
M  V30 20 N -3.553377 -3.828519 -0.736981 0
M  V30 21 C -4.286260 -3.384946 0.393730 0
M  V30 22 O -5.228444 -2.554688 0.208014 0
M  V30 23 C -3.954284 -3.879555 1.727942 0
M  V30 24 C -4.819317 -3.332812 2.817023 0
M  V30 25 C -4.451052 -1.963228 3.269605 0
M  V30 26 C -3.248600 -1.371407 2.578697 0
M  V30 27 C -2.104290 -2.334305 2.463157 0
M  V30 28 C -2.518698 -3.726264 2.102972 0
M  V30 29 C -1.583558 1.866692 -5.132454 0
M  V30 30 C -2.828737 1.763137 -5.872021 0
M  V30 31 N -2.883319 2.413091 -7.133019 0
M  V30 32 O -3.792742 1.122102 -5.390849 0
M  V30 33 C -0.479900 2.554267 -5.609194 0
M  V30 34 N 0.686816 2.674930 -4.962734 0
M  V30 35 C 0.869337 2.112371 -3.758048 0
M  V30 36 N 1.900709 2.062158 -2.884343 0
M  V30 37 C 3.621015 1.557668 -0.549113 0
M  V30 38 C 4.385862 1.283618 0.571548 0
M  V30 39 C 5.701712 1.173842 3.234094 0
M  V30 40 C 6.525467 0.960800 4.345479 0
M  V30 41 H 7.416633 -2.522790 6.187511 0
M  V30 42 H 6.032347 -1.913909 7.140818 0
M  V30 43 H 7.769148 -1.613309 7.715067 0
M  V30 44 H 5.330413 -2.149466 5.151526 0
M  V30 45 H 3.927786 -1.615063 3.134998 0
M  V30 46 H 2.199449 -0.570283 2.302457 0
M  V30 47 H 0.811362 -0.124778 0.363607 0
M  V30 48 H -3.349312 0.248731 -3.314021 0
M  V30 49 H -1.945232 0.582150 -1.249602 0
M  V30 50 H -2.082959 -1.686469 -0.826147 0
M  V30 51 H -1.543668 -1.971851 -2.542621 0
M  V30 52 H -3.806630 -1.698341 -3.347525 0
M  V30 53 H -4.386013 -1.313828 -1.647760 0
M  V30 54 H -3.099192 -3.884582 -2.780741 0
M  V30 55 H -4.823558 -3.721580 -2.340204 0
M  V30 56 H -2.770964 -4.522754 -0.550778 0
M  V30 57 H -4.154980 -4.991419 1.709458 0
M  V30 58 H -4.696378 -4.046637 3.684009 0
M  V30 59 H -5.904599 -3.396099 2.580511 0
M  V30 60 H -5.305984 -1.271883 3.010671 0
M  V30 61 H -4.382125 -1.933560 4.359642 0
M  V30 62 H -2.908912 -0.517047 3.206291 0
M  V30 63 H -3.489707 -0.933489 1.590475 0
M  V30 64 H -1.433643 -1.969520 1.655232 0
M  V30 65 H -1.468097 -2.279657 3.389107 0
M  V30 66 H -2.321780 -4.378022 2.982162 0
M  V30 67 H -1.904095 -4.158992 1.269021 0
M  V30 68 H -3.720761 2.225225 -7.709441 0
M  V30 69 H -3.740982 2.224014 -7.729481 0
M  V30 70 H -0.521488 3.048959 -6.579434 0
M  V30 71 H 2.826700 2.507024 -3.030344 0
M  V30 72 H 4.065987 2.159694 -1.321186 0
M  V30 73 H 5.396321 1.683334 0.625761 0
M  V30 74 H 5.807971 2.113569 2.694363 0
M  V30 75 H 7.253648 1.681237 4.683731 0
M  V30 END ATOM
M  V30 BEGIN BOND
M  V30 1 1 1 2
M  V30 2 1 2 3
M  V30 3 2 3 4
M  V30 4 1 4 5
M  V30 5 2 5 6
M  V30 6 1 6 7
M  V30 7 2 7 8
M  V30 8 1 8 9
M  V30 9 2 9 10
M  V30 10 1 10 11
M  V30 11 2 11 12
M  V30 12 1 12 13
M  V30 13 2 13 14
M  V30 14 1 14 15
M  V30 15 1 15 16
M  V30 16 1 16 17
M  V30 17 1 17 18
M  V30 18 1 18 19
M  V30 19 1 19 20
M  V30 20 1 20 21
M  V30 21 2 21 22
M  V30 22 1 21 23
M  V30 23 1 23 24
M  V30 24 1 24 25
M  V30 25 1 25 26
M  V30 26 1 26 27
M  V30 27 1 27 28
M  V30 28 1 14 29
M  V30 29 1 29 30
M  V30 30 1 30 31
M  V30 31 2 30 32
M  V30 32 2 29 33
M  V30 33 1 33 34
M  V30 34 2 34 35
M  V30 35 1 35 36
M  V30 36 1 10 37
M  V30 37 2 37 38
M  V30 38 1 6 39
M  V30 39 2 39 40
M  V30 40 1 40 3
M  V30 41 1 38 7
M  V30 42 1 36 11
M  V30 43 1 35 13
M  V30 44 1 28 23
M  V30 45 1 1 41
M  V30 46 1 1 42
M  V30 47 1 1 43
M  V30 48 1 4 44
M  V30 49 1 5 45
M  V30 50 1 8 46
M  V30 51 1 9 47
M  V30 52 1 15 48
M  V30 53 1 16 49
M  V30 54 1 17 50
M  V30 55 1 17 51
M  V30 56 1 18 52
M  V30 57 1 18 53
M  V30 58 1 19 54
M  V30 59 1 19 55
M  V30 60 1 20 56
M  V30 61 1 23 57
M  V30 62 1 24 58
M  V30 63 1 24 59
M  V30 64 1 25 60
M  V30 65 1 25 61
M  V30 66 1 26 62
M  V30 67 1 26 63
M  V30 68 1 27 64
M  V30 69 1 27 65
M  V30 70 1 28 66
M  V30 71 1 28 67
M  V30 72 1 31 68
M  V30 73 1 31 69
M  V30 74 1 33 70
M  V30 75 1 36 71
M  V30 76 1 37 72
M  V30 77 1 38 73
M  V30 78 1 39 74
M  V30 79 1 40 75
M  V30 END BOND
M  V30 END CTAB
M  END
>  <Dataset>  (361) 
ChEMBL_Kinases

>  <Ligand_Instance>  (361) 
nan

>  <PDB_ID>  (361) 
nan

>  <Standardized_SMILES>  (361) 
COc1ccc(-c2ccc(-c3nc4c(NNCCCNC(=O)C5CCCCC5)c(C(N)=O)cnc4[nH]3)cc2)cc1

>  <Name>  (361) 
nan

>  <Pocket>  (361) 
nan

>  <ATP_Site>  (361) 
nan

>  <Peripheral>  (361) 
nan

>  <Num_H_Atoms_ProtBoundConf>  (361) 
nan

>  <Num_Resolved_Atoms>  (361) 
nan

>  <Num_Not_Resolved_Atoms>  (361) 
nan

$$$$
CHEMBL4531954
     RDKit          3D

  0  0  0  0  0  0  0  0  0  0999 V3000
M  V30 BEGIN CTAB
M  V30 COUNTS 37 40 0 0 0
M  V30 BEGIN ATOM
M  V30 1 C 4.497693 1.194388 1.791487 0
M  V30 2 C 4.252516 -0.262223 1.626343 0
M  V30 3 C 4.860928 -1.085873 2.552822 0
M  V30 4 Cl 5.858385 -0.432881 3.838534 0
M  V30 5 C 4.700189 -2.450325 2.492220 0
M  V30 6 C 3.914072 -2.957999 1.478119 0
M  V30 7 C 3.294908 -2.160925 0.540056 0
M  V30 8 C 3.460730 -0.783216 0.606055 0
M  V30 9 N 2.857083 0.140858 -0.325600 0
M  V30 10 C 1.754932 0.648616 0.047990 0
M  V30 11 N 0.908758 1.582134 -0.621538 0
M  V30 12 C -0.495857 1.465213 -0.322497 0
M  V30 13 O -1.410120 2.180527 -0.782805 0
M  V30 14 C -0.811404 0.407785 0.609204 0
M  V30 15 C -1.768548 -0.443886 0.802637 0
M  V30 16 C -1.910230 -1.451538 1.837995 0
M  V30 17 O -1.064878 -1.578235 2.735067 0
M  V30 18 N -3.119580 -2.138324 1.554991 0
M  V30 19 C -3.658370 -1.524577 0.365494 0
M  V30 20 C -4.831319 -1.959544 -0.213322 0
M  V30 21 C -5.253468 -1.334409 -1.359377 0
M  V30 22 C -4.482121 -0.292332 -1.887226 0
M  V30 23 Br -5.161991 0.505296 -3.485463 0
M  V30 24 C -3.332866 0.055261 -1.224549 0
M  V30 25 C -2.865772 -0.519843 -0.091101 0
M  V30 26 S 0.744077 0.447993 1.565219 0
M  V30 27 H 3.621815 1.709456 1.360937 0
M  V30 28 H 5.436673 1.464903 1.279549 0
M  V30 29 H 4.637308 1.435313 2.868153 0
M  V30 30 H 5.187397 -3.078225 3.230452 0
M  V30 31 H 3.791059 -4.033191 1.435350 0
M  V30 32 H 2.682437 -2.528116 -0.253351 0
M  V30 33 H 1.255986 2.326947 -1.307972 0
M  V30 34 H -3.458499 -2.919562 2.156437 0
M  V30 35 H -5.454091 -2.757901 0.161404 0
M  V30 36 H -6.168673 -1.651777 -1.836180 0
M  V30 37 H -2.871513 0.823786 -1.782565 0
M  V30 END ATOM
M  V30 BEGIN BOND
M  V30 1 1 1 2
M  V30 2 2 2 3
M  V30 3 1 3 4
M  V30 4 1 3 5
M  V30 5 2 5 6
M  V30 6 1 6 7
M  V30 7 2 7 8
M  V30 8 1 8 9
M  V30 9 2 9 10
M  V30 10 1 10 11
M  V30 11 1 11 12
M  V30 12 2 12 13
M  V30 13 1 12 14
M  V30 14 2 14 15
M  V30 15 1 15 16
M  V30 16 2 16 17
M  V30 17 1 16 18
M  V30 18 1 18 19
M  V30 19 2 19 20
M  V30 20 1 20 21
M  V30 21 2 21 22
M  V30 22 1 22 23
M  V30 23 1 22 24
M  V30 24 2 24 25
M  V30 25 1 14 26
M  V30 26 1 8 2
M  V30 27 1 26 10
M  V30 28 1 25 15
M  V30 29 1 25 19
M  V30 30 1 1 27
M  V30 31 1 1 28
M  V30 32 1 1 29
M  V30 33 1 5 30
M  V30 34 1 6 31
M  V30 35 1 7 32
M  V30 36 1 11 33
M  V30 37 1 18 34
M  V30 38 1 20 35
M  V30 39 1 21 36
M  V30 40 1 24 37
M  V30 END BOND
M  V30 END CTAB
M  END
>  <Dataset>  (362) 
ChEMBL_Kinases

>  <Ligand_Instance>  (362) 
nan

>  <PDB_ID>  (362) 
nan

>  <Standardized_SMILES>  (362) 
Cc1c(Cl)cccc1/N=C1/NC(=O)/C(=C2/C(=O)Nc3ccc(Br)cc32)S1

>  <Name>  (362) 
nan

>  <Pocket>  (362) 
nan

>  <ATP_Site>  (362) 
nan

>  <Peripheral>  (362) 
nan

>  <Num_H_Atoms_ProtBoundConf>  (362) 
nan

>  <Num_Resolved_Atoms>  (362) 
nan

>  <Num_Not_Resolved_Atoms>  (362) 
nan

$$$$
CHEMBL4643265
     RDKit          3D

  0  0  0  0  0  0  0  0  0  0999 V3000
M  V30 BEGIN CTAB
M  V30 COUNTS 63 66 0 0 0
M  V30 BEGIN ATOM
M  V30 1 C 1.610156 -0.378857 6.255983 0
M  V30 2 O 2.007291 -1.719189 6.182071 0
M  V30 3 C 2.291342 -2.370339 4.990349 0
M  V30 4 C 2.177201 -1.660575 3.816961 0
M  V30 5 C 2.448783 -2.265027 2.608113 0
M  V30 6 C 2.391751 -1.717978 1.257463 0
M  V30 7 C 3.481675 -1.968717 0.414978 0
M  V30 8 N 3.573484 -1.524640 -0.866389 0
M  V30 9 C 2.572000 -0.787245 -1.411704 0
M  V30 10 C 1.479189 -0.530495 -0.580919 0
M  V30 11 C 0.433574 0.262788 -1.221491 0
M  V30 12 C -0.247072 1.354968 -0.719946 0
M  V30 13 C -1.218375 1.994424 -1.459466 0
M  V30 14 C -1.557834 1.580991 -2.726916 0
M  V30 15 N -2.563364 2.265423 -3.455036 0
M  V30 16 C -3.322166 3.456173 -3.142184 0
M  V30 17 C -4.734647 3.152123 -2.756048 0
M  V30 18 N -5.163862 1.964465 -3.461997 0
M  V30 19 C -6.606425 1.958428 -3.595376 0
M  V30 20 C -4.594650 2.031343 -4.796205 0
M  V30 21 C -3.085610 1.887327 -4.752429 0
M  V30 22 C -0.931577 0.501960 -3.306933 0
M  V30 23 C 0.047843 -0.114981 -2.516651 0
M  V30 24 C 1.377705 -0.975931 0.717413 0
M  V30 25 C 0.212748 -0.687346 1.549191 0
M  V30 26 C 2.836779 -3.602685 2.632432 0
M  V30 27 C 2.954604 -4.321719 3.794676 0
M  V30 28 O 3.329030 -5.646982 3.941142 0
M  V30 29 C 3.661891 -6.515551 2.902237 0
M  V30 30 C 2.675563 -3.694019 5.010888 0
M  V30 31 O 2.767019 -4.343485 6.247781 0
M  V30 32 C 1.630446 -5.010110 6.763751 0
M  V30 33 H 2.471212 0.305991 6.197787 0
M  V30 34 H 1.034069 -0.239627 7.210430 0
M  V30 35 H 0.892397 -0.113440 5.445454 0
M  V30 36 H 1.886247 -0.629183 3.724322 0
M  V30 37 H 4.335049 -2.554575 0.768177 0
M  V30 38 H 2.639379 -0.431769 -2.429878 0
M  V30 39 H 0.046311 1.648972 0.269212 0
M  V30 40 H -1.666278 2.829440 -0.942332 0
M  V30 41 H -2.815628 3.881552 -2.222560 0
M  V30 42 H -3.256022 4.246564 -3.924673 0
M  V30 43 H -4.792981 3.007152 -1.660124 0
M  V30 44 H -5.409133 4.021535 -2.987658 0
M  V30 45 H -6.900371 1.053508 -4.191983 0
M  V30 46 H -7.119719 1.992465 -2.614880 0
M  V30 47 H -6.888520 2.875401 -4.168192 0
M  V30 48 H -5.075020 1.258834 -5.430611 0
M  V30 49 H -4.859511 3.016693 -5.228718 0
M  V30 50 H -2.889354 0.811598 -4.917319 0
M  V30 51 H -2.582902 2.450303 -5.553939 0
M  V30 52 H -1.119435 0.106179 -4.277288 0
M  V30 53 H 0.554066 -0.974122 -2.964636 0
M  V30 54 H 0.310799 0.213094 2.148945 0
M  V30 55 H -0.710615 -0.563835 0.911015 0
M  V30 56 H -0.057820 -1.592014 2.170076 0
M  V30 57 H 3.073665 -4.177363 1.750277 0
M  V30 58 H 2.899965 -7.318523 2.764924 0
M  V30 59 H 4.593287 -7.070096 3.179695 0
M  V30 60 H 3.848952 -6.044444 1.923541 0
M  V30 61 H 1.930745 -5.609682 7.644525 0
M  V30 62 H 0.911514 -4.258525 7.108746 0
M  V30 63 H 1.125697 -5.649193 6.002220 0
M  V30 END ATOM
M  V30 BEGIN BOND
M  V30 1 1 1 2
M  V30 2 1 2 3
M  V30 3 2 3 4
M  V30 4 1 4 5
M  V30 5 1 5 6
M  V30 6 2 6 7
M  V30 7 1 7 8
M  V30 8 2 8 9
M  V30 9 1 9 10
M  V30 10 1 10 11
M  V30 11 2 11 12
M  V30 12 1 12 13
M  V30 13 2 13 14
M  V30 14 1 14 15
M  V30 15 1 15 16
M  V30 16 1 16 17
M  V30 17 1 17 18
M  V30 18 1 18 19
M  V30 19 1 18 20
M  V30 20 1 20 21
M  V30 21 1 14 22
M  V30 22 2 22 23
M  V30 23 2 10 24
M  V30 24 1 24 25
M  V30 25 2 5 26
M  V30 26 1 26 27
M  V30 27 1 27 28
M  V30 28 1 28 29
M  V30 29 2 27 30
M  V30 30 1 30 31
M  V30 31 1 31 32
M  V30 32 1 30 3
M  V30 33 1 24 6
M  V30 34 1 23 11
M  V30 35 1 21 15
M  V30 36 1 1 33
M  V30 37 1 1 34
M  V30 38 1 1 35
M  V30 39 1 4 36
M  V30 40 1 7 37
M  V30 41 1 9 38
M  V30 42 1 12 39
M  V30 43 1 13 40
M  V30 44 1 16 41
M  V30 45 1 16 42
M  V30 46 1 17 43
M  V30 47 1 17 44
M  V30 48 1 19 45
M  V30 49 1 19 46
M  V30 50 1 19 47
M  V30 51 1 20 48
M  V30 52 1 20 49
M  V30 53 1 21 50
M  V30 54 1 21 51
M  V30 55 1 22 52
M  V30 56 1 23 53
M  V30 57 1 25 54
M  V30 58 1 25 55
M  V30 59 1 25 56
M  V30 60 1 26 57
M  V30 61 1 29 58
M  V30 62 1 29 59
M  V30 63 1 29 60
M  V30 64 1 32 61
M  V30 65 1 32 62
M  V30 66 1 32 63
M  V30 END BOND
M  V30 END CTAB
M  END
>  <Dataset>  (363) 
ChEMBL_Kinases

>  <Ligand_Instance>  (363) 
nan

>  <PDB_ID>  (363) 
nan

>  <Standardized_SMILES>  (363) 
COc1cc(-c2cncc(-c3ccc(N4CCN(C)CC4)cc3)c2C)cc(OC)c1OC

>  <Name>  (363) 
nan

>  <Pocket>  (363) 
nan

>  <ATP_Site>  (363) 
nan

>  <Peripheral>  (363) 
nan

>  <Num_H_Atoms_ProtBoundConf>  (363) 
nan

>  <Num_Resolved_Atoms>  (363) 
nan

>  <Num_Not_Resolved_Atoms>  (363) 
nan

$$$$
CHEMBL4517341
     RDKit          3D

  0  0  0  0  0  0  0  0  0  0999 V3000
M  V30 BEGIN CTAB
M  V30 COUNTS 33 35 0 0 0
M  V30 BEGIN ATOM
M  V30 1 N 3.440898 -0.089719 2.917789 0
M  V30 2 C 2.355270 -0.078643 2.453550 0
M  V30 3 C 1.020656 -0.064475 1.855130 0
M  V30 4 C 0.298133 -1.233806 1.789637 0
M  V30 5 N 0.679784 -2.524990 2.261368 0
M  V30 6 C 1.554138 -2.993382 1.242979 0
M  V30 7 C 2.840792 -3.256334 1.729937 0
M  V30 8 C 3.772192 -3.703431 0.822378 0
M  V30 9 C 3.442677 -3.878011 -0.490050 0
M  V30 10 C 2.180742 -3.634218 -1.034064 0
M  V30 11 C 1.295286 -3.191517 -0.085398 0
M  V30 12 F 0.019238 -2.911930 -0.463943 0
M  V30 13 S -1.229170 -0.759173 0.997682 0
M  V30 14 C -0.783910 0.989046 0.810543 0
M  V30 15 C -1.631079 1.981180 0.203700 0
M  V30 16 O -1.225793 3.137918 0.104097 0
M  V30 17 C -2.942391 1.588595 -0.274264 0
M  V30 18 C -3.837674 2.483099 -0.924524 0
M  V30 19 C -5.023278 1.904317 -1.285311 0
M  V30 20 C -5.293402 0.525611 -1.014169 0
M  V30 21 Cl -6.645525 -0.450422 -1.342633 0
M  V30 22 S -3.687416 -0.006933 -0.152133 0
M  V30 23 C 0.454844 1.081928 1.346606 0
M  V30 24 N 1.087938 2.361485 1.345227 0
M  V30 25 H 0.365597 -2.975126 3.146209 0
M  V30 26 H 3.158273 -3.137879 2.754192 0
M  V30 27 H 4.793266 -3.919434 1.167527 0
M  V30 28 H 4.228626 -4.235071 -1.159006 0
M  V30 29 H 1.913702 -3.764797 -2.052575 0
M  V30 30 H -3.597947 3.509735 -1.110761 0
M  V30 31 H -5.824905 2.425375 -1.786288 0
M  V30 32 H 0.846106 3.183242 1.907641 0
M  V30 33 H 1.915310 2.655690 0.754036 0
M  V30 END ATOM
M  V30 BEGIN BOND
M  V30 1 3 1 2
M  V30 2 1 2 3
M  V30 3 2 3 4
M  V30 4 1 4 5
M  V30 5 1 5 6
M  V30 6 2 6 7
M  V30 7 1 7 8
M  V30 8 2 8 9
M  V30 9 1 9 10
M  V30 10 2 10 11
M  V30 11 1 11 12
M  V30 12 1 4 13
M  V30 13 1 13 14
M  V30 14 1 14 15
M  V30 15 2 15 16
M  V30 16 1 15 17
M  V30 17 2 17 18
M  V30 18 1 18 19
M  V30 19 2 19 20
M  V30 20 1 20 21
M  V30 21 1 20 22
M  V30 22 2 14 23
M  V30 23 1 23 24
M  V30 24 1 23 3
M  V30 25 1 11 6
M  V30 26 1 22 17
M  V30 27 1 5 25
M  V30 28 1 7 26
M  V30 29 1 8 27
M  V30 30 1 9 28
M  V30 31 1 10 29
M  V30 32 1 18 30
M  V30 33 1 19 31
M  V30 34 1 24 32
M  V30 35 1 24 33
M  V30 END BOND
M  V30 END CTAB
M  END
>  <Dataset>  (364) 
ChEMBL_Kinases

>  <Ligand_Instance>  (364) 
nan

>  <PDB_ID>  (364) 
nan

>  <Standardized_SMILES>  (364) 
N#Cc1c(Nc2ccccc2F)sc(C(=O)c2ccc(Cl)s2)c1N

>  <Name>  (364) 
nan

>  <Pocket>  (364) 
nan

>  <ATP_Site>  (364) 
nan

>  <Peripheral>  (364) 
nan

>  <Num_H_Atoms_ProtBoundConf>  (364) 
nan

>  <Num_Resolved_Atoms>  (364) 
nan

>  <Num_Not_Resolved_Atoms>  (364) 
nan

$$$$
CHEMBL4531775
     RDKit          3D

  0  0  0  0  0  0  0  0  0  0999 V3000
M  V30 BEGIN CTAB
M  V30 COUNTS 68 71 0 0 0
M  V30 BEGIN ATOM
M  V30 1 O 5.029178 -1.230546 0.533716 0
M  V30 2 C 3.767627 -1.155599 0.522693 0
M  V30 3 N 3.154761 0.141548 0.371588 0
M  V30 4 C 3.895709 1.365352 0.210742 0
M  V30 5 C 4.705917 1.400107 -1.039510 0
M  V30 6 C 4.005416 1.255378 -2.326339 0
M  V30 7 C 3.003581 2.193766 -2.823875 0
M  V30 8 C 1.732193 2.432718 -2.131173 0
M  V30 9 C 0.718487 1.317121 -2.303166 0
M  V30 10 C 0.955447 0.446336 -3.490190 0
M  V30 11 C 1.554446 1.212749 -4.645411 0
M  V30 12 C 2.804576 1.950202 -4.326091 0
M  V30 13 C 2.837007 -2.288310 0.656333 0
M  V30 14 C 1.644457 -2.202074 -0.078256 0
M  V30 15 C 0.644297 -3.144466 -0.040983 0
M  V30 16 C 0.775475 -4.258828 0.752779 0
M  V30 17 C -0.277667 -5.296977 0.848324 0
M  V30 18 N -1.284762 -4.958510 1.873019 0
M  V30 19 C -2.316612 -4.041621 1.540407 0
M  V30 20 O -2.508268 -3.458679 0.421785 0
M  V30 21 C -3.425482 -3.485487 2.298231 0
M  V30 22 C -4.580021 -4.106696 2.807012 0
M  V30 23 N -5.323802 -3.181487 3.435328 0
M  V30 24 N -4.775725 -1.983399 3.397316 0
M  V30 25 C -5.162194 -0.706354 3.893820 0
M  V30 26 C -5.977144 0.049613 3.061931 0
M  V30 27 C -6.412975 1.329000 3.428611 0
M  V30 28 C -6.029360 1.868889 4.651907 0
M  V30 29 C -5.219489 1.121700 5.484285 0
M  V30 30 C -4.800050 -0.129673 5.111988 0
M  V30 31 C -3.643042 -2.169951 2.717933 0
M  V30 32 C -2.647621 -1.108186 2.411810 0
M  V30 33 F -1.414266 -1.396398 2.974297 0
M  V30 34 F -2.399355 -0.974862 1.060213 0
M  V30 35 F -3.026114 0.104014 2.983156 0
M  V30 36 C 1.946822 -4.340242 1.470728 0
M  V30 37 C 2.969784 -3.421707 1.459773 0
M  V30 38 H 2.128994 0.249411 0.379458 0
M  V30 39 H 4.653152 1.373818 1.115428 0
M  V30 40 H 3.319882 2.254130 0.363092 0
M  V30 41 H 5.487418 0.563073 -0.906516 0
M  V30 42 H 5.371309 2.327887 -1.040235 0
M  V30 43 H 4.842325 1.125835 -3.101683 0
M  V30 44 H 3.532948 0.203795 -2.388330 0
M  V30 45 H 3.526201 3.247614 -2.818017 0
M  V30 46 H 1.834415 2.644089 -1.074121 0
M  V30 47 H 1.281066 3.392803 -2.600463 0
M  V30 48 H -0.300710 1.817152 -2.397999 0
M  V30 49 H 0.636618 0.704209 -1.392555 0
M  V30 50 H -0.066476 0.120830 -3.872097 0
M  V30 51 H 1.467639 -0.504689 -3.285903 0
M  V30 52 H 1.733397 0.481230 -5.471943 0
M  V30 53 H 0.753950 1.924579 -4.975990 0
M  V30 54 H 3.711759 1.474055 -4.716180 0
M  V30 55 H 2.744152 2.963018 -4.822871 0
M  V30 56 H 1.522970 -1.338632 -0.713982 0
M  V30 57 H -0.198285 -2.938753 -0.673080 0
M  V30 58 H -0.825077 -5.437019 -0.121540 0
M  V30 59 H 0.178856 -6.241668 1.141231 0
M  V30 60 H -1.465201 -5.232841 2.862277 0
M  V30 61 H -4.809069 -5.176701 2.694673 0
M  V30 62 H -6.344837 -0.262328 2.076961 0
M  V30 63 H -7.042255 1.975334 2.835651 0
M  V30 64 H -6.340057 2.845385 4.970001 0
M  V30 65 H -4.909465 1.530154 6.442956 0
M  V30 66 H -4.166117 -0.749509 5.730468 0
M  V30 67 H 2.106041 -5.206959 2.115479 0
M  V30 68 H 3.896002 -3.458609 2.005866 0
M  V30 END ATOM
M  V30 BEGIN BOND
M  V30 1 2 1 2
M  V30 2 1 2 3
M  V30 3 1 3 4
M  V30 4 1 4 5
M  V30 5 1 5 6
M  V30 6 1 6 7
M  V30 7 1 7 8
M  V30 8 1 8 9
M  V30 9 1 9 10
M  V30 10 1 10 11
M  V30 11 1 11 12
M  V30 12 1 2 13
M  V30 13 2 13 14
M  V30 14 1 14 15
M  V30 15 2 15 16
M  V30 16 1 16 17
M  V30 17 1 17 18
M  V30 18 1 18 19
M  V30 19 2 19 20
M  V30 20 1 19 21
M  V30 21 1 21 22
M  V30 22 2 22 23
M  V30 23 1 23 24
M  V30 24 1 24 25
M  V30 25 2 25 26
M  V30 26 1 26 27
M  V30 27 2 27 28
M  V30 28 1 28 29
M  V30 29 2 29 30
M  V30 30 1 24 31
M  V30 31 1 31 32
M  V30 32 1 32 33
M  V30 33 1 32 34
M  V30 34 1 32 35
M  V30 35 1 16 36
M  V30 36 2 36 37
M  V30 37 1 12 7
M  V30 38 1 37 13
M  V30 39 2 31 21
M  V30 40 1 30 25
M  V30 41 1 3 38
M  V30 42 1 4 39
M  V30 43 1 4 40
M  V30 44 1 5 41
M  V30 45 1 5 42
M  V30 46 1 6 43
M  V30 47 1 6 44
M  V30 48 1 7 45
M  V30 49 1 8 46
M  V30 50 1 8 47
M  V30 51 1 9 48
M  V30 52 1 9 49
M  V30 53 1 10 50
M  V30 54 1 10 51
M  V30 55 1 11 52
M  V30 56 1 11 53
M  V30 57 1 12 54
M  V30 58 1 12 55
M  V30 59 1 14 56
M  V30 60 1 15 57
M  V30 61 1 17 58
M  V30 62 1 17 59
M  V30 63 1 18 60
M  V30 64 1 22 61
M  V30 65 1 26 62
M  V30 66 1 27 63
M  V30 67 1 28 64
M  V30 68 1 29 65
M  V30 69 1 30 66
M  V30 70 1 36 67
M  V30 71 1 37 68
M  V30 END BOND
M  V30 END CTAB
M  END
>  <Dataset>  (365) 
ChEMBL_Kinases

>  <Ligand_Instance>  (365) 
nan

>  <PDB_ID>  (365) 
nan

>  <Standardized_SMILES>  (365) 
O=C(NCCCC1CCCCC1)c1ccc(CNC(=O)c2cnn(-c3ccccc3)c2C(F)(F)F)cc1

>  <Name>  (365) 
SR-321

>  <Pocket>  (365) 
nan

>  <ATP_Site>  (365) 
nan

>  <Peripheral>  (365) 
nan

>  <Num_H_Atoms_ProtBoundConf>  (365) 
nan

>  <Num_Resolved_Atoms>  (365) 
nan

>  <Num_Not_Resolved_Atoms>  (365) 
nan

$$$$
CHEMBL4531735
     RDKit          3D

  0  0  0  0  0  0  0  0  0  0999 V3000
M  V30 BEGIN CTAB
M  V30 COUNTS 60 63 0 0 0
M  V30 BEGIN ATOM
M  V30 1 C 1.071022 -0.375698 7.229822 0
M  V30 2 C 2.226490 0.016608 6.356207 0
M  V30 3 O 3.191305 -0.767206 6.400847 0
M  V30 4 O 2.231710 1.162708 5.555125 0
M  V30 5 C 3.334311 1.505252 4.743631 0
M  V30 6 C 3.649032 0.445057 3.724093 0
M  V30 7 C 2.514552 0.163642 2.769129 0 CFG=2
M  V30 8 C 2.125488 1.388873 1.985097 0
M  V30 9 C 1.081080 1.073202 0.967430 0 CFG=1
M  V30 10 C 1.560525 1.079793 -0.431363 0
M  V30 11 C 0.981212 1.931014 -1.377658 0
M  V30 12 C 1.375477 1.992329 -2.699343 0
M  V30 13 C 2.407914 1.166324 -3.133490 0
M  V30 14 F 2.841495 1.177052 -4.413336 0
M  V30 15 C 2.996851 0.314832 -2.214064 0
M  V30 16 F 4.005687 -0.502011 -2.609006 0
M  V30 17 C 2.577565 0.282151 -0.908266 0
M  V30 18 C 0.408636 -0.236698 1.327659 0 CFG=2
M  V30 19 N -0.748392 -0.524402 0.529357 0
M  V30 20 C -0.799410 -1.660512 -0.312415 0
M  V30 21 O 0.193892 -2.430281 -0.356958 0
M  V30 22 C -1.983422 -1.932229 -1.113145 0
M  V30 23 C -2.263389 -2.958376 -1.991850 0
M  V30 24 C -3.513312 -2.859284 -2.560562 0
M  V30 25 C -4.062463 -3.776534 -3.504849 0
M  V30 26 C -3.305826 -4.853206 -3.903716 0
M  V30 27 Cl -1.723006 -5.554989 -3.615631 0
M  V30 28 C -3.982747 -5.639054 -4.813715 0
M  V30 29 N -5.189037 -5.023879 -4.975358 0
M  V30 30 N -5.185298 -3.935266 -4.184787 0
M  V30 31 C -6.330274 -3.059470 -4.118911 0
M  V30 32 C -3.940269 -1.711907 -1.956976 0
M  V30 33 Cl -5.427853 -0.850743 -2.102293 0
M  V30 34 O -3.074737 -1.178983 -1.131920 0
M  V30 35 C 0.137572 -0.280913 2.805737 0
M  V30 36 N 1.390729 -0.308595 3.523739 0
M  V30 37 H 0.604660 -1.313540 6.862892 0
M  V30 38 H 0.371578 0.496298 7.214138 0
M  V30 39 H 1.420604 -0.519818 8.272976 0
M  V30 40 H 3.074343 2.433180 4.200958 0
M  V30 41 H 4.258848 1.662530 5.327211 0
M  V30 42 H 4.536934 0.816121 3.149603 0
M  V30 43 H 3.966844 -0.509778 4.174405 0
M  V30 44 H 2.862623 -0.682986 2.142431 0
M  V30 45 H 1.711582 2.113316 2.715475 0
M  V30 46 H 3.007848 1.883572 1.517233 0
M  V30 47 H 0.251395 1.838329 1.021990 0
M  V30 48 H 0.171885 2.588394 -1.067770 0
M  V30 49 H 0.886206 2.674841 -3.386820 0
M  V30 50 H 3.068455 -0.399302 -0.229513 0
M  V30 51 H 1.139333 -1.044627 1.115717 0
M  V30 52 H -1.577184 0.134289 0.578118 0
M  V30 53 H -1.443690 -3.676727 -2.087032 0
M  V30 54 H -3.914815 -6.525775 -5.421878 0
M  V30 55 H -7.186437 -3.519073 -4.727575 0
M  V30 56 H -6.720416 -3.109174 -3.089485 0
M  V30 57 H -6.118558 -2.061355 -4.530582 0
M  V30 58 H -0.430483 0.611883 3.145694 0
M  V30 59 H -0.392894 -1.226444 3.043851 0
M  V30 60 H 1.634904 -1.287719 3.834574 0
M  V30 END ATOM
M  V30 BEGIN BOND
M  V30 1 1 1 2
M  V30 2 2 2 3
M  V30 3 1 2 4
M  V30 4 1 4 5
M  V30 5 1 5 6
M  V30 6 1 6 7
M  V30 7 1 7 8
M  V30 8 1 8 9
M  V30 9 1 9 10
M  V30 10 2 10 11
M  V30 11 1 11 12
M  V30 12 2 12 13
M  V30 13 1 13 14
M  V30 14 1 13 15
M  V30 15 1 15 16
M  V30 16 2 15 17
M  V30 17 1 9 18
M  V30 18 1 18 19
M  V30 19 1 19 20
M  V30 20 2 20 21
M  V30 21 1 20 22
M  V30 22 2 22 23
M  V30 23 1 23 24
M  V30 24 1 24 25
M  V30 25 2 25 26
M  V30 26 1 26 27
M  V30 27 1 26 28
M  V30 28 2 28 29
M  V30 29 1 29 30
M  V30 30 1 30 31
M  V30 31 2 24 32
M  V30 32 1 32 33
M  V30 33 1 32 34
M  V30 34 1 18 35
M  V30 35 1 35 36
M  V30 36 1 36 7
M  V30 37 1 17 10
M  V30 38 1 34 22
M  V30 39 1 30 25
M  V30 40 1 1 37
M  V30 41 1 1 38
M  V30 42 1 1 39
M  V30 43 1 5 40
M  V30 44 1 5 41
M  V30 45 1 6 42
M  V30 46 1 6 43
M  V30 47 1 7 44 CFG=3
M  V30 48 1 8 45
M  V30 49 1 8 46
M  V30 50 1 9 47 CFG=3
M  V30 51 1 11 48
M  V30 52 1 12 49
M  V30 53 1 17 50
M  V30 54 1 18 51 CFG=1
M  V30 55 1 19 52
M  V30 56 1 23 53
M  V30 57 1 28 54
M  V30 58 1 31 55
M  V30 59 1 31 56
M  V30 60 1 31 57
M  V30 61 1 35 58
M  V30 62 1 35 59
M  V30 63 1 36 60
M  V30 END BOND
M  V30 END CTAB
M  END
>  <Dataset>  (366) 
ChEMBL_Kinases

>  <Ligand_Instance>  (366) 
nan

>  <PDB_ID>  (366) 
nan

>  <Standardized_SMILES>  (366) 
CC(=O)OCC[C@@H]1C[C@@H](c2ccc(F)c(F)c2)[C@H](NC(=O)c2cc(-c3c(Cl)cnn3C)c(Cl)o2)CN1

>  <Name>  (366) 
nan

>  <Pocket>  (366) 
nan

>  <ATP_Site>  (366) 
nan

>  <Peripheral>  (366) 
nan

>  <Num_H_Atoms_ProtBoundConf>  (366) 
nan

>  <Num_Resolved_Atoms>  (366) 
nan

>  <Num_Not_Resolved_Atoms>  (366) 
nan

$$$$
CHEMBL4531718
     RDKit          3D

  0  0  0  0  0  0  0  0  0  0999 V3000
M  V30 BEGIN CTAB
M  V30 COUNTS 51 55 0 0 0
M  V30 BEGIN ATOM
M  V30 1 C 3.984374 -3.752762 4.022592 0
M  V30 2 C 2.836116 -2.819726 3.830179 0
M  V30 3 C 1.928965 -2.679235 4.844613 0
M  V30 4 C 0.851086 -1.805492 4.668720 0
M  V30 5 C 0.696388 -1.094027 3.498244 0
M  V30 6 C 1.646251 -1.282889 2.518851 0
M  V30 7 C 1.635375 -0.600136 1.232638 0
M  V30 8 N 1.923514 0.715968 1.071758 0
M  V30 9 N 1.840601 1.046524 -0.185519 0
M  V30 10 C 1.936542 2.318872 -0.943686 0
M  V30 11 C 0.473149 2.719911 -1.041131 0
M  V30 12 O -0.087285 2.627933 -2.143876 0
M  V30 13 N -0.252864 3.174435 0.072654 0
M  V30 14 C -1.608514 3.548021 0.170054 0
M  V30 15 C -2.115784 3.996747 1.370834 0
M  V30 16 C -3.457180 4.335751 1.518024 0
M  V30 17 C -4.343289 4.238100 0.471584 0
M  V30 18 C -3.869062 3.794828 -0.739011 0
M  V30 19 C -4.789853 3.679821 -1.856778 0
M  V30 20 N -5.523178 3.578484 -2.742002 0
M  V30 21 C -2.558477 3.475939 -0.841824 0
M  V30 22 C 1.493667 -0.075017 -0.866642 0
M  V30 23 C 1.351385 -1.143404 0.002313 0
M  V30 24 C 0.946636 -2.493068 -0.338334 0
M  V30 25 C 1.309596 -3.768989 -0.318169 0
M  V30 26 C 0.463058 -4.720649 -0.805073 0
M  V30 27 C 0.597882 -6.087504 -0.894790 0
M  V30 28 N -0.353131 -6.831911 -1.404561 0
M  V30 29 C -1.532774 -6.466118 -1.894119 0
M  V30 30 C -1.785201 -5.088264 -1.856020 0
M  V30 31 C -0.759650 -4.323534 -1.312125 0
M  V30 32 S -0.669244 -2.527951 -1.070928 0
M  V30 33 N 2.682653 -2.125421 2.691910 0
M  V30 34 H 4.879713 -3.274582 3.605272 0
M  V30 35 H 4.176496 -3.925822 5.100425 0
M  V30 36 H 3.820506 -4.716361 3.514655 0
M  V30 37 H 2.037268 -3.226983 5.762482 0
M  V30 38 H 0.102055 -1.654032 5.436297 0
M  V30 39 H -0.124171 -0.395575 3.298675 0
M  V30 40 H 2.488555 3.033489 -0.340984 0
M  V30 41 H 2.342830 2.142880 -1.945319 0
M  V30 42 H 0.333286 3.236185 0.941688 0
M  V30 43 H -1.430393 4.085661 2.227531 0
M  V30 44 H -3.793160 4.678137 2.488331 0
M  V30 45 H -5.367635 4.499425 0.604548 0
M  V30 46 H -2.253360 3.136213 -1.809887 0
M  V30 47 H 1.328188 -0.190702 -1.948595 0
M  V30 48 H 2.283322 -3.967909 0.102099 0
M  V30 49 H 1.525451 -6.562004 -0.531620 0
M  V30 50 H -2.336474 -7.042273 -2.320898 0
M  V30 51 H -2.656525 -4.547690 -2.190420 0
M  V30 END ATOM
M  V30 BEGIN BOND
M  V30 1 1 1 2
M  V30 2 2 2 3
M  V30 3 1 3 4
M  V30 4 2 4 5
M  V30 5 1 5 6
M  V30 6 1 6 7
M  V30 7 2 7 8
M  V30 8 1 8 9
M  V30 9 1 9 10
M  V30 10 1 10 11
M  V30 11 2 11 12
M  V30 12 1 11 13
M  V30 13 1 13 14
M  V30 14 2 14 15
M  V30 15 1 15 16
M  V30 16 2 16 17
M  V30 17 1 17 18
M  V30 18 1 18 19
M  V30 19 3 19 20
M  V30 20 2 18 21
M  V30 21 1 9 22
M  V30 22 2 22 23
M  V30 23 1 23 24
M  V30 24 2 24 25
M  V30 25 1 25 26
M  V30 26 2 26 27
M  V30 27 1 27 28
M  V30 28 2 28 29
M  V30 29 1 29 30
M  V30 30 2 30 31
M  V30 31 1 31 32
M  V30 32 2 6 33
M  V30 33 1 33 2
M  V30 34 1 23 7
M  V30 35 1 32 24
M  V30 36 1 21 14
M  V30 37 1 31 26
M  V30 38 1 1 34
M  V30 39 1 1 35
M  V30 40 1 1 36
M  V30 41 1 3 37
M  V30 42 1 4 38
M  V30 43 1 5 39
M  V30 44 1 10 40
M  V30 45 1 10 41
M  V30 46 1 13 42
M  V30 47 1 15 43
M  V30 48 1 16 44
M  V30 49 1 17 45
M  V30 50 1 21 46
M  V30 51 1 22 47
M  V30 52 1 25 48
M  V30 53 1 27 49
M  V30 54 1 29 50
M  V30 55 1 30 51
M  V30 END BOND
M  V30 END CTAB
M  END
>  <Dataset>  (367) 
ChEMBL_Kinases

>  <Ligand_Instance>  (367) 
nan

>  <PDB_ID>  (367) 
nan

>  <Standardized_SMILES>  (367) 
Cc1cccc(-c2nn(CC(=O)Nc3cccc(C#N)c3)cc2-c2cc3cnccc3s2)n1

>  <Name>  (367) 
nan

>  <Pocket>  (367) 
nan

>  <ATP_Site>  (367) 
nan

>  <Peripheral>  (367) 
nan

>  <Num_H_Atoms_ProtBoundConf>  (367) 
nan

>  <Num_Resolved_Atoms>  (367) 
nan

>  <Num_Not_Resolved_Atoms>  (367) 
nan

$$$$
CHEMBL4531713
     RDKit          3D

  0  0  0  0  0  0  0  0  0  0999 V3000
M  V30 BEGIN CTAB
M  V30 COUNTS 39 40 0 0 0
M  V30 BEGIN ATOM
M  V30 1 N 3.996480 -1.091247 4.381434 0
M  V30 2 C 3.803293 -0.592249 3.068479 0
M  V30 3 O 4.652615 0.208790 2.552971 0
M  V30 4 C 2.668032 -0.954970 2.272061 0
M  V30 5 S 1.411487 -2.103068 2.955692 0
M  V30 6 C 0.383749 -2.075317 1.486979 0
M  V30 7 C 1.070838 -1.196754 0.588705 0
M  V30 8 N 2.206221 -0.685350 1.072849 0 CHG=1 VAL=4
M  V30 9 O 3.046314 0.171912 0.398063 0 CHG=-1 VAL=1
M  V30 10 C 0.531910 -0.902513 -0.767478 0
M  V30 11 S 0.777008 0.718631 -1.371129 0
M  V30 12 C -0.080735 2.080556 -0.685289 0
M  V30 13 C 0.211013 2.483933 0.729422 0 CFG=2
M  V30 14 N 1.560685 2.843030 1.013054 0
M  V30 15 C -0.373998 1.501475 1.667302 0
M  V30 16 O 0.109425 0.991058 2.718986 0
M  V30 17 O -1.209555 0.610610 2.299295 0
M  V30 18 C -0.877969 -1.378959 -0.765076 0
M  V30 19 S -1.679811 -0.668657 -2.169572 0
M  V30 20 C -3.409572 -1.199474 -2.215825 0
M  V30 21 F -4.144428 -0.699956 -1.146319 0
M  V30 22 F -3.561717 -2.568623 -2.248744 0
M  V30 23 F -4.044696 -0.731445 -3.363408 0
M  V30 24 C -1.579847 -2.178452 0.029914 0
M  V30 25 C -0.898854 -2.782408 1.204719 0
M  V30 26 N -0.628093 -4.202796 0.934327 0 CHG=1 VAL=4
M  V30 27 O 0.345149 -5.010385 0.856259 0
M  V30 28 O -0.393344 -5.542492 0.677409 0 CHG=-1 VAL=1
M  V30 29 H 3.771460 -0.862067 5.394914 0
M  V30 30 H 3.475756 -0.290795 4.811281 0
M  V30 31 H 1.064723 -1.621184 -1.457667 0
M  V30 32 H 0.187318 3.004053 -1.299915 0
M  V30 33 H -1.200661 2.019209 -0.749308 0
M  V30 34 H -0.387728 3.442390 0.909375 0
M  V30 35 H 2.196982 2.926584 0.199189 0
M  V30 36 H 1.984944 2.355147 1.827058 0
M  V30 37 H -2.193274 0.449517 2.033239 0
M  V30 38 H -2.620349 -2.374859 -0.182793 0
M  V30 39 H -1.583808 -2.733681 2.085660 0
M  V30 END ATOM
M  V30 BEGIN BOND
M  V30 1 1 1 2
M  V30 2 2 2 3
M  V30 3 1 2 4
M  V30 4 1 4 5
M  V30 5 1 5 6
M  V30 6 2 6 7
M  V30 7 1 7 8
M  V30 8 1 8 9
M  V30 9 1 7 10
M  V30 10 1 10 11
M  V30 11 1 11 12
M  V30 12 1 12 13
M  V30 13 1 13 14
M  V30 14 1 13 15
M  V30 15 2 15 16
M  V30 16 1 15 17
M  V30 17 1 10 18
M  V30 18 1 18 19
M  V30 19 1 19 20
M  V30 20 1 20 21
M  V30 21 1 20 22
M  V30 22 1 20 23
M  V30 23 2 18 24
M  V30 24 1 24 25
M  V30 25 1 25 26
M  V30 26 2 26 27
M  V30 27 1 26 28
M  V30 28 2 8 4
M  V30 29 1 25 6
M  V30 30 1 1 29
M  V30 31 1 1 30
M  V30 32 1 10 31
M  V30 33 1 12 32
M  V30 34 1 12 33
M  V30 35 1 13 34 CFG=1
M  V30 36 1 14 35
M  V30 37 1 14 36
M  V30 38 1 17 37
M  V30 39 1 24 38
M  V30 40 1 25 39
M  V30 END BOND
M  V30 END CTAB
M  END
>  <Dataset>  (368) 
ChEMBL_Kinases

>  <Ligand_Instance>  (368) 
nan

>  <PDB_ID>  (368) 
nan

>  <Standardized_SMILES>  (368) 
NC(=O)c1sc2c([n+]1[O-])C(SC[C@H](N)C(=O)O)C(SC(F)(F)F)=CC2[N+](=O)[O-]

>  <Name>  (368) 
nan

>  <Pocket>  (368) 
nan

>  <ATP_Site>  (368) 
nan

>  <Peripheral>  (368) 
nan

>  <Num_H_Atoms_ProtBoundConf>  (368) 
nan

>  <Num_Resolved_Atoms>  (368) 
nan

>  <Num_Not_Resolved_Atoms>  (368) 
nan

$$$$
CHEMBL4531690
     RDKit          3D

  0  0  0  0  0  0  0  0  0  0999 V3000
M  V30 BEGIN CTAB
M  V30 COUNTS 38 41 0 0 0
M  V30 BEGIN ATOM
M  V30 1 Cl 1.533554 -5.556328 -0.388888 0
M  V30 2 C 1.448023 -3.974209 0.344935 0
M  V30 3 C 0.649524 -3.975999 1.458596 0
M  V30 4 C 0.450252 -2.830449 2.183210 0
M  V30 5 C 1.101869 -1.678895 1.726092 0
M  V30 6 C 1.902581 -1.651333 0.614606 0
M  V30 7 C 2.080146 -2.821461 -0.089343 0
M  V30 8 C 2.611463 -0.554740 -0.024858 0
M  V30 9 C 3.822401 -0.276223 -0.598178 0
M  V30 10 N 3.791310 1.013364 -1.005138 0
M  V30 11 N 2.651337 1.593273 -0.739680 0
M  V30 12 C 2.010706 2.756042 -0.865381 0
M  V30 13 C 0.728206 3.008092 -0.439866 0
M  V30 14 C 0.044725 1.981741 0.164973 0
M  V30 15 N 0.685399 0.812505 0.293658 0
M  V30 16 C 1.917114 0.650566 -0.140663 0
M  V30 17 N -1.291745 1.803785 0.739065 0
M  V30 18 C -1.933391 0.739992 0.034208 0
M  V30 19 C -3.148186 0.119300 0.572476 0
M  V30 20 O -2.993838 -0.435761 1.854508 0
M  V30 21 C -1.735735 -0.958124 2.010861 0
M  V30 22 C -1.557121 -1.822441 3.231072 0
M  V30 23 O -0.157241 -2.230592 3.256597 0
M  V30 24 H 0.057806 -4.699021 2.002471 0
M  V30 25 H 1.221611 -0.625560 2.028678 0
M  V30 26 H 2.694102 -2.929993 -0.985066 0
M  V30 27 H 4.564419 -1.055149 -0.642480 0
M  V30 28 H 2.525692 3.569546 -1.334696 0
M  V30 29 H 0.098713 3.862717 -0.464359 0
M  V30 30 H -1.118960 2.574810 1.412681 0
M  V30 31 H -1.179367 -0.032138 -0.327363 0
M  V30 32 H -2.228487 1.197411 -0.970467 0
M  V30 33 H -3.455664 -0.713190 -0.088037 0
M  V30 34 H -3.979544 0.849052 0.591281 0
M  V30 35 H -0.985062 -0.136869 2.169322 0
M  V30 36 H -1.449414 -1.528650 1.110727 0
M  V30 37 H -1.677640 -1.167920 4.118667 0
M  V30 38 H -2.224841 -2.698282 3.267960 0
M  V30 END ATOM
M  V30 BEGIN BOND
M  V30 1 1 1 2
M  V30 2 2 2 3
M  V30 3 1 3 4
M  V30 4 2 4 5
M  V30 5 1 5 6
M  V30 6 2 6 7
M  V30 7 1 6 8
M  V30 8 1 8 9
M  V30 9 2 9 10
M  V30 10 1 10 11
M  V30 11 1 11 12
M  V30 12 2 12 13
M  V30 13 1 13 14
M  V30 14 2 14 15
M  V30 15 1 15 16
M  V30 16 1 14 17
M  V30 17 1 17 18
M  V30 18 1 18 19
M  V30 19 1 19 20
M  V30 20 1 20 21
M  V30 21 1 21 22
M  V30 22 1 22 23
M  V30 23 1 7 2
M  V30 24 2 16 8
M  V30 25 1 23 4
M  V30 26 1 16 11
M  V30 27 1 3 24
M  V30 28 1 5 25
M  V30 29 1 7 26
M  V30 30 1 9 27
M  V30 31 1 12 28
M  V30 32 1 13 29
M  V30 33 1 17 30
M  V30 34 1 18 31
M  V30 35 1 18 32
M  V30 36 1 19 33
M  V30 37 1 19 34
M  V30 38 1 21 35
M  V30 39 1 21 36
M  V30 40 1 22 37
M  V30 41 1 22 38
M  V30 END BOND
M  V30 END CTAB
M  END
>  <Dataset>  (369) 
ChEMBL_Kinases

>  <Ligand_Instance>  (369) 
nan

>  <PDB_ID>  (369) 
nan

>  <Standardized_SMILES>  (369) 
Clc1cc2cc(c1)-c1cnn3ccc(nc13)NCCOCCO2

>  <Name>  (369) 
nan

>  <Pocket>  (369) 
nan

>  <ATP_Site>  (369) 
nan

>  <Peripheral>  (369) 
nan

>  <Num_H_Atoms_ProtBoundConf>  (369) 
nan

>  <Num_Resolved_Atoms>  (369) 
nan

>  <Num_Not_Resolved_Atoms>  (369) 
nan

$$$$
CHEMBL4643408
     RDKit          3D

  0  0  0  0  0  0  0  0  0  0999 V3000
M  V30 BEGIN CTAB
M  V30 COUNTS 51 54 0 0 0
M  V30 BEGIN ATOM
M  V30 1 C 6.608228 -3.477207 3.877775 0
M  V30 2 C 5.337388 -3.235059 3.117627 0
M  V30 3 C 4.553139 -4.255646 2.632965 0
M  V30 4 N 3.539379 -3.622335 2.032370 0
M  V30 5 C 3.626234 -2.295083 2.102067 0
M  V30 6 C 2.864097 -1.147654 1.655711 0
M  V30 7 N 3.220807 0.125644 1.890420 0
M  V30 8 C 2.529412 1.196964 1.487926 0
M  V30 9 C 1.363602 1.041937 0.780209 0
M  V30 10 N 0.639872 2.188509 0.359885 0
M  V30 11 C -0.600784 1.987545 -0.395776 0
M  V30 12 C -1.239042 3.288750 -0.760181 0
M  V30 13 N -2.458935 3.040952 -1.492969 0
M  V30 14 C -3.670572 2.501292 -1.003861 0
M  V30 15 C -3.904850 2.157386 0.303113 0
M  V30 16 C -5.063686 1.622181 0.793277 0
M  V30 17 C -6.116595 1.394588 -0.084004 0
M  V30 18 C -7.349951 0.836378 0.378872 0
M  V30 19 N -8.338692 0.366900 0.752759 0
M  V30 20 C -5.927720 1.723864 -1.401447 0
M  V30 21 C -4.736722 2.257229 -1.821115 0
M  V30 22 N 0.947848 -0.207712 0.509960 0
M  V30 23 C 1.695329 -1.264985 0.946427 0
M  V30 24 C 1.067830 -2.509404 0.536798 0
M  V30 25 C 1.450490 -3.035389 -0.696068 0
M  V30 26 C 0.822671 -4.207046 -1.063778 0
M  V30 27 C -0.125516 -4.790373 -0.225483 0
M  V30 28 Cl -0.940879 -6.276752 -0.661644 0
M  V30 29 C -0.477719 -4.229176 0.999838 0
M  V30 30 C 0.123144 -3.054700 1.414175 0
M  V30 31 Cl -0.228888 -2.249034 2.926383 0
M  V30 32 N 4.759194 -2.076195 2.785661 0
M  V30 33 H 6.396228 -4.121227 4.768375 0
M  V30 34 H 6.986374 -2.499065 4.235647 0
M  V30 35 H 7.376187 -3.935640 3.254945 0
M  V30 36 H 4.692764 -5.318797 2.702766 0
M  V30 37 H 2.755938 -4.100172 1.557631 0
M  V30 38 H 2.956106 2.149304 1.760133 0
M  V30 39 H 0.988052 3.144267 0.586478 0
M  V30 40 H -0.352190 1.487240 -1.381997 0
M  V30 41 H -1.298005 1.293420 0.088192 0
M  V30 42 H -1.422158 3.938873 0.131549 0
M  V30 43 H -0.573153 3.905299 -1.408689 0
M  V30 44 H -2.469960 3.286435 -2.529592 0
M  V30 45 H -3.155942 2.307023 1.056825 0
M  V30 46 H -5.223789 1.358554 1.830463 0
M  V30 47 H -6.746744 1.546397 -2.080536 0
M  V30 48 H -4.692276 2.483928 -2.893626 0
M  V30 49 H 2.192791 -2.518268 -1.281375 0
M  V30 50 H 1.077858 -4.659786 -2.005683 0
M  V30 51 H -1.208489 -4.670864 1.655259 0
M  V30 END ATOM
M  V30 BEGIN BOND
M  V30 1 1 1 2
M  V30 2 2 2 3
M  V30 3 1 3 4
M  V30 4 1 4 5
M  V30 5 1 5 6
M  V30 6 2 6 7
M  V30 7 1 7 8
M  V30 8 2 8 9
M  V30 9 1 9 10
M  V30 10 1 10 11
M  V30 11 1 11 12
M  V30 12 1 12 13
M  V30 13 1 13 14
M  V30 14 2 14 15
M  V30 15 1 15 16
M  V30 16 2 16 17
M  V30 17 1 17 18
M  V30 18 3 18 19
M  V30 19 1 17 20
M  V30 20 2 20 21
M  V30 21 1 9 22
M  V30 22 2 22 23
M  V30 23 1 23 24
M  V30 24 2 24 25
M  V30 25 1 25 26
M  V30 26 2 26 27
M  V30 27 1 27 28
M  V30 28 1 27 29
M  V30 29 2 29 30
M  V30 30 1 30 31
M  V30 31 2 5 32
M  V30 32 1 32 2
M  V30 33 1 23 6
M  V30 34 1 30 24
M  V30 35 1 21 14
M  V30 36 1 1 33
M  V30 37 1 1 34
M  V30 38 1 1 35
M  V30 39 1 3 36
M  V30 40 1 4 37
M  V30 41 1 8 38
M  V30 42 1 10 39
M  V30 43 1 11 40
M  V30 44 1 11 41
M  V30 45 1 12 42
M  V30 46 1 12 43
M  V30 47 1 13 44
M  V30 48 1 15 45
M  V30 49 1 16 46
M  V30 50 1 20 47
M  V30 51 1 21 48
M  V30 52 1 25 49
M  V30 53 1 26 50
M  V30 54 1 29 51
M  V30 END BOND
M  V30 END CTAB
M  END
>  <Dataset>  (370) 
ChEMBL_Kinases

>  <Ligand_Instance>  (370) 
nan

>  <PDB_ID>  (370) 
nan

>  <Standardized_SMILES>  (370) 
Cc1c[nH]c(-c2ncc(NCCNc3ccc(C#N)cc3)nc2-c2ccc(Cl)cc2Cl)n1

>  <Name>  (370) 
nan

>  <Pocket>  (370) 
nan

>  <ATP_Site>  (370) 
nan

>  <Peripheral>  (370) 
nan

>  <Num_H_Atoms_ProtBoundConf>  (370) 
nan

>  <Num_Resolved_Atoms>  (370) 
nan

>  <Num_Not_Resolved_Atoms>  (370) 
nan

$$$$
CHEMBL4531356
     RDKit          3D

  0  0  0  0  0  0  0  0  0  0999 V3000
M  V30 BEGIN CTAB
M  V30 COUNTS 53 56 0 0 0
M  V30 BEGIN ATOM
M  V30 1 C 1.117735 2.952148 4.091412 0
M  V30 2 O 1.619204 2.594187 2.816067 0
M  V30 3 C 2.395738 1.441587 2.716981 0
M  V30 4 C 2.664571 0.671453 3.853625 0
M  V30 5 C 3.412354 -0.461535 3.825148 0
M  V30 6 F 3.689608 -1.228557 4.908751 0
M  V30 7 C 3.927790 -0.869250 2.630506 0
M  V30 8 C 3.698923 -0.161935 1.501467 0
M  V30 9 C 2.942491 0.989625 1.508982 0
M  V30 10 N 2.595357 1.799441 0.395343 0
M  V30 11 C 1.517466 2.353748 -0.301150 0
M  V30 12 N 1.513866 3.684113 -0.193107 0
M  V30 13 C 0.625849 4.513387 -0.707013 0
M  V30 14 N -0.354589 3.952930 -1.396915 0
M  V30 15 C -0.356880 2.587358 -1.511608 0
M  V30 16 S -1.595284 1.530369 -2.383066 0
M  V30 17 C -0.803222 0.023025 -1.979597 0
M  V30 18 C 0.310555 0.340317 -1.243122 0
M  V30 19 C 0.555740 1.663135 -0.990125 0
M  V30 20 C 1.213994 -0.744746 -0.767311 0
M  V30 21 C 0.848929 -2.024953 -1.429827 0
M  V30 22 N -0.567501 -2.234394 -1.306033 0
M  V30 23 C -1.296716 -3.079718 -0.430860 0
M  V30 24 O -0.684042 -3.780213 0.391910 0
M  V30 25 O -2.676636 -3.054690 -0.567634 0
M  V30 26 C -3.519351 -3.840376 0.241145 0
M  V30 27 C -4.943886 -3.577653 -0.175214 0
M  V30 28 C -3.403447 -3.339963 1.686031 0
M  V30 29 C -3.146949 -5.294169 0.264169 0
M  V30 30 C -1.206613 -1.356049 -2.301318 0
M  V30 31 H 1.956110 3.083724 4.799770 0
M  V30 32 H 0.486916 3.842682 4.065396 0
M  V30 33 H 0.534632 2.050528 4.447635 0
M  V30 34 H 2.277807 0.948768 4.836867 0
M  V30 35 H 4.540512 -1.770127 2.519961 0
M  V30 36 H 4.105047 -0.470935 0.552243 0
M  V30 37 H 3.551034 2.032727 -0.008154 0
M  V30 38 H 0.559190 5.571889 -0.662992 0
M  V30 39 H 2.284530 -0.472459 -0.956369 0
M  V30 40 H 1.122631 -0.879339 0.327386 0
M  V30 41 H 1.148170 -1.968068 -2.501382 0
M  V30 42 H 1.424236 -2.843408 -0.917173 0
M  V30 43 H -5.307686 -2.619753 0.277667 0
M  V30 44 H -4.943067 -3.445016 -1.284741 0
M  V30 45 H -5.628642 -4.388855 0.110778 0
M  V30 46 H -4.313279 -3.692055 2.215548 0
M  V30 47 H -2.485748 -3.696756 2.153944 0
M  V30 48 H -3.452490 -2.231844 1.596497 0
M  V30 49 H -2.445342 -5.498528 1.122719 0
M  V30 50 H -2.722544 -5.663899 -0.677173 0
M  V30 51 H -4.080757 -5.872990 0.497624 0
M  V30 52 H -0.818407 -1.624166 -3.284730 0
M  V30 53 H -2.301840 -1.454724 -2.311351 0
M  V30 END ATOM
M  V30 BEGIN BOND
M  V30 1 1 1 2
M  V30 2 1 2 3
M  V30 3 2 3 4
M  V30 4 1 4 5
M  V30 5 1 5 6
M  V30 6 2 5 7
M  V30 7 1 7 8
M  V30 8 2 8 9
M  V30 9 1 9 10
M  V30 10 1 10 11
M  V30 11 2 11 12
M  V30 12 1 12 13
M  V30 13 2 13 14
M  V30 14 1 14 15
M  V30 15 1 15 16
M  V30 16 1 16 17
M  V30 17 2 17 18
M  V30 18 1 18 19
M  V30 19 1 18 20
M  V30 20 1 20 21
M  V30 21 1 21 22
M  V30 22 1 22 23
M  V30 23 2 23 24
M  V30 24 1 23 25
M  V30 25 1 25 26
M  V30 26 1 26 27
M  V30 27 1 26 28
M  V30 28 1 26 29
M  V30 29 1 22 30
M  V30 30 1 9 3
M  V30 31 1 19 11
M  V30 32 2 19 15
M  V30 33 1 30 17
M  V30 34 1 1 31
M  V30 35 1 1 32
M  V30 36 1 1 33
M  V30 37 1 4 34
M  V30 38 1 7 35
M  V30 39 1 8 36
M  V30 40 1 10 37
M  V30 41 1 13 38
M  V30 42 1 20 39
M  V30 43 1 20 40
M  V30 44 1 21 41
M  V30 45 1 21 42
M  V30 46 1 27 43
M  V30 47 1 27 44
M  V30 48 1 27 45
M  V30 49 1 28 46
M  V30 50 1 28 47
M  V30 51 1 28 48
M  V30 52 1 29 49
M  V30 53 1 29 50
M  V30 54 1 29 51
M  V30 55 1 30 52
M  V30 56 1 30 53
M  V30 END BOND
M  V30 END CTAB
M  END
>  <Dataset>  (371) 
ChEMBL_Kinases

>  <Ligand_Instance>  (371) 
nan

>  <PDB_ID>  (371) 
nan

>  <Standardized_SMILES>  (371) 
COc1cc(F)ccc1Nc1ncnc2sc3c(c12)CCN(C(=O)OC(C)(C)C)C3

>  <Name>  (371) 
nan

>  <Pocket>  (371) 
nan

>  <ATP_Site>  (371) 
nan

>  <Peripheral>  (371) 
nan

>  <Num_H_Atoms_ProtBoundConf>  (371) 
nan

>  <Num_Resolved_Atoms>  (371) 
nan

>  <Num_Not_Resolved_Atoms>  (371) 
nan

$$$$
CHEMBL4643436
     RDKit          3D

  0  0  0  0  0  0  0  0  0  0999 V3000
M  V30 BEGIN CTAB
M  V30 COUNTS 56 60 0 0 0
M  V30 BEGIN ATOM
M  V30 1 C 4.156979 -4.000539 4.741544 0
M  V30 2 C 3.016667 -4.515351 3.936436 0
M  V30 3 O 3.332222 -5.666553 3.235822 0
M  V30 4 C 2.551685 -3.525015 2.941960 0
M  V30 5 C 2.166298 -2.702811 2.141901 0
M  V30 6 C 1.718656 -1.707811 1.202946 0
M  V30 7 C 2.600477 -0.705019 0.843400 0
M  V30 8 C 2.212814 0.270671 -0.054902 0
M  V30 9 C 0.950772 0.277710 -0.615874 0
M  V30 10 O 0.429174 1.186377 -1.523799 0
M  V30 11 C 1.047782 2.293662 -2.077161 0
M  V30 12 C 0.276930 3.589873 -1.945384 0
M  V30 13 C -1.066223 3.449681 -2.570457 0
M  V30 14 O -0.881667 3.170520 -3.943045 0
M  V30 15 C -0.313054 1.902287 -4.064255 0
M  V30 16 C 1.118695 2.037898 -3.591603 0
M  V30 17 C 0.044124 -0.731227 -0.262479 0
M  V30 18 N -1.278485 -0.936994 -0.691057 0
M  V30 19 C -2.305649 0.002538 -0.489915 0
M  V30 20 N -2.048045 1.161591 0.143453 0
M  V30 21 C -3.010064 2.083327 0.352447 0
M  V30 22 N -4.267148 1.828474 -0.089964 0
M  V30 23 C -4.587567 0.687847 -0.730151 0
M  V30 24 N -5.725028 0.178745 -1.266881 0
M  V30 25 C -5.471803 -1.032555 -1.796763 0
M  V30 26 C -4.124255 -1.355526 -1.614926 0
M  V30 27 C -3.584424 -0.255862 -0.939543 0
M  V30 28 C 0.452948 -1.713580 0.650042 0
M  V30 29 C 1.924942 -4.784515 4.951815 0
M  V30 30 N 1.659933 -4.741539 6.057743 0
M  V30 31 C 0.528864 -5.080151 6.637051 0
M  V30 32 C -0.471156 -5.542673 5.855601 0
M  V30 33 S 0.341345 -5.461068 4.157101 0
M  V30 34 H 4.269429 -4.664212 5.631492 0
M  V30 35 H 5.106244 -3.908616 4.187434 0
M  V30 36 H 3.907655 -2.997887 5.137573 0
M  V30 37 H 3.440883 -6.411850 3.892006 0
M  V30 38 H 3.600349 -0.673325 1.260165 0
M  V30 39 H 2.857860 1.056122 -0.356712 0
M  V30 40 H 2.083570 2.393038 -1.672610 0
M  V30 41 H 0.275688 3.987177 -0.927845 0
M  V30 42 H 0.843014 4.342259 -2.560866 0
M  V30 43 H -1.701334 2.648076 -2.197525 0
M  V30 44 H -1.582068 4.444192 -2.527253 0
M  V30 45 H -0.367866 1.576597 -5.123390 0
M  V30 46 H -0.870818 1.163325 -3.455640 0
M  V30 47 H 1.570337 2.909776 -4.099931 0
M  V30 48 H 1.686249 1.126276 -3.817948 0
M  V30 49 H -1.472345 -1.838365 -1.176925 0
M  V30 50 H -2.909620 3.039647 0.846694 0
M  V30 51 H -6.655718 0.649105 -1.271275 0
M  V30 52 H -6.134384 -1.736473 -2.309176 0
M  V30 53 H -3.549341 -2.206312 -1.886861 0
M  V30 54 H -0.156222 -2.540224 0.998303 0
M  V30 55 H 0.450368 -4.970484 7.732584 0
M  V30 56 H -1.465165 -5.856118 6.239444 0
M  V30 END ATOM
M  V30 BEGIN BOND
M  V30 1 1 1 2
M  V30 2 1 2 3
M  V30 3 1 2 4
M  V30 4 3 4 5
M  V30 5 1 5 6
M  V30 6 2 6 7
M  V30 7 1 7 8
M  V30 8 2 8 9
M  V30 9 1 9 10
M  V30 10 1 10 11
M  V30 11 1 11 12
M  V30 12 1 12 13
M  V30 13 1 13 14
M  V30 14 1 14 15
M  V30 15 1 15 16
M  V30 16 1 9 17
M  V30 17 1 17 18
M  V30 18 1 18 19
M  V30 19 2 19 20
M  V30 20 1 20 21
M  V30 21 2 21 22
M  V30 22 1 22 23
M  V30 23 1 23 24
M  V30 24 1 24 25
M  V30 25 2 25 26
M  V30 26 1 26 27
M  V30 27 2 17 28
M  V30 28 1 2 29
M  V30 29 2 29 30
M  V30 30 1 30 31
M  V30 31 2 31 32
M  V30 32 1 32 33
M  V30 33 1 28 6
M  V30 34 1 33 29
M  V30 35 1 16 11
M  V30 36 1 27 19
M  V30 37 2 27 23
M  V30 38 1 1 34
M  V30 39 1 1 35
M  V30 40 1 1 36
M  V30 41 1 3 37
M  V30 42 1 7 38
M  V30 43 1 8 39
M  V30 44 1 11 40
M  V30 45 1 12 41
M  V30 46 1 12 42
M  V30 47 1 13 43
M  V30 48 1 13 44
M  V30 49 1 15 45
M  V30 50 1 15 46
M  V30 51 1 16 47
M  V30 52 1 16 48
M  V30 53 1 18 49
M  V30 54 1 21 50
M  V30 55 1 24 51
M  V30 56 1 25 52
M  V30 57 1 26 53
M  V30 58 1 28 54
M  V30 59 1 31 55
M  V30 60 1 32 56
M  V30 END BOND
M  V30 END CTAB
M  END
>  <Dataset>  (372) 
ChEMBL_Kinases

>  <Ligand_Instance>  (372) 
nan

>  <PDB_ID>  (372) 
nan

>  <Standardized_SMILES>  (372) 
CC(O)(C#Cc1ccc(OC2CCOCC2)c(Nc2ncnc3[nH]ccc23)c1)c1nccs1

>  <Name>  (372) 
nan

>  <Pocket>  (372) 
nan

>  <ATP_Site>  (372) 
nan

>  <Peripheral>  (372) 
nan

>  <Num_H_Atoms_ProtBoundConf>  (372) 
nan

>  <Num_Resolved_Atoms>  (372) 
nan

>  <Num_Not_Resolved_Atoms>  (372) 
nan

$$$$
CHEMBL4531247
     RDKit          3D

  0  0  0  0  0  0  0  0  0  0999 V3000
M  V30 BEGIN CTAB
M  V30 COUNTS 51 55 0 0 0
M  V30 BEGIN ATOM
M  V30 1 O -0.113607 -4.558963 0.859072 0
M  V30 2 C -0.773641 -4.954493 -0.161686 0
M  V30 3 N -0.099706 -4.586711 -1.377797 0
M  V30 4 C 1.097661 -3.893321 -1.033208 0
M  V30 5 N 2.363758 -4.292582 -0.796259 0
M  V30 6 N 3.109179 -3.218849 -0.508442 0
M  V30 7 C 2.350004 -2.089323 -0.549735 0
M  V30 8 C 2.655414 -0.761696 -0.330734 0
M  V30 9 C 1.676958 0.204716 -0.438970 0
M  V30 10 C 1.932487 1.639498 -0.216586 0
M  V30 11 C 3.116203 2.296757 -0.486518 0
M  V30 12 C 3.209080 3.648323 -0.224199 0
M  V30 13 C 2.146240 4.360001 0.302072 0
M  V30 14 C 0.940221 3.756882 0.591588 0
M  V30 15 N -0.206694 4.400403 1.133596 0
M  V30 16 S -1.263600 3.953692 2.392863 0
M  V30 17 O -1.961024 2.640798 2.114550 0
M  V30 18 O -2.336968 5.019117 2.452600 0
M  V30 19 C -0.532361 3.794997 3.974303 0
M  V30 20 C 0.754905 3.009039 4.028514 0
M  V30 21 C 0.704688 4.487028 4.371091 0
M  V30 22 C 0.876066 2.390833 0.315990 0
M  V30 23 C 0.402349 -0.207419 -0.769993 0
M  V30 24 C 0.070893 -1.535157 -0.994801 0
M  V30 25 C 1.065419 -2.501026 -0.882793 0
M  V30 26 C -2.052079 -5.688922 -0.145401 0
M  V30 27 C -2.797031 -6.134905 -1.217833 0
M  V30 28 C -3.974412 -6.806731 -0.960836 0
M  V30 29 C -4.424667 -7.043529 0.325961 0
M  V30 30 C -3.685628 -6.600717 1.409792 0
M  V30 31 C -2.508894 -5.929350 1.151396 0
M  V30 32 H -0.536089 -4.851505 -2.291083 0
M  V30 33 H 4.136205 -3.215626 -0.279070 0
M  V30 34 H 3.650931 -0.461017 -0.074417 0
M  V30 35 H 3.898392 1.676857 -0.894811 0
M  V30 36 H 4.145531 4.137754 -0.444341 0
M  V30 37 H 2.222069 5.419503 0.506815 0
M  V30 38 H -0.306231 5.295160 0.565987 0
M  V30 39 H -1.247689 3.498429 4.797962 0
M  V30 40 H 1.331091 2.764547 3.139027 0
M  V30 41 H 0.936035 2.308892 4.871726 0
M  V30 42 H 1.193207 5.195219 3.682603 0
M  V30 43 H 0.766462 4.801846 5.436640 0
M  V30 44 H -0.055385 1.892018 0.532117 0
M  V30 45 H -0.431635 0.467938 -0.879043 0
M  V30 46 H -0.940938 -1.847719 -1.255847 0
M  V30 47 H -2.354392 -5.896248 -2.153612 0
M  V30 48 H -4.517278 -7.133099 -1.823718 0
M  V30 49 H -5.362730 -7.579504 0.488386 0
M  V30 50 H -4.041375 -6.787958 2.413708 0
M  V30 51 H -1.979696 -5.610589 2.058033 0
M  V30 END ATOM
M  V30 BEGIN BOND
M  V30 1 2 1 2
M  V30 2 1 2 3
M  V30 3 1 3 4
M  V30 4 2 4 5
M  V30 5 1 5 6
M  V30 6 1 6 7
M  V30 7 2 7 8
M  V30 8 1 8 9
M  V30 9 1 9 10
M  V30 10 2 10 11
M  V30 11 1 11 12
M  V30 12 2 12 13
M  V30 13 1 13 14
M  V30 14 1 14 15
M  V30 15 1 15 16
M  V30 16 2 16 17
M  V30 17 2 16 18
M  V30 18 1 16 19
M  V30 19 1 19 20
M  V30 20 1 20 21
M  V30 21 2 14 22
M  V30 22 2 9 23
M  V30 23 1 23 24
M  V30 24 2 24 25
M  V30 25 1 2 26
M  V30 26 2 26 27
M  V30 27 1 27 28
M  V30 28 2 28 29
M  V30 29 1 29 30
M  V30 30 2 30 31
M  V30 31 1 25 4
M  V30 32 1 31 26
M  V30 33 1 25 7
M  V30 34 1 22 10
M  V30 35 1 21 19
M  V30 36 1 3 32
M  V30 37 1 6 33
M  V30 38 1 8 34
M  V30 39 1 11 35
M  V30 40 1 12 36
M  V30 41 1 13 37
M  V30 42 1 15 38
M  V30 43 1 19 39
M  V30 44 1 20 40
M  V30 45 1 20 41
M  V30 46 1 21 42
M  V30 47 1 21 43
M  V30 48 1 22 44
M  V30 49 1 23 45
M  V30 50 1 24 46
M  V30 51 1 27 47
M  V30 52 1 28 48
M  V30 53 1 29 49
M  V30 54 1 30 50
M  V30 55 1 31 51
M  V30 END BOND
M  V30 END CTAB
M  END
>  <Dataset>  (373) 
ChEMBL_Kinases

>  <Ligand_Instance>  (373) 
nan

>  <PDB_ID>  (373) 
nan

>  <Standardized_SMILES>  (373) 
O=C(Nc1n[nH]c2cc(-c3cccc(NS(=O)(=O)C4CC4)c3)ccc12)c1ccccc1

>  <Name>  (373) 
nan

>  <Pocket>  (373) 
nan

>  <ATP_Site>  (373) 
nan

>  <Peripheral>  (373) 
nan

>  <Num_H_Atoms_ProtBoundConf>  (373) 
nan

>  <Num_Resolved_Atoms>  (373) 
nan

>  <Num_Not_Resolved_Atoms>  (373) 
nan

$$$$
CHEMBL4531226
     RDKit          3D

  0  0  0  0  0  0  0  0  0  0999 V3000
M  V30 BEGIN CTAB
M  V30 COUNTS 65 70 0 0 0
M  V30 BEGIN ATOM
M  V30 1 F 0.328520 1.431496 8.999068 0
M  V30 2 C 0.687440 1.272840 7.687142 0
M  V30 3 C 1.886140 0.674761 7.362315 0
M  V30 4 C 2.244457 0.513250 6.027365 0
M  V30 5 C 1.407997 0.948208 4.997614 0
M  V30 6 C 1.819769 0.760260 3.610530 0
M  V30 7 N 2.871521 1.200568 2.915417 0
M  V30 8 C 3.157573 1.033066 1.841048 0
M  V30 9 N 4.318163 1.503365 1.036074 0
M  V30 10 C 5.598178 0.822612 0.831307 0
M  V30 11 C 6.071933 1.242528 -0.543105 0
M  V30 12 O 5.055012 1.393881 -1.466188 0
M  V30 13 C 4.116473 2.348003 -1.154350 0
M  V30 14 C 4.346190 2.758498 0.307811 0
M  V30 15 S 1.757288 -0.065537 1.185886 0
M  V30 16 C 0.941012 -0.027350 2.896933 0
M  V30 17 C -0.307339 -0.775687 3.022068 0
M  V30 18 C -0.328265 -1.820656 3.929662 0
M  V30 19 C -1.507539 -2.508458 4.022620 0
M  V30 20 N -2.619330 -2.219361 3.287595 0
M  V30 21 C -2.553741 -1.196260 2.418676 0
M  V30 22 N -3.547331 -0.684173 1.532876 0
M  V30 23 C -3.579982 -1.231499 0.218961 0
M  V30 24 C -2.686459 -2.216666 -0.147948 0
M  V30 25 C -2.750720 -2.715191 -1.429909 0
M  V30 26 C -3.635303 -2.321028 -2.402170 0
M  V30 27 N -3.686462 -2.845473 -3.720805 0
M  V30 28 C -4.602501 -2.415370 -4.736168 0
M  V30 29 C -3.744057 -1.777983 -5.837473 0
M  V30 30 N -3.018983 -2.833578 -6.463449 0
M  V30 31 C -2.199205 -3.598640 -5.560387 0
M  V30 32 C -2.847019 -3.865794 -4.235154 0
M  V30 33 C -4.497008 -1.337978 -1.972495 0
M  V30 34 C -4.514023 -0.777659 -0.720486 0
M  V30 35 N -1.400557 -0.495258 2.303225 0
M  V30 36 C 0.231000 1.534524 5.404535 0
M  V30 37 C -0.164663 1.715506 6.693262 0
M  V30 38 H 2.564295 0.323785 8.121964 0
M  V30 39 H 3.191600 0.041858 5.737227 0
M  V30 40 H 5.507951 -0.275984 0.884065 0
M  V30 41 H 6.303677 1.223236 1.565230 0
M  V30 42 H 6.730106 0.429012 -0.925059 0
M  V30 43 H 6.721887 2.139011 -0.447634 0
M  V30 44 H 3.109105 1.834447 -1.177808 0
M  V30 45 H 4.124326 3.205894 -1.837858 0
M  V30 46 H 5.274196 3.311049 0.422591 0
M  V30 47 H 3.448966 3.369106 0.612093 0
M  V30 48 H 0.549167 -2.053725 4.514525 0
M  V30 49 H -1.574592 -3.326189 4.712507 0
M  V30 50 H -4.224522 0.040740 1.784148 0
M  V30 51 H -1.965909 -2.566488 0.578608 0
M  V30 52 H -2.023543 -3.476320 -1.627827 0
M  V30 53 H -5.063369 -3.323285 -5.215279 0
M  V30 54 H -5.379608 -1.706176 -4.408241 0
M  V30 55 H -3.111556 -0.975922 -5.404665 0
M  V30 56 H -4.452655 -1.353461 -6.575179 0
M  V30 57 H -2.394907 -2.426609 -7.194961 0
M  V30 58 H -1.198671 -3.125368 -5.449867 0
M  V30 59 H -2.012546 -4.581137 -6.045763 0
M  V30 60 H -3.466654 -4.810716 -4.256717 0
M  V30 61 H -2.037746 -4.083614 -3.518824 0
M  V30 62 H -5.263073 -0.898079 -2.592348 0
M  V30 63 H -5.170635 -0.018332 -0.368057 0
M  V30 64 H -0.431198 1.878371 4.597529 0
M  V30 65 H -1.083332 2.173322 6.978489 0
M  V30 END ATOM
M  V30 BEGIN BOND
M  V30 1 1 1 2
M  V30 2 2 2 3
M  V30 3 1 3 4
M  V30 4 2 4 5
M  V30 5 1 5 6
M  V30 6 1 6 7
M  V30 7 2 7 8
M  V30 8 1 8 9
M  V30 9 1 9 10
M  V30 10 1 10 11
M  V30 11 1 11 12
M  V30 12 1 12 13
M  V30 13 1 13 14
M  V30 14 1 8 15
M  V30 15 1 15 16
M  V30 16 1 16 17
M  V30 17 2 17 18
M  V30 18 1 18 19
M  V30 19 2 19 20
M  V30 20 1 20 21
M  V30 21 1 21 22
M  V30 22 1 22 23
M  V30 23 2 23 24
M  V30 24 1 24 25
M  V30 25 2 25 26
M  V30 26 1 26 27
M  V30 27 1 27 28
M  V30 28 1 28 29
M  V30 29 1 29 30
M  V30 30 1 30 31
M  V30 31 1 31 32
M  V30 32 1 26 33
M  V30 33 2 33 34
M  V30 34 2 21 35
M  V30 35 1 5 36
M  V30 36 2 36 37
M  V30 37 1 37 2
M  V30 38 2 16 6
M  V30 39 1 35 17
M  V30 40 1 14 9
M  V30 41 1 34 23
M  V30 42 1 32 27
M  V30 43 1 3 38
M  V30 44 1 4 39
M  V30 45 1 10 40
M  V30 46 1 10 41
M  V30 47 1 11 42
M  V30 48 1 11 43
M  V30 49 1 13 44
M  V30 50 1 13 45
M  V30 51 1 14 46
M  V30 52 1 14 47
M  V30 53 1 18 48
M  V30 54 1 19 49
M  V30 55 1 22 50
M  V30 56 1 24 51
M  V30 57 1 25 52
M  V30 58 1 28 53
M  V30 59 1 28 54
M  V30 60 1 29 55
M  V30 61 1 29 56
M  V30 62 1 30 57
M  V30 63 1 31 58
M  V30 64 1 31 59
M  V30 65 1 32 60
M  V30 66 1 32 61
M  V30 67 1 33 62
M  V30 68 1 34 63
M  V30 69 1 36 64
M  V30 70 1 37 65
M  V30 END BOND
M  V30 END CTAB
M  END
>  <Dataset>  (374) 
ChEMBL_Kinases

>  <Ligand_Instance>  (374) 
nan

>  <PDB_ID>  (374) 
nan

>  <Standardized_SMILES>  (374) 
Fc1ccc(-c2nc(N3CCOCC3)sc2-c2ccnc(Nc3ccc(N4CCNCC4)cc3)n2)cc1

>  <Name>  (374) 
nan

>  <Pocket>  (374) 
nan

>  <ATP_Site>  (374) 
nan

>  <Peripheral>  (374) 
nan

>  <Num_H_Atoms_ProtBoundConf>  (374) 
nan

>  <Num_Resolved_Atoms>  (374) 
nan

>  <Num_Not_Resolved_Atoms>  (374) 
nan

$$$$
CHEMBL4531109
     RDKit          3D

  0  0  0  0  0  0  0  0  0  0999 V3000
M  V30 BEGIN CTAB
M  V30 COUNTS 38 41 0 0 0
M  V30 BEGIN ATOM
M  V30 1 O 1.076025 -3.552197 2.075940 0
M  V30 2 C 1.669659 -2.968328 1.105758 0
M  V30 3 N 2.827017 -3.580001 0.551245 0
M  V30 4 C 3.537683 -2.994039 -0.524094 0
M  V30 5 C 4.642328 -3.680722 -0.975054 0
M  V30 6 C 5.327845 -3.089162 -2.032461 0
M  V30 7 C 4.893572 -1.894203 -2.561898 0
M  V30 8 C 3.777672 -1.252532 -2.066607 0
M  V30 9 C 3.065338 -1.797946 -1.020774 0
M  V30 10 N 1.913047 -1.214410 -0.448943 0
M  V30 11 C 1.122329 -1.694966 0.615945 0
M  V30 12 C 0.072101 -1.120451 1.128002 0
M  V30 13 C -0.405530 0.112797 0.600572 0
M  V30 14 O 0.201415 0.560041 -0.377167 0
M  V30 15 C -1.446543 1.062123 0.862168 0
M  V30 16 C -1.829717 2.039204 -0.050507 0
M  V30 17 C -2.890978 2.899657 0.070367 0
M  V30 18 C -3.663837 2.804651 1.196015 0
M  V30 19 C -3.355085 1.873594 2.144270 0
M  V30 20 C -4.160779 1.866146 3.256322 0
M  V30 21 C -3.907225 0.985787 4.284747 0
M  V30 22 C -2.817568 0.132353 4.131412 0
M  V30 23 C -2.067571 0.210359 2.983356 0
M  V30 24 C -2.274449 1.054593 1.940079 0
M  V30 25 H 3.135064 -4.482663 0.969082 0
M  V30 26 H 4.978575 -4.606984 -0.564333 0
M  V30 27 H 6.209134 -3.523580 -2.478889 0
M  V30 28 H 5.396158 -1.390518 -3.390602 0
M  V30 29 H 3.425856 -0.310860 -2.475360 0
M  V30 30 H 1.677517 -0.327314 -0.903508 0
M  V30 31 H -0.279214 -1.772366 1.909672 0
M  V30 32 H -1.274740 2.192377 -0.983625 0
M  V30 33 H -3.127147 3.633188 -0.683653 0
M  V30 34 H -4.497789 3.475314 1.293612 0
M  V30 35 H -5.001777 2.537324 3.356951 0
M  V30 36 H -4.548617 0.991121 5.150763 0
M  V30 37 H -2.664335 -0.534155 4.966000 0
M  V30 38 H -1.260714 -0.464365 3.027379 0
M  V30 END ATOM
M  V30 BEGIN BOND
M  V30 1 2 1 2
M  V30 2 1 2 3
M  V30 3 1 3 4
M  V30 4 2 4 5
M  V30 5 1 5 6
M  V30 6 2 6 7
M  V30 7 1 7 8
M  V30 8 2 8 9
M  V30 9 1 9 10
M  V30 10 1 10 11
M  V30 11 2 11 12
M  V30 12 1 12 13
M  V30 13 2 13 14
M  V30 14 1 13 15
M  V30 15 2 15 16
M  V30 16 1 16 17
M  V30 17 2 17 18
M  V30 18 1 18 19
M  V30 19 2 19 20
M  V30 20 1 20 21
M  V30 21 2 21 22
M  V30 22 1 22 23
M  V30 23 2 23 24
M  V30 24 1 11 2
M  V30 25 1 24 15
M  V30 26 1 9 4
M  V30 27 1 24 19
M  V30 28 1 3 25
M  V30 29 1 5 26
M  V30 30 1 6 27
M  V30 31 1 7 28
M  V30 32 1 8 29
M  V30 33 1 10 30
M  V30 34 1 12 31
M  V30 35 1 16 32
M  V30 36 1 17 33
M  V30 37 1 18 34
M  V30 38 1 20 35
M  V30 39 1 21 36
M  V30 40 1 22 37
M  V30 41 1 23 38
M  V30 END BOND
M  V30 END CTAB
M  END
>  <Dataset>  (375) 
ChEMBL_Kinases

>  <Ligand_Instance>  (375) 
nan

>  <PDB_ID>  (375) 
nan

>  <Standardized_SMILES>  (375) 
O=C1Nc2ccccc2N/C1=C\C(=O)c1cccc2ccccc12

>  <Name>  (375) 
nan

>  <Pocket>  (375) 
nan

>  <ATP_Site>  (375) 
nan

>  <Peripheral>  (375) 
nan

>  <Num_H_Atoms_ProtBoundConf>  (375) 
nan

>  <Num_Resolved_Atoms>  (375) 
nan

>  <Num_Not_Resolved_Atoms>  (375) 
nan

$$$$
CHEMBL4531857
     RDKit          3D

  0  0  0  0  0  0  0  0  0  0999 V3000
M  V30 BEGIN CTAB
M  V30 COUNTS 38 40 0 0 0
M  V30 BEGIN ATOM
M  V30 1 C 0.973678 -2.877797 3.486112 0
M  V30 2 C -0.205742 -2.779606 2.516950 0
M  V30 3 N 0.259032 -2.349452 1.189334 0
M  V30 4 C 1.057275 -3.417175 0.612567 0
M  V30 5 C 1.588590 -3.114217 -0.752165 0
M  V30 6 C -0.160786 -1.039653 0.788267 0
M  V30 7 N 0.730853 -0.028797 0.584618 0
M  V30 8 C 0.310561 1.194275 0.223452 0
M  V30 9 C 1.276060 2.274856 0.005451 0
M  V30 10 C 2.630951 2.022647 0.151774 0
M  V30 11 C 3.467133 3.095704 -0.074470 0
M  V30 12 N 3.060974 4.336520 -0.418457 0
M  V30 13 C 1.729650 4.602751 -0.567186 0
M  V30 14 C 0.844576 3.540864 -0.346707 0
M  V30 15 N -1.002332 1.436843 0.057368 0
M  V30 16 C -1.923012 0.490439 0.240976 0
M  V30 17 C -3.286106 0.721110 0.071060 0
M  V30 18 N -4.198520 -0.247199 0.258273 0
M  V30 19 C -3.835419 -1.484036 0.618674 0
M  V30 20 C -2.487137 -1.727163 0.790667 0
M  V30 21 C -1.502007 -0.786205 0.616746 0
M  V30 22 H 0.517758 -3.000023 4.498786 0
M  V30 23 H 1.564860 -3.785167 3.317567 0
M  V30 24 H 1.601398 -1.970463 3.445900 0
M  V30 25 H -0.910163 -2.069195 2.973306 0
M  V30 26 H -0.624053 -3.809644 2.485228 0
M  V30 27 H 0.363369 -4.284826 0.521926 0
M  V30 28 H 1.865331 -3.728799 1.309450 0
M  V30 29 H 1.770898 -2.042105 -0.896362 0
M  V30 30 H 2.573962 -3.655735 -0.835474 0
M  V30 31 H 0.944382 -3.561933 -1.532713 0
M  V30 32 H 3.028417 1.047198 0.425851 0
M  V30 33 H 4.561328 3.004880 0.014950 0
M  V30 34 H 1.441767 5.602972 -0.841164 0
M  V30 35 H -0.192363 3.786773 -0.472199 0
M  V30 36 H -3.532291 1.720901 -0.215804 0
M  V30 37 H -4.611371 -2.208168 0.750970 0
M  V30 38 H -2.216783 -2.732508 1.078657 0
M  V30 END ATOM
M  V30 BEGIN BOND
M  V30 1 1 1 2
M  V30 2 1 2 3
M  V30 3 1 3 4
M  V30 4 1 4 5
M  V30 5 1 3 6
M  V30 6 2 6 7
M  V30 7 1 7 8
M  V30 8 1 8 9
M  V30 9 2 9 10
M  V30 10 1 10 11
M  V30 11 2 11 12
M  V30 12 1 12 13
M  V30 13 2 13 14
M  V30 14 2 8 15
M  V30 15 1 15 16
M  V30 16 2 16 17
M  V30 17 1 17 18
M  V30 18 2 18 19
M  V30 19 1 19 20
M  V30 20 2 20 21
M  V30 21 1 21 6
M  V30 22 1 14 9
M  V30 23 1 21 16
M  V30 24 1 1 22
M  V30 25 1 1 23
M  V30 26 1 1 24
M  V30 27 1 2 25
M  V30 28 1 2 26
M  V30 29 1 4 27
M  V30 30 1 4 28
M  V30 31 1 5 29
M  V30 32 1 5 30
M  V30 33 1 5 31
M  V30 34 1 10 32
M  V30 35 1 11 33
M  V30 36 1 13 34
M  V30 37 1 14 35
M  V30 38 1 17 36
M  V30 39 1 19 37
M  V30 40 1 20 38
M  V30 END BOND
M  V30 END CTAB
M  END
>  <Dataset>  (376) 
ChEMBL_Kinases

>  <Ligand_Instance>  (376) 
nan

>  <PDB_ID>  (376) 
nan

>  <Standardized_SMILES>  (376) 
CCN(CC)c1nc(-c2ccncc2)nc2cnccc12

>  <Name>  (376) 
nan

>  <Pocket>  (376) 
nan

>  <ATP_Site>  (376) 
nan

>  <Peripheral>  (376) 
nan

>  <Num_H_Atoms_ProtBoundConf>  (376) 
nan

>  <Num_Resolved_Atoms>  (376) 
nan

>  <Num_Not_Resolved_Atoms>  (376) 
nan

$$$$
CHEMBL4642910
     RDKit          3D

  0  0  0  0  0  0  0  0  0  0999 V3000
M  V30 BEGIN CTAB
M  V30 COUNTS 77 82 0 0 0
M  V30 BEGIN ATOM
M  V30 1 O 5.760201 0.224103 4.389913 0
M  V30 2 C 5.160526 -0.381217 3.461888 0
M  V30 3 N 5.715887 -1.375610 2.576348 0
M  V30 4 C 7.079181 -1.628805 2.891224 0
M  V30 5 C 7.797710 -2.632833 2.057245 0
M  V30 6 N 7.265509 -3.972230 2.045964 0
M  V30 7 C 8.242371 -4.792664 1.330059 0
M  V30 8 C 7.721800 -6.116213 0.884111 0
M  V30 9 O 6.357068 -6.311212 1.214944 0
M  V30 10 C 5.714090 -5.250916 0.581593 0
M  V30 11 C 5.997293 -3.969664 1.346132 0
M  V30 12 C 3.780022 0.084092 3.415211 0
M  V30 13 C 3.288380 1.187187 4.025258 0
M  V30 14 C 1.972569 1.581830 3.992195 0
M  V30 15 C 1.021014 0.847401 3.305041 0
M  V30 16 C 1.493379 -0.310479 2.655121 0
M  V30 17 C 2.826268 -0.669532 2.713865 0
M  V30 18 C 0.688523 -1.275111 1.878039 0
M  V30 19 O 1.321724 -2.305192 1.487817 0
M  V30 20 C -0.722580 -1.163312 1.525935 0
M  V30 21 C -1.118307 -2.420572 1.161271 0
M  V30 22 C -2.410007 -2.650717 0.782206 0
M  V30 23 C -3.274916 -1.569597 0.787365 0
M  V30 24 N -4.630046 -1.399047 0.481277 0
M  V30 25 C -5.947236 -1.172312 0.146158 0
M  V30 26 C -7.199300 -1.508532 0.568455 0
M  V30 27 C -8.296991 -1.073237 -0.098430 0
M  V30 28 C -8.130546 -0.274451 -1.224760 0
M  V30 29 F -9.372093 0.000124 -1.677046 0
M  V30 30 C -6.843690 0.074067 -1.663062 0
M  V30 31 C -7.177594 0.877043 -2.840528 0
M  V30 32 N -7.513326 1.540002 -3.814426 0
M  V30 33 N -6.857843 2.235845 -4.806580 0
M  V30 34 C -6.418619 3.549128 -4.571894 0
M  V30 35 O -6.627121 4.103013 -3.463190 0
M  V30 36 C -5.733042 4.248210 -5.598300 0
M  V30 37 C -5.381380 3.889325 -6.828824 0
M  V30 38 C -4.719516 4.623518 -7.743628 0
M  V30 39 C -4.333953 5.984938 -7.347617 0
M  V30 40 Se -5.093584 6.075576 -5.369391 0 VAL=2
M  V30 41 C -5.691467 -0.384062 -0.962451 0
M  V30 42 C -2.841839 -0.291551 1.165919 0
M  V30 43 C -1.519839 -0.035576 1.558271 0
M  V30 44 C -1.049536 1.306507 1.964418 0
M  V30 45 C -0.382563 1.328352 3.312173 0
M  V30 46 H 4.954148 -1.619386 1.946309 0
M  V30 47 H 7.688993 -0.692239 2.935884 0
M  V30 48 H 7.097523 -2.009855 3.960313 0
M  V30 49 H 8.872867 -2.638826 2.431051 0
M  V30 50 H 7.891947 -2.234180 0.994622 0
M  V30 51 H 8.780334 -4.206908 0.556931 0
M  V30 52 H 9.043429 -5.021673 2.102072 0
M  V30 53 H 7.754221 -6.187410 -0.236929 0
M  V30 54 H 8.273457 -6.999391 1.282262 0
M  V30 55 H 4.630487 -5.460853 0.551004 0
M  V30 56 H 6.091401 -5.194225 -0.465853 0
M  V30 57 H 5.221282 -3.924722 2.127894 0
M  V30 58 H 5.976032 -3.140750 0.632791 0
M  V30 59 H 3.983424 1.821960 4.594477 0
M  V30 60 H 1.591432 2.461529 4.483265 0
M  V30 61 H 3.037348 -1.567970 2.181772 0
M  V30 62 H -0.512999 -3.299825 1.130482 0
M  V30 63 H -2.942261 -3.525146 0.464417 0
M  V30 64 H -4.867267 -2.301895 1.010147 0
M  V30 65 H -7.114101 -2.119559 1.443181 0
M  V30 66 H -9.191081 -1.454856 0.403262 0
M  V30 67 H -6.126596 1.064313 -3.084030 0
M  V30 68 H -6.668560 1.808533 -5.765922 0
M  V30 69 H -5.643625 2.894930 -7.171182 0
M  V30 70 H -4.392458 4.436929 -8.746132 0
M  V30 71 H -3.755250 6.772878 -7.999683 0
M  V30 72 H -4.876063 0.039847 -1.524755 0
M  V30 73 H -3.393136 0.659669 1.228022 0
M  V30 74 H -1.883768 2.041142 1.984482 0
M  V30 75 H -0.296644 1.653594 1.239328 0
M  V30 76 H -0.941292 0.802635 4.112052 0
M  V30 77 H -0.338067 2.403104 3.608852 0
M  V30 END ATOM
M  V30 BEGIN BOND
M  V30 1 2 1 2
M  V30 2 1 2 3
M  V30 3 1 3 4
M  V30 4 1 4 5
M  V30 5 1 5 6
M  V30 6 1 6 7
M  V30 7 1 7 8
M  V30 8 1 8 9
M  V30 9 1 9 10
M  V30 10 1 10 11
M  V30 11 1 2 12
M  V30 12 2 12 13
M  V30 13 1 13 14
M  V30 14 2 14 15
M  V30 15 1 15 16
M  V30 16 2 16 17
M  V30 17 1 16 18
M  V30 18 2 18 19
M  V30 19 1 18 20
M  V30 20 2 20 21
M  V30 21 1 21 22
M  V30 22 2 22 23
M  V30 23 1 23 24
M  V30 24 1 24 25
M  V30 25 2 25 26
M  V30 26 1 26 27
M  V30 27 2 27 28
M  V30 28 1 28 29
M  V30 29 1 28 30
M  V30 30 1 30 31
M  V30 31 2 31 32
M  V30 32 1 32 33
M  V30 33 1 33 34
M  V30 34 2 34 35
M  V30 35 1 34 36
M  V30 36 2 36 37
M  V30 37 1 37 38
M  V30 38 2 38 39
M  V30 39 1 39 40
M  V30 40 2 30 41
M  V30 41 1 23 42
M  V30 42 2 42 43
M  V30 43 1 43 44
M  V30 44 1 44 45
M  V30 45 1 11 6
M  V30 46 1 17 12
M  V30 47 1 43 20
M  V30 48 1 45 15
M  V30 49 1 41 25
M  V30 50 1 40 36
M  V30 51 1 3 46
M  V30 52 1 4 47
M  V30 53 1 4 48
M  V30 54 1 5 49
M  V30 55 1 5 50
M  V30 56 1 7 51
M  V30 57 1 7 52
M  V30 58 1 8 53
M  V30 59 1 8 54
M  V30 60 1 10 55
M  V30 61 1 10 56
M  V30 62 1 11 57
M  V30 63 1 11 58
M  V30 64 1 13 59
M  V30 65 1 14 60
M  V30 66 1 17 61
M  V30 67 1 21 62
M  V30 68 1 22 63
M  V30 69 1 24 64
M  V30 70 1 26 65
M  V30 71 1 27 66
M  V30 72 1 31 67
M  V30 73 1 33 68
M  V30 74 1 37 69
M  V30 75 1 38 70
M  V30 76 1 39 71
M  V30 77 1 41 72
M  V30 78 1 42 73
M  V30 79 1 44 74
M  V30 80 1 44 75
M  V30 81 1 45 76
M  V30 82 1 45 77
M  V30 END BOND
M  V30 END CTAB
M  END
>  <Dataset>  (377) 
ChEMBL_Kinases

>  <Ligand_Instance>  (377) 
nan

>  <PDB_ID>  (377) 
nan

>  <Standardized_SMILES>  (377) 
O=C(NCCN1CCOCC1)c1ccc2c(c1)C(=O)c1ccc(Nc3ccc(F)c(/C=N/NC(=O)c4ccc[se]4)c3)cc1CC2

>  <Name>  (377) 
nan

>  <Pocket>  (377) 
nan

>  <ATP_Site>  (377) 
nan

>  <Peripheral>  (377) 
nan

>  <Num_H_Atoms_ProtBoundConf>  (377) 
nan

>  <Num_Resolved_Atoms>  (377) 
nan

>  <Num_Not_Resolved_Atoms>  (377) 
nan

$$$$
CHEMBL4534196
     RDKit          3D

  0  0  0  0  0  0  0  0  0  0999 V3000
M  V30 BEGIN CTAB
M  V30 COUNTS 43 46 0 0 0
M  V30 BEGIN ATOM
M  V30 1 C -0.669601 -4.637959 3.526094 0
M  V30 2 C -0.242774 -5.092078 2.162524 0
M  V30 3 C -1.117734 -4.561797 1.057829 0
M  V30 4 O -2.417743 -4.995667 1.257829 0
M  V30 5 C -1.026284 -3.109083 0.931782 0
M  V30 6 C -0.968786 -1.907404 0.836126 0
M  V30 7 C -0.921072 -0.474738 0.736025 0
M  V30 8 C 0.266859 0.144815 0.401749 0
M  V30 9 C 0.300708 1.519030 0.308700 0
M  V30 10 N 1.440182 2.309416 -0.024021 0
M  V30 11 C 2.295403 2.271528 -1.050098 0
M  V30 12 C 3.242357 3.278499 -0.895898 0
M  V30 13 C 2.945329 3.941267 0.259590 0
M  V30 14 C 3.565904 5.024999 0.882010 0
M  V30 15 N 3.032280 5.469856 2.040394 0
M  V30 16 C 1.935640 4.873068 2.562212 0
M  V30 17 N 1.277155 5.241684 3.769829 0
M  V30 18 N 1.362674 3.835818 1.942449 0
M  V30 19 C 1.832758 3.323339 0.773649 0
M  V30 20 C -0.866604 2.245194 0.554982 0
M  V30 21 C -2.049034 1.610622 0.888813 0
M  V30 22 N -2.001832 0.267226 0.959759 0
M  V30 23 C -0.575488 -5.145725 -0.204375 0
M  V30 24 N 0.245641 -5.832388 -0.609165 0
M  V30 25 C 0.500048 -6.191536 -1.850898 0
M  V30 26 C -0.432061 -5.601909 -2.838941 0
M  V30 27 S -1.561127 -4.582206 -1.706438 0
M  V30 28 H 0.183525 -4.348185 4.181477 0
M  V30 29 H -1.410616 -3.815972 3.498877 0
M  V30 30 H -1.169703 -5.483447 4.044213 0
M  V30 31 H -0.247451 -6.200016 2.115720 0
M  V30 32 H 0.816769 -4.792358 2.047369 0
M  V30 33 H -3.036757 -4.363115 0.777786 0
M  V30 34 H 1.179672 -0.372307 0.206036 0
M  V30 35 H 2.225867 1.562653 -1.842481 0
M  V30 36 H 4.064769 3.516822 -1.544628 0
M  V30 37 H 4.441797 5.511975 0.477924 0
M  V30 38 H 0.632868 6.000160 4.084334 0
M  V30 39 H 1.522110 4.555145 4.518107 0
M  V30 40 H -0.890795 3.321776 0.494735 0
M  V30 41 H -2.972165 2.165511 1.084773 0
M  V30 42 H 1.338207 -6.856480 -1.989901 0
M  V30 43 H -0.095927 -6.005413 -3.938062 0
M  V30 END ATOM
M  V30 BEGIN BOND
M  V30 1 1 1 2
M  V30 2 1 2 3
M  V30 3 1 3 4
M  V30 4 1 3 5
M  V30 5 3 5 6
M  V30 6 1 6 7
M  V30 7 2 7 8
M  V30 8 1 8 9
M  V30 9 1 9 10
M  V30 10 1 10 11
M  V30 11 2 11 12
M  V30 12 1 12 13
M  V30 13 2 13 14
M  V30 14 1 14 15
M  V30 15 2 15 16
M  V30 16 1 16 17
M  V30 17 1 16 18
M  V30 18 2 18 19
M  V30 19 2 9 20
M  V30 20 1 20 21
M  V30 21 2 21 22
M  V30 22 1 3 23
M  V30 23 2 23 24
M  V30 24 1 24 25
M  V30 25 2 25 26
M  V30 26 1 26 27
M  V30 27 1 22 7
M  V30 28 1 27 23
M  V30 29 1 19 10
M  V30 30 1 19 13
M  V30 31 1 1 28
M  V30 32 1 1 29
M  V30 33 1 1 30
M  V30 34 1 2 31
M  V30 35 1 2 32
M  V30 36 1 4 33
M  V30 37 1 8 34
M  V30 38 1 11 35
M  V30 39 1 12 36
M  V30 40 1 14 37
M  V30 41 1 17 38
M  V30 42 1 17 39
M  V30 43 1 20 40
M  V30 44 1 21 41
M  V30 45 1 25 42
M  V30 46 1 26 43
M  V30 END BOND
M  V30 END CTAB
M  END
>  <Dataset>  (378) 
ChEMBL_Kinases

>  <Ligand_Instance>  (378) 
nan

>  <PDB_ID>  (378) 
nan

>  <Standardized_SMILES>  (378) 
CCC(O)(C#Cc1cc(-n2ccc3cnc(N)nc32)ccn1)c1nccs1

>  <Name>  (378) 
nan

>  <Pocket>  (378) 
nan

>  <ATP_Site>  (378) 
nan

>  <Peripheral>  (378) 
nan

>  <Num_H_Atoms_ProtBoundConf>  (378) 
nan

>  <Num_Resolved_Atoms>  (378) 
nan

>  <Num_Not_Resolved_Atoms>  (378) 
nan

$$$$
CHEMBL4534124
     RDKit          3D

  0  0  0  0  0  0  0  0  0  0999 V3000
M  V30 BEGIN CTAB
M  V30 COUNTS 74 77 0 0 0
M  V30 BEGIN ATOM
M  V30 1 C 2.522889 -3.426745 4.555384 0
M  V30 2 N 3.458402 -4.224939 3.788745 0
M  V30 3 C 3.252934 -5.611453 4.292608 0
M  V30 4 C 3.139628 -4.320530 2.405544 0
M  V30 5 C 3.246182 -3.132867 1.573212 0
M  V30 6 C 3.605729 -1.906400 1.815934 0
M  V30 7 C 3.647172 -0.840774 0.837313 0
M  V30 8 O 4.000064 0.331166 1.042754 0
M  V30 9 N 3.258698 -1.113440 -0.466211 0
M  V30 10 C 3.073945 -0.590274 -1.789539 0
M  V30 11 C 3.833144 -0.538494 -2.928256 0
M  V30 12 C 3.323158 0.096994 -4.034146 0
M  V30 13 C 2.060184 0.671299 -3.982426 0
M  V30 14 C 1.248110 0.661593 -2.892448 0
M  V30 15 C -0.089247 1.307453 -2.987361 0
M  V30 16 N -1.003624 0.215800 -3.334748 0
M  V30 17 C -1.062511 -0.766649 -2.299147 0
M  V30 18 C -2.266143 -1.667055 -2.435724 0
M  V30 19 C -3.536719 -0.832807 -2.337092 0
M  V30 20 N -3.847803 -0.729924 -0.893487 0
M  V30 21 C -4.928494 -1.335445 -0.117367 0
M  V30 22 O -5.366321 -1.877679 -1.101251 0
M  V30 23 C -4.625873 -0.801765 1.238795 0
M  V30 24 N -5.866438 -1.431187 1.620486 0
M  V30 25 N -6.087265 -1.240854 2.870850 0
M  V30 26 C -5.202240 -0.539527 3.546421 0
M  V30 27 C -4.349610 -0.314020 2.479033 0
M  V30 28 N -3.108886 0.353425 2.193324 0
M  V30 29 C -1.697673 0.397762 2.071823 0
M  V30 30 O -1.184790 -0.741707 2.382762 0
M  V30 31 C -0.874505 1.508346 1.675933 0
M  V30 32 C -1.173754 2.631135 0.940083 0
M  V30 33 Cl -2.742106 2.755805 0.216266 0
M  V30 34 C -0.307921 3.660322 0.691197 0
M  V30 35 C 0.958501 3.599423 1.198326 0
M  V30 36 C 1.297839 2.493428 1.939681 0
M  V30 37 C 0.394850 1.439810 2.185463 0
M  V30 38 Cl 1.062701 0.140325 3.160495 0
M  V30 39 C -3.439269 0.495780 -2.998895 0
M  V30 40 C -2.244985 0.628403 -3.877700 0
M  V30 41 C 1.796782 0.014361 -1.801103 0
M  V30 42 H 3.129906 -2.859239 5.310471 0
M  V30 43 H 1.821626 -4.049044 5.175190 0
M  V30 44 H 1.875053 -2.787816 3.952317 0
M  V30 45 H 3.882126 -6.308594 3.733051 0
M  V30 46 H 2.186800 -5.858307 4.001331 0
M  V30 47 H 3.296175 -5.663378 5.382850 0
M  V30 48 H 3.875573 -5.074456 1.972168 0
M  V30 49 H 2.156024 -4.845811 2.336471 0
M  V30 50 H 2.946984 -3.459378 0.590519 0
M  V30 51 H 3.883901 -1.683429 2.824068 0
M  V30 52 H 2.959773 -2.088325 -0.786270 0
M  V30 53 H 4.758159 -1.053508 -2.732237 0
M  V30 54 H 4.013730 0.076310 -4.879407 0
M  V30 55 H 1.728093 1.154212 -4.904767 0
M  V30 56 H -0.101962 2.131407 -3.703574 0
M  V30 57 H -0.418208 1.688051 -1.983856 0
M  V30 58 H -1.089917 -0.270623 -1.276648 0
M  V30 59 H -0.158893 -1.414184 -2.283086 0
M  V30 60 H -2.264608 -2.356838 -1.568642 0
M  V30 61 H -2.230379 -2.135285 -3.409764 0
M  V30 62 H -4.315679 -1.436254 -2.873570 0
M  V30 63 H -3.025913 -0.079638 -0.643069 0
M  V30 64 H -6.848663 -1.488937 3.621106 0
M  V30 65 H -4.777452 -0.065065 4.399175 0
M  V30 66 H -3.366548 1.386613 2.009731 0
M  V30 67 H -0.606758 4.519465 0.102335 0
M  V30 68 H 1.636013 4.420633 0.993054 0
M  V30 69 H 2.313181 2.486794 2.327185 0
M  V30 70 H -3.486015 1.364077 -2.305205 0
M  V30 71 H -4.332333 0.676331 -3.684762 0
M  V30 72 H -2.129876 1.700501 -4.174040 0
M  V30 73 H -2.379289 0.096326 -4.859055 0
M  V30 74 H 1.130852 0.044091 -0.917141 0
M  V30 END ATOM
M  V30 BEGIN BOND
M  V30 1 1 1 2
M  V30 2 1 2 3
M  V30 3 1 2 4
M  V30 4 1 4 5
M  V30 5 2 5 6
M  V30 6 1 6 7
M  V30 7 2 7 8
M  V30 8 1 7 9
M  V30 9 1 9 10
M  V30 10 2 10 11
M  V30 11 1 11 12
M  V30 12 2 12 13
M  V30 13 1 13 14
M  V30 14 1 14 15
M  V30 15 1 15 16
M  V30 16 1 16 17
M  V30 17 1 17 18
M  V30 18 1 18 19
M  V30 19 1 19 20
M  V30 20 1 20 21
M  V30 21 2 21 22
M  V30 22 1 21 23
M  V30 23 2 23 24
M  V30 24 1 24 25
M  V30 25 1 25 26
M  V30 26 2 26 27
M  V30 27 1 27 28
M  V30 28 1 28 29
M  V30 29 2 29 30
M  V30 30 1 29 31
M  V30 31 2 31 32
M  V30 32 1 32 33
M  V30 33 1 32 34
M  V30 34 2 34 35
M  V30 35 1 35 36
M  V30 36 2 36 37
M  V30 37 1 37 38
M  V30 38 1 19 39
M  V30 39 1 39 40
M  V30 40 2 14 41
M  V30 41 1 41 10
M  V30 42 1 40 16
M  V30 43 1 27 23
M  V30 44 1 37 31
M  V30 45 1 1 42
M  V30 46 1 1 43
M  V30 47 1 1 44
M  V30 48 1 3 45
M  V30 49 1 3 46
M  V30 50 1 3 47
M  V30 51 1 4 48
M  V30 52 1 4 49
M  V30 53 1 5 50
M  V30 54 1 6 51
M  V30 55 1 9 52
M  V30 56 1 11 53
M  V30 57 1 12 54
M  V30 58 1 13 55
M  V30 59 1 15 56
M  V30 60 1 15 57
M  V30 61 1 17 58
M  V30 62 1 17 59
M  V30 63 1 18 60
M  V30 64 1 18 61
M  V30 65 1 19 62
M  V30 66 1 20 63
M  V30 67 1 25 64
M  V30 68 1 26 65
M  V30 69 1 28 66
M  V30 70 1 34 67
M  V30 71 1 35 68
M  V30 72 1 36 69
M  V30 73 1 39 70
M  V30 74 1 39 71
M  V30 75 1 40 72
M  V30 76 1 40 73
M  V30 77 1 41 74
M  V30 END BOND
M  V30 END CTAB
M  END
>  <Dataset>  (379) 
ChEMBL_Kinases

>  <Ligand_Instance>  (379) 
nan

>  <PDB_ID>  (379) 
nan

>  <Standardized_SMILES>  (379) 
CN(C)C/C=C/C(=O)Nc1cccc(CN2CCC(NC(=O)c3n[nH]cc3NC(=O)c3c(Cl)cccc3Cl)CC2)c1

>  <Name>  (379) 
nan

>  <Pocket>  (379) 
nan

>  <ATP_Site>  (379) 
nan

>  <Peripheral>  (379) 
nan

>  <Num_H_Atoms_ProtBoundConf>  (379) 
nan

>  <Num_Resolved_Atoms>  (379) 
nan

>  <Num_Not_Resolved_Atoms>  (379) 
nan

$$$$
CHEMBL4534080
     RDKit          3D

  0  0  0  0  0  0  0  0  0  0999 V3000
M  V30 BEGIN CTAB
M  V30 COUNTS 44 47 0 0 0
M  V30 BEGIN ATOM
M  V30 1 C 2.161684 -2.312254 4.247550 0
M  V30 2 C 1.938985 -1.371934 3.115263 0
M  V30 3 C 2.301426 -0.042740 3.171243 0
M  V30 4 C 2.062547 0.768185 2.080243 0
M  V30 5 C 1.464272 0.206064 0.968112 0
M  V30 6 C 1.205851 1.032209 -0.180155 0
M  V30 7 C 0.967545 1.724018 -1.145795 0
M  V30 8 C 0.650806 2.573317 -2.321850 0
M  V30 9 C 1.949296 2.809273 -3.007388 0
M  V30 10 O -0.259882 1.933487 -3.150759 0
M  V30 11 C 0.108992 3.887706 -1.872642 0
M  V30 12 N -0.675405 4.798730 -2.419685 0
M  V30 13 C -0.908052 5.856414 -1.627432 0
M  V30 14 C -0.423910 6.084003 -0.332369 0
M  V30 15 S 0.565330 4.498388 -0.171762 0
M  V30 16 C 1.090963 -1.104304 0.873788 0
M  V30 17 C 1.341323 -1.909167 1.989078 0
M  V30 18 N 0.961214 -3.300679 1.928819 0
M  V30 19 C 1.716757 -4.421965 1.999146 0
M  V30 20 C 0.849455 -5.496555 1.888379 0
M  V30 21 C -0.454826 -5.012105 1.748518 0
M  V30 22 C -1.648101 -5.690790 1.606303 0
M  V30 23 N -2.789543 -4.953088 1.487906 0
M  V30 24 C -2.682532 -3.632685 1.516679 0
M  V30 25 N -3.852945 -2.837452 1.395761 0
M  V30 26 N -1.509023 -2.953954 1.656681 0
M  V30 27 C -0.333239 -3.637477 1.779613 0
M  V30 28 H 2.224217 -1.687083 5.180821 0
M  V30 29 H 1.286187 -2.990273 4.387783 0
M  V30 30 H 3.066957 -2.925120 4.151274 0
M  V30 31 H 2.769011 0.359312 4.063724 0
M  V30 32 H 2.321905 1.818755 2.058163 0
M  V30 33 H 2.831370 2.737478 -2.318721 0
M  V30 34 H 1.960786 3.841655 -3.411173 0
M  V30 35 H 2.062319 2.112315 -3.864460 0
M  V30 36 H -0.912954 1.369321 -2.654591 0
M  V30 37 H -1.568642 6.527128 -2.205115 0
M  V30 38 H -0.652171 6.898960 0.174958 0
M  V30 39 H 0.624585 -1.520634 -0.006828 0
M  V30 40 H 2.779515 -4.382976 2.118628 0
M  V30 41 H 1.197423 -6.524967 1.914262 0
M  V30 42 H -1.711637 -6.771372 1.585450 0
M  V30 43 H -4.191594 -2.673751 0.421154 0
M  V30 44 H -4.488379 -2.354211 2.059015 0
M  V30 END ATOM
M  V30 BEGIN BOND
M  V30 1 1 1 2
M  V30 2 2 2 3
M  V30 3 1 3 4
M  V30 4 2 4 5
M  V30 5 1 5 6
M  V30 6 3 6 7
M  V30 7 1 7 8
M  V30 8 1 8 9
M  V30 9 1 8 10
M  V30 10 1 8 11
M  V30 11 2 11 12
M  V30 12 1 12 13
M  V30 13 2 13 14
M  V30 14 1 14 15
M  V30 15 1 5 16
M  V30 16 2 16 17
M  V30 17 1 17 18
M  V30 18 1 18 19
M  V30 19 2 19 20
M  V30 20 1 20 21
M  V30 21 2 21 22
M  V30 22 1 22 23
M  V30 23 2 23 24
M  V30 24 1 24 25
M  V30 25 1 24 26
M  V30 26 2 26 27
M  V30 27 1 17 2
M  V30 28 1 27 18
M  V30 29 1 15 11
M  V30 30 1 27 21
M  V30 31 1 1 28
M  V30 32 1 1 29
M  V30 33 1 1 30
M  V30 34 1 3 31
M  V30 35 1 4 32
M  V30 36 1 9 33
M  V30 37 1 9 34
M  V30 38 1 9 35
M  V30 39 1 10 36
M  V30 40 1 13 37
M  V30 41 1 14 38
M  V30 42 1 16 39
M  V30 43 1 19 40
M  V30 44 1 20 41
M  V30 45 1 22 42
M  V30 46 1 25 43
M  V30 47 1 25 44
M  V30 END BOND
M  V30 END CTAB
M  END
>  <Dataset>  (380) 
ChEMBL_Kinases

>  <Ligand_Instance>  (380) 
nan

>  <PDB_ID>  (380) 
nan

>  <Standardized_SMILES>  (380) 
Cc1ccc(C#CC(C)(O)c2nccs2)cc1-n1ccc2cnc(N)nc21

>  <Name>  (380) 
nan

>  <Pocket>  (380) 
nan

>  <ATP_Site>  (380) 
nan

>  <Peripheral>  (380) 
nan

>  <Num_H_Atoms_ProtBoundConf>  (380) 
nan

>  <Num_Resolved_Atoms>  (380) 
nan

>  <Num_Not_Resolved_Atoms>  (380) 
nan

$$$$
CHEMBL4642925
     RDKit          3D

  0  0  0  0  0  0  0  0  0  0999 V3000
M  V30 BEGIN CTAB
M  V30 COUNTS 58 61 0 0 0
M  V30 BEGIN ATOM
M  V30 1 C 1.106754 -5.862839 4.254411 0
M  V30 2 C 2.314153 -5.169730 3.681168 0
M  V30 3 O 1.874008 -3.996556 3.010345 0
M  V30 4 C 2.689913 -3.118019 2.386819 0
M  V30 5 O 3.688832 -3.807055 2.708860 0
M  V30 6 C 2.861232 -1.903830 1.623437 0
M  V30 7 C 4.130407 -1.535655 1.282900 0
M  V30 8 N 4.172839 -0.402586 0.592455 0
M  V30 9 C 3.150202 0.365040 0.222060 0
M  V30 10 C 3.537222 1.475660 -0.499816 0
M  V30 11 C 2.524416 2.328390 -0.939018 0
M  V30 12 C 1.237015 1.965181 -0.600793 0
M  V30 13 C 0.158693 2.830229 -1.059182 0
M  V30 14 C -1.174456 2.601743 -0.823388 0
M  V30 15 C -2.251038 3.360214 -1.211229 0
M  V30 16 Cl -3.914771 2.969611 -0.849080 0
M  V30 17 C -1.958232 4.498730 -1.930323 0
M  V30 18 O -2.931168 5.388807 -2.405405 0
M  V30 19 C -0.632621 4.818317 -2.221917 0
M  V30 20 Cl -0.270822 6.266670 -3.135701 0
M  V30 21 C 0.381817 3.976618 -1.778723 0
M  V30 22 N 0.946246 0.862254 0.108741 0
M  V30 23 C 1.865464 0.003696 0.560053 0
M  V30 24 C 1.714946 -1.161567 1.279845 0
M  V30 25 N 0.362153 -1.500584 1.581144 0
M  V30 26 C -0.967611 -1.855334 1.887731 0 CFG=1
M  V30 27 C -1.901977 -0.672406 1.621745 0
M  V30 28 C -2.801859 -0.876622 0.443417 0
M  V30 29 C -2.066463 -1.396318 -0.746099 0 CFG=2
M  V30 30 C -2.983004 -1.683749 -1.916449 0
M  V30 31 O -2.295637 -2.169637 -3.024551 0
M  V30 32 C -1.361170 -2.697923 -0.417814 0
M  V30 33 C -1.553383 -2.983916 1.046064 0
M  V30 34 H 1.036674 -6.936768 4.032636 0
M  V30 35 H 1.081556 -5.772951 5.379353 0
M  V30 36 H 0.165736 -5.396707 3.837178 0
M  V30 37 H 3.093880 -4.951637 4.442733 0
M  V30 38 H 2.801673 -5.834473 2.927859 0
M  V30 39 H 4.966784 -2.148627 1.576145 0
M  V30 40 H 4.565238 1.711359 -0.736693 0
M  V30 41 H 2.853263 3.182080 -1.497151 0
M  V30 42 H -1.461651 1.720855 -0.270200 0
M  V30 43 H -3.867382 5.406681 -1.993615 0
M  V30 44 H 1.367233 4.305351 -2.051632 0
M  V30 45 H 0.528199 -2.476124 1.975969 0
M  V30 46 H -1.165352 -2.102833 2.961547 0
M  V30 47 H -1.344104 0.254014 1.525612 0
M  V30 48 H -2.605336 -0.540633 2.506294 0
M  V30 49 H -3.192494 0.155414 0.185222 0
M  V30 50 H -3.735439 -1.446771 0.655258 0
M  V30 51 H -1.365413 -0.606281 -1.082785 0
M  V30 52 H -3.750464 -2.448376 -1.666076 0
M  V30 53 H -3.547454 -0.789189 -2.248681 0
M  V30 54 H -2.486242 -3.125829 -3.203747 0
M  V30 55 H -1.741271 -3.549009 -1.003419 0
M  V30 56 H -0.301830 -2.570147 -0.699753 0
M  V30 57 H -2.635903 -3.007833 1.262678 0
M  V30 58 H -1.167397 -3.986253 1.340827 0
M  V30 END ATOM
M  V30 BEGIN BOND
M  V30 1 1 1 2
M  V30 2 1 2 3
M  V30 3 1 3 4
M  V30 4 2 4 5
M  V30 5 1 4 6
M  V30 6 2 6 7
M  V30 7 1 7 8
M  V30 8 2 8 9
M  V30 9 1 9 10
M  V30 10 2 10 11
M  V30 11 1 11 12
M  V30 12 1 12 13
M  V30 13 2 13 14
M  V30 14 1 14 15
M  V30 15 1 15 16
M  V30 16 2 15 17
M  V30 17 1 17 18
M  V30 18 1 17 19
M  V30 19 1 19 20
M  V30 20 2 19 21
M  V30 21 2 12 22
M  V30 22 1 22 23
M  V30 23 2 23 24
M  V30 24 1 24 25
M  V30 25 1 25 26
M  V30 26 1 26 27
M  V30 27 1 27 28
M  V30 28 1 28 29
M  V30 29 1 29 30
M  V30 30 1 30 31
M  V30 31 1 29 32
M  V30 32 1 32 33
M  V30 33 1 24 6
M  V30 34 1 33 26
M  V30 35 1 23 9
M  V30 36 1 21 13
M  V30 37 1 1 34
M  V30 38 1 1 35
M  V30 39 1 1 36
M  V30 40 1 2 37
M  V30 41 1 2 38
M  V30 42 1 7 39
M  V30 43 1 10 40
M  V30 44 1 11 41
M  V30 45 1 14 42
M  V30 46 1 18 43
M  V30 47 1 21 44
M  V30 48 1 25 45
M  V30 49 1 26 46 CFG=1
M  V30 50 1 27 47
M  V30 51 1 27 48
M  V30 52 1 28 49
M  V30 53 1 28 50
M  V30 54 1 29 51 CFG=3
M  V30 55 1 30 52
M  V30 56 1 30 53
M  V30 57 1 31 54
M  V30 58 1 32 55
M  V30 59 1 32 56
M  V30 60 1 33 57
M  V30 61 1 33 58
M  V30 END BOND
M  V30 END CTAB
M  END
>  <Dataset>  (381) 
ChEMBL_Kinases

>  <Ligand_Instance>  (381) 
nan

>  <PDB_ID>  (381) 
nan

>  <Standardized_SMILES>  (381) 
CCOC(=O)c1cnc2ccc(-c3cc(Cl)c(O)c(Cl)c3)nc2c1N[C@H]1CC[C@H](CO)CC1

>  <Name>  (381) 
nan

>  <Pocket>  (381) 
nan

>  <ATP_Site>  (381) 
nan

>  <Peripheral>  (381) 
nan

>  <Num_H_Atoms_ProtBoundConf>  (381) 
nan

>  <Num_Resolved_Atoms>  (381) 
nan

>  <Num_Not_Resolved_Atoms>  (381) 
nan

$$$$
CHEMBL4642983
     RDKit          3D

  0  0  0  0  0  0  0  0  0  0999 V3000
M  V30 BEGIN CTAB
M  V30 COUNTS 69 73 0 0 0
M  V30 BEGIN ATOM
M  V30 1 C 3.149921 -1.005695 3.557362 0
M  V30 2 O 3.087852 -0.869941 2.151466 0
M  V30 3 C 2.082553 -0.113074 1.583349 0
M  V30 4 C 1.115645 0.530588 2.334321 0
M  V30 5 C 0.129372 1.276191 1.725453 0
M  V30 6 C 0.052537 1.420396 0.352978 0
M  V30 7 C 1.016296 0.781019 -0.431791 0
M  V30 8 C 1.143534 0.789755 -1.883113 0
M  V30 9 N 2.140599 1.245058 -2.691839 0
M  V30 10 N 1.822602 1.038775 -3.948547 0
M  V30 11 C 2.631815 1.386521 -5.063650 0
M  V30 12 C 2.166001 1.453876 -6.358309 0
M  V30 13 C 2.931354 1.787419 -7.449213 0
M  V30 14 C 4.266284 2.081108 -7.259842 0
M  V30 15 C 4.794055 2.030237 -5.975819 0
M  V30 16 C 3.973750 1.686006 -4.906279 0
M  V30 17 C 0.613138 0.443472 -4.037123 0
M  V30 18 C 0.174487 0.282414 -2.717841 0
M  V30 19 C -1.120741 -0.340440 -2.503068 0
M  V30 20 C -2.292501 0.199906 -3.009631 0
M  V30 21 C -3.536511 -0.365999 -2.829989 0
M  V30 22 N -3.609147 -1.488110 -2.133871 0
M  V30 23 C -2.551339 -2.116288 -1.587989 0
M  V30 24 N -2.508334 -3.309115 -0.824543 0
M  V30 25 C -2.548536 -3.851227 0.491311 0
M  V30 26 C -3.795577 -3.627368 1.274329 0
M  V30 27 C -4.160491 -2.203455 1.525046 0
M  V30 28 N -3.175968 -1.443413 2.255627 0
M  V30 29 C -2.762029 -1.785907 3.568657 0
M  V30 30 O -3.274096 -2.786728 4.105996 0
M  V30 31 N -1.798898 -1.048430 4.295199 0
M  V30 32 C -1.291345 -1.265432 5.595852 0
M  V30 33 C -0.353009 -0.395031 6.110009 0
M  V30 34 C 0.187358 -0.543896 7.365830 0
M  V30 35 C -0.175745 -1.576224 8.193125 0
M  V30 36 Cl 0.532240 -1.724816 9.773677 0
M  V30 37 C -1.106925 -2.462755 7.715617 0
M  V30 38 Cl -1.606480 -3.800862 8.729623 0
M  V30 39 C -1.628712 -2.285488 6.454062 0
M  V30 40 C -1.299362 -1.519832 -1.785810 0
M  V30 41 C 2.017754 0.023429 0.191150 0
M  V30 42 H 3.811199 -1.854547 3.829398 0
M  V30 43 H 2.165546 -1.198407 4.000468 0
M  V30 44 H 3.516970 -0.045159 3.965526 0
M  V30 45 H 1.126264 0.454918 3.407301 0
M  V30 46 H -0.637683 1.787613 2.309659 0
M  V30 47 H -0.671290 1.975125 -0.211076 0
M  V30 48 H 1.109933 1.221050 -6.491400 0
M  V30 49 H 2.482669 1.816297 -8.439311 0
M  V30 50 H 4.901146 2.348666 -8.100864 0
M  V30 51 H 5.838731 2.258235 -5.821590 0
M  V30 52 H 4.441227 1.662905 -3.929462 0
M  V30 53 H 0.143825 0.176907 -4.980149 0
M  V30 54 H -2.195305 1.124072 -3.578631 0
M  V30 55 H -4.437311 0.077987 -3.237334 0
M  V30 56 H -2.413966 -3.938864 -1.675999 0
M  V30 57 H -1.700980 -3.415741 1.072480 0
M  V30 58 H -2.319857 -4.941917 0.409822 0
M  V30 59 H -3.647802 -4.128485 2.265148 0
M  V30 60 H -4.675288 -4.192727 0.839849 0
M  V30 61 H -5.166191 -2.137545 2.006253 0
M  V30 62 H -4.304312 -1.727817 0.528559 0
M  V30 63 H -2.726284 -0.586505 1.814529 0
M  V30 64 H -1.430519 -0.231379 3.760795 0
M  V30 65 H -0.020992 0.445832 5.508566 0
M  V30 66 H 0.918099 0.181848 7.693197 0
M  V30 67 H -2.347203 -3.016304 6.154095 0
M  V30 68 H -0.385513 -1.946474 -1.388043 0
M  V30 69 H 2.800327 -0.502009 -0.359235 0
M  V30 END ATOM
M  V30 BEGIN BOND
M  V30 1 1 1 2
M  V30 2 1 2 3
M  V30 3 2 3 4
M  V30 4 1 4 5
M  V30 5 2 5 6
M  V30 6 1 6 7
M  V30 7 1 7 8
M  V30 8 2 8 9
M  V30 9 1 9 10
M  V30 10 1 10 11
M  V30 11 2 11 12
M  V30 12 1 12 13
M  V30 13 2 13 14
M  V30 14 1 14 15
M  V30 15 2 15 16
M  V30 16 1 10 17
M  V30 17 2 17 18
M  V30 18 1 18 19
M  V30 19 2 19 20
M  V30 20 1 20 21
M  V30 21 2 21 22
M  V30 22 1 22 23
M  V30 23 1 23 24
M  V30 24 1 24 25
M  V30 25 1 25 26
M  V30 26 1 26 27
M  V30 27 1 27 28
M  V30 28 1 28 29
M  V30 29 2 29 30
M  V30 30 1 29 31
M  V30 31 1 31 32
M  V30 32 2 32 33
M  V30 33 1 33 34
M  V30 34 2 34 35
M  V30 35 1 35 36
M  V30 36 1 35 37
M  V30 37 1 37 38
M  V30 38 2 37 39
M  V30 39 2 23 40
M  V30 40 2 7 41
M  V30 41 1 41 3
M  V30 42 1 18 8
M  V30 43 1 40 19
M  V30 44 1 16 11
M  V30 45 1 39 32
M  V30 46 1 1 42
M  V30 47 1 1 43
M  V30 48 1 1 44
M  V30 49 1 4 45
M  V30 50 1 5 46
M  V30 51 1 6 47
M  V30 52 1 12 48
M  V30 53 1 13 49
M  V30 54 1 14 50
M  V30 55 1 15 51
M  V30 56 1 16 52
M  V30 57 1 17 53
M  V30 58 1 20 54
M  V30 59 1 21 55
M  V30 60 1 24 56
M  V30 61 1 25 57
M  V30 62 1 25 58
M  V30 63 1 26 59
M  V30 64 1 26 60
M  V30 65 1 27 61
M  V30 66 1 27 62
M  V30 67 1 28 63
M  V30 68 1 31 64
M  V30 69 1 33 65
M  V30 70 1 34 66
M  V30 71 1 39 67
M  V30 72 1 40 68
M  V30 73 1 41 69
M  V30 END BOND
M  V30 END CTAB
M  END
>  <Dataset>  (382) 
ChEMBL_Kinases

>  <Ligand_Instance>  (382) 
nan

>  <PDB_ID>  (382) 
nan

>  <Standardized_SMILES>  (382) 
COc1cccc(-c2nn(-c3ccccc3)cc2-c2ccnc(NCCCNC(=O)Nc3ccc(Cl)c(Cl)c3)c2)c1

>  <Name>  (382) 
nan

>  <Pocket>  (382) 
nan

>  <ATP_Site>  (382) 
nan

>  <Peripheral>  (382) 
nan

>  <Num_H_Atoms_ProtBoundConf>  (382) 
nan

>  <Num_Resolved_Atoms>  (382) 
nan

>  <Num_Not_Resolved_Atoms>  (382) 
nan

$$$$
CHEMBL4533936
     RDKit          3D

  0  0  0  0  0  0  0  0  0  0999 V3000
M  V30 BEGIN CTAB
M  V30 COUNTS 37 40 0 0 0
M  V30 BEGIN ATOM
M  V30 1 C -0.663764 -4.290378 2.862469 0
M  V30 2 C -0.155756 -3.043047 2.123377 0
M  V30 3 N -1.153509 -2.189732 1.574637 0
M  V30 4 C -0.832009 -1.007663 0.851890 0
M  V30 5 N 0.422262 -0.592374 0.616758 0
M  V30 6 C 0.767271 0.512982 -0.057607 0
M  V30 7 C 2.168264 0.869126 -0.254868 0
M  V30 8 C 3.180519 0.077406 0.245091 0
M  V30 9 C 4.506243 0.414360 0.058807 0
M  V30 10 N 4.848410 1.525547 -0.616309 0
M  V30 11 C 3.863928 2.290185 -1.099281 0
M  V30 12 C 2.503357 2.011613 -0.949260 0
M  V30 13 C 1.487861 2.857901 -1.482695 0
M  V30 14 N 0.655155 3.550156 -1.900693 0
M  V30 15 N -0.196121 1.305642 -0.560788 0
M  V30 16 C -1.516442 0.994960 -0.391025 0
M  V30 17 C -2.505985 1.805707 -0.905166 0
M  V30 18 N -3.810498 1.478127 -0.724085 0
M  V30 19 C -4.143863 0.348060 -0.034215 0
M  V30 20 C -3.118665 -0.428742 0.459589 0
M  V30 21 C -1.775609 -0.159830 0.315132 0
M  V30 22 C 1.171536 -2.554140 2.561336 0
M  V30 23 C 1.041655 -3.328859 1.265033 0
M  V30 24 H -1.624903 -4.074322 3.357425 0
M  V30 25 H 0.096076 -4.641834 3.599138 0
M  V30 26 H -0.824901 -5.067987 2.075145 0
M  V30 27 H -2.137488 -2.479909 1.732124 0
M  V30 28 H 2.986611 -0.828401 0.796452 0
M  V30 29 H 5.292829 -0.235833 0.468730 0
M  V30 30 H 4.056897 3.202340 -1.654801 0
M  V30 31 H -2.174511 2.685523 -1.441132 0
M  V30 32 H -5.191481 0.122624 0.088084 0
M  V30 33 H -3.479533 -1.295612 0.987900 0
M  V30 34 H 1.461663 -1.508005 2.517502 0
M  V30 35 H 1.683144 -3.130963 3.385399 0
M  V30 36 H 1.470730 -4.362356 1.243164 0
M  V30 37 H 1.238275 -2.788699 0.329712 0
M  V30 END ATOM
M  V30 BEGIN BOND
M  V30 1 1 1 2
M  V30 2 1 2 3
M  V30 3 1 3 4
M  V30 4 2 4 5
M  V30 5 1 5 6
M  V30 6 1 6 7
M  V30 7 2 7 8
M  V30 8 1 8 9
M  V30 9 2 9 10
M  V30 10 1 10 11
M  V30 11 2 11 12
M  V30 12 1 12 13
M  V30 13 3 13 14
M  V30 14 2 6 15
M  V30 15 1 15 16
M  V30 16 2 16 17
M  V30 17 1 17 18
M  V30 18 2 18 19
M  V30 19 1 19 20
M  V30 20 2 20 21
M  V30 21 1 2 22
M  V30 22 1 22 23
M  V30 23 1 23 2
M  V30 24 1 21 4
M  V30 25 1 12 7
M  V30 26 1 21 16
M  V30 27 1 1 24
M  V30 28 1 1 25
M  V30 29 1 1 26
M  V30 30 1 3 27
M  V30 31 1 8 28
M  V30 32 1 9 29
M  V30 33 1 11 30
M  V30 34 1 17 31
M  V30 35 1 19 32
M  V30 36 1 20 33
M  V30 37 1 22 34
M  V30 38 1 22 35
M  V30 39 1 23 36
M  V30 40 1 23 37
M  V30 END BOND
M  V30 END CTAB
M  END
>  <Dataset>  (383) 
ChEMBL_Kinases

>  <Ligand_Instance>  (383) 
nan

>  <PDB_ID>  (383) 
nan

>  <Standardized_SMILES>  (383) 
CC1(Nc2nc(-c3ccncc3C#N)nc3cnccc23)CC1

>  <Name>  (383) 
nan

>  <Pocket>  (383) 
nan

>  <ATP_Site>  (383) 
nan

>  <Peripheral>  (383) 
nan

>  <Num_H_Atoms_ProtBoundConf>  (383) 
nan

>  <Num_Resolved_Atoms>  (383) 
nan

>  <Num_Not_Resolved_Atoms>  (383) 
nan

$$$$
CHEMBL4643088
     RDKit          3D

  0  0  0  0  0  0  0  0  0  0999 V3000
M  V30 BEGIN CTAB
M  V30 COUNTS 61 64 0 0 0
M  V30 BEGIN ATOM
M  V30 1 C 2.571467 -5.266134 4.398842 0
M  V30 2 C 3.684816 -4.578898 3.618279 0
M  V30 3 O 3.075425 -3.541646 2.903598 0
M  V30 4 C 3.744997 -2.675809 2.068409 0
M  V30 5 O 4.800018 -3.264633 2.330471 0
M  V30 6 C 3.523699 -1.541170 1.196401 0
M  V30 7 C 4.688839 -1.104560 0.604564 0
M  V30 8 N 4.610669 -0.055521 -0.228908 0
M  V30 9 C 3.414244 0.556254 -0.478366 0
M  V30 10 C 3.403268 1.643857 -1.331278 0
M  V30 11 C 2.180285 2.268641 -1.558216 0
M  V30 12 C 1.015584 1.833142 -0.963726 0
M  V30 13 C -0.215367 2.563791 -1.228514 0
M  V30 14 C -1.435774 2.265262 -0.667802 0
M  V30 15 C -2.619930 2.925660 -0.903131 0
M  V30 16 Cl -4.125850 2.466129 -0.137110 0
M  V30 17 C -2.616264 3.988748 -1.775624 0
M  V30 18 O -3.770145 4.682807 -2.046377 0
M  V30 19 C -1.427628 4.336655 -2.368085 0
M  V30 20 Cl -1.441264 5.690116 -3.473902 0
M  V30 21 C -0.276309 3.632255 -2.088459 0
M  V30 22 N 1.101319 0.770635 -0.148940 0
M  V30 23 C 2.248557 0.117295 0.115910 0
M  V30 24 C 2.281487 -0.960403 0.979816 0
M  V30 25 N 1.130405 -1.454489 1.632854 0
M  V30 26 C -0.210742 -1.048028 1.448034 0 CFG=1
M  V30 27 C -0.652160 -1.542443 0.072352 0
M  V30 28 C -1.486447 -2.822994 0.186766 0
M  V30 29 C -2.817824 -2.515743 0.842690 0 CFG=2
M  V30 30 C -3.753403 -1.974788 -0.185745 0
M  V30 31 C -3.921099 -3.006314 -1.240302 0
M  V30 32 N -4.825015 -2.489884 -2.238697 0
M  V30 33 O -3.602932 -4.157153 -1.636158 0
M  V30 34 C -2.545605 -1.532358 1.963131 0
M  V30 35 C -1.105874 -1.721181 2.461547 0
M  V30 36 H 1.611112 -4.741399 4.332957 0
M  V30 37 H 2.499753 -6.332713 4.089197 0
M  V30 38 H 2.804691 -5.301774 5.501401 0
M  V30 39 H 4.120342 -5.277136 2.883432 0
M  V30 40 H 4.429114 -4.236361 4.352204 0
M  V30 41 H 5.668856 -1.532505 0.750603 0
M  V30 42 H 4.341380 1.943332 -1.769561 0
M  V30 43 H 2.297003 3.096692 -2.234381 0
M  V30 44 H -1.527908 1.452653 0.035133 0
M  V30 45 H -4.455928 4.882698 -1.324354 0
M  V30 46 H 0.589352 3.996739 -2.611728 0
M  V30 47 H 1.291731 -2.210726 2.337346 0
M  V30 48 H -0.405464 0.029751 1.588421 0
M  V30 49 H 0.237071 -1.843611 -0.518962 0
M  V30 50 H -1.174092 -0.790744 -0.523008 0
M  V30 51 H -0.935502 -3.578427 0.773970 0
M  V30 52 H -1.614223 -3.209345 -0.833914 0
M  V30 53 H -3.221197 -3.436242 1.259535 0
M  V30 54 H -3.399602 -1.039969 -0.660200 0
M  V30 55 H -4.750176 -1.754349 0.263610 0
M  V30 56 H -4.504188 -1.965450 -3.076897 0
M  V30 57 H -5.729611 -2.264090 -2.747459 0
M  V30 58 H -3.270423 -1.643872 2.792914 0
M  V30 59 H -2.622037 -0.488242 1.596913 0
M  V30 60 H -0.861459 -2.780173 2.647306 0
M  V30 61 H -1.071857 -1.122448 3.406630 0
M  V30 END ATOM
M  V30 BEGIN BOND
M  V30 1 1 1 2
M  V30 2 1 2 3
M  V30 3 1 3 4
M  V30 4 2 4 5
M  V30 5 1 4 6
M  V30 6 2 6 7
M  V30 7 1 7 8
M  V30 8 2 8 9
M  V30 9 1 9 10
M  V30 10 2 10 11
M  V30 11 1 11 12
M  V30 12 1 12 13
M  V30 13 2 13 14
M  V30 14 1 14 15
M  V30 15 1 15 16
M  V30 16 2 15 17
M  V30 17 1 17 18
M  V30 18 1 17 19
M  V30 19 1 19 20
M  V30 20 2 19 21
M  V30 21 2 12 22
M  V30 22 1 22 23
M  V30 23 2 23 24
M  V30 24 1 24 25
M  V30 25 1 25 26
M  V30 26 1 26 27
M  V30 27 1 27 28
M  V30 28 1 28 29
M  V30 29 1 29 30
M  V30 30 1 30 31
M  V30 31 1 31 32
M  V30 32 2 31 33
M  V30 33 1 29 34
M  V30 34 1 34 35
M  V30 35 1 24 6
M  V30 36 1 35 26
M  V30 37 1 23 9
M  V30 38 1 21 13
M  V30 39 1 1 36
M  V30 40 1 1 37
M  V30 41 1 1 38
M  V30 42 1 2 39
M  V30 43 1 2 40
M  V30 44 1 7 41
M  V30 45 1 10 42
M  V30 46 1 11 43
M  V30 47 1 14 44
M  V30 48 1 18 45
M  V30 49 1 21 46
M  V30 50 1 25 47
M  V30 51 1 26 48 CFG=3
M  V30 52 1 27 49
M  V30 53 1 27 50
M  V30 54 1 28 51
M  V30 55 1 28 52
M  V30 56 1 29 53 CFG=1
M  V30 57 1 30 54
M  V30 58 1 30 55
M  V30 59 1 32 56
M  V30 60 1 32 57
M  V30 61 1 34 58
M  V30 62 1 34 59
M  V30 63 1 35 60
M  V30 64 1 35 61
M  V30 END BOND
M  V30 END CTAB
M  END
>  <Dataset>  (384) 
ChEMBL_Kinases

>  <Ligand_Instance>  (384) 
nan

>  <PDB_ID>  (384) 
nan

>  <Standardized_SMILES>  (384) 
CCOC(=O)c1cnc2ccc(-c3cc(Cl)c(O)c(Cl)c3)nc2c1N[C@H]1CC[C@H](CC(N)=O)CC1

>  <Name>  (384) 
nan

>  <Pocket>  (384) 
nan

>  <ATP_Site>  (384) 
nan

>  <Peripheral>  (384) 
nan

>  <Num_H_Atoms_ProtBoundConf>  (384) 
nan

>  <Num_Resolved_Atoms>  (384) 
nan

>  <Num_Not_Resolved_Atoms>  (384) 
nan

$$$$
CHEMBL4643095
     RDKit          3D

  0  0  0  0  0  0  0  0  0  0999 V3000
M  V30 BEGIN CTAB
M  V30 COUNTS 50 54 0 0 0
M  V30 BEGIN ATOM
M  V30 1 N -0.102758 -2.663031 5.078181 0
M  V30 2 C 0.368512 -1.877246 3.946449 0
M  V30 3 C 1.744477 -2.334966 3.529895 0
M  V30 4 C 2.306433 -1.575375 2.358916 0
M  V30 5 N 1.397446 -1.777716 1.251158 0
M  V30 6 C 0.310426 -1.118531 0.796193 0
M  V30 7 C -0.206162 -1.751273 -0.335295 0
M  V30 8 C -1.382724 -1.166674 -0.961245 0
M  V30 9 C -1.592566 0.135177 -1.196454 0
M  V30 10 C -0.560787 1.080302 -0.802090 0
M  V30 11 C 0.715534 0.797292 -1.301352 0
M  V30 12 C 1.837134 1.570859 -1.034975 0
M  V30 13 C 1.682999 2.694067 -0.222781 0
M  V30 14 C 0.445181 2.974235 0.267500 0
M  V30 15 C 0.304545 4.072244 1.076746 0
M  V30 16 C -0.960442 4.333732 1.578597 0
M  V30 17 C -2.053957 3.558926 1.307057 0
M  V30 18 C -1.916109 2.450357 0.490390 0
M  V30 19 C -0.664492 2.197515 -0.003748 0
M  V30 20 C -2.913135 0.228950 -1.854398 0
M  V30 21 O -3.389275 1.347371 -2.207807 0
M  V30 22 N -3.473956 -1.062733 -1.993546 0
M  V30 23 C -2.529792 -1.968785 -1.438426 0
M  V30 24 O -2.778693 -3.197568 -1.430744 0
M  V30 25 C 0.622773 -2.830561 -0.547293 0
M  V30 26 C 0.497459 -3.742494 -1.562750 0
M  V30 27 C 1.433384 -4.757135 -1.610485 0
M  V30 28 C 2.405430 -4.757235 -0.632388 0
M  V30 29 N 2.512912 -3.852196 0.357287 0
M  V30 30 C 1.599146 -2.837708 0.426969 0
M  V30 31 H -1.082037 -2.430702 5.327395 0
M  V30 32 H -0.008739 -3.674593 4.798929 0
M  V30 33 H -0.351984 -1.956655 3.113776 0
M  V30 34 H 0.401364 -0.809927 4.287733 0
M  V30 35 H 1.634916 -3.422060 3.265208 0
M  V30 36 H 2.441722 -2.269495 4.369196 0
M  V30 37 H 3.328467 -1.838489 2.111672 0
M  V30 38 H 2.290617 -0.477979 2.619253 0
M  V30 39 H 0.052462 -0.243173 1.385222 0
M  V30 40 H 0.959829 -0.043189 -1.939449 0
M  V30 41 H 2.815376 1.375046 -1.405547 0
M  V30 42 H 2.521012 3.327976 0.014204 0
M  V30 43 H 1.144876 4.714321 1.316630 0
M  V30 44 H -1.054646 5.211586 2.220748 0
M  V30 45 H -3.016102 3.836083 1.743133 0
M  V30 46 H -2.774261 1.851748 0.301837 0
M  V30 47 H -4.412268 -1.216089 -2.437567 0
M  V30 48 H -0.272563 -3.699343 -2.303022 0
M  V30 49 H 1.431069 -5.529402 -2.364877 0
M  V30 50 H 3.193467 -5.516899 -0.584767 0
M  V30 END ATOM
M  V30 BEGIN BOND
M  V30 1 1 1 2
M  V30 2 1 2 3
M  V30 3 1 3 4
M  V30 4 1 4 5
M  V30 5 1 5 6
M  V30 6 2 6 7
M  V30 7 1 7 8
M  V30 8 2 8 9
M  V30 9 1 9 10
M  V30 10 2 10 11
M  V30 11 1 11 12
M  V30 12 2 12 13
M  V30 13 1 13 14
M  V30 14 2 14 15
M  V30 15 1 15 16
M  V30 16 2 16 17
M  V30 17 1 17 18
M  V30 18 2 18 19
M  V30 19 1 9 20
M  V30 20 2 20 21
M  V30 21 1 20 22
M  V30 22 1 22 23
M  V30 23 2 23 24
M  V30 24 1 7 25
M  V30 25 2 25 26
M  V30 26 1 26 27
M  V30 27 2 27 28
M  V30 28 1 28 29
M  V30 29 2 29 30
M  V30 30 1 30 5
M  V30 31 1 23 8
M  V30 32 1 30 25
M  V30 33 1 19 10
M  V30 34 1 19 14
M  V30 35 1 1 31
M  V30 36 1 1 32
M  V30 37 1 2 33
M  V30 38 1 2 34
M  V30 39 1 3 35
M  V30 40 1 3 36
M  V30 41 1 4 37
M  V30 42 1 4 38
M  V30 43 1 6 39
M  V30 44 1 11 40
M  V30 45 1 12 41
M  V30 46 1 13 42
M  V30 47 1 15 43
M  V30 48 1 16 44
M  V30 49 1 17 45
M  V30 50 1 18 46
M  V30 51 1 22 47
M  V30 52 1 26 48
M  V30 53 1 27 49
M  V30 54 1 28 50
M  V30 END BOND
M  V30 END CTAB
M  END
>  <Dataset>  (385) 
ChEMBL_Kinases

>  <Ligand_Instance>  (385) 
nan

>  <PDB_ID>  (385) 
nan

>  <Standardized_SMILES>  (385) 
NCCCn1cc(C2=C(c3cccc4ccccc34)C(=O)NC2=O)c2cccnc21

>  <Name>  (385) 
nan

>  <Pocket>  (385) 
nan

>  <ATP_Site>  (385) 
nan

>  <Peripheral>  (385) 
nan

>  <Num_H_Atoms_ProtBoundConf>  (385) 
nan

>  <Num_Resolved_Atoms>  (385) 
nan

>  <Num_Not_Resolved_Atoms>  (385) 
nan

$$$$
CHEMBL4643096
     RDKit          3D

  0  0  0  0  0  0  0  0  0  0999 V3000
M  V30 BEGIN CTAB
M  V30 COUNTS 60 64 0 0 0
M  V30 BEGIN ATOM
M  V30 1 C -2.703443 -3.893555 2.311418 0
M  V30 2 O -1.802653 -4.621574 1.528719 0
M  V30 3 C -0.780778 -4.058926 0.792058 0
M  V30 4 C -0.558037 -2.698566 0.767057 0
M  V30 5 C 0.486704 -2.225132 0.002588 0
M  V30 6 C 0.732865 -0.780006 -0.032965 0
M  V30 7 C 0.448583 -0.043649 1.083066 0
M  V30 8 N 0.670648 1.279975 1.044608 0
M  V30 9 C 1.154143 1.921650 -0.022605 0
M  V30 10 C 1.406414 3.277565 -0.134929 0
M  V30 11 N 1.249867 4.339150 0.772467 0
M  V30 12 C 2.162246 4.921702 1.741210 0
M  V30 13 C 1.489155 4.796432 3.101906 0 CFG=1
M  V30 14 C 2.434054 5.160344 4.222491 0
M  V30 15 O 0.373639 5.658756 3.058195 0
M  V30 16 C -0.539168 5.029400 2.215020 0 CFG=1
M  V30 17 C -1.926930 5.587585 2.298900 0
M  V30 18 C -0.059549 5.010386 0.776911 0
M  V30 19 S 2.024357 3.595180 -1.723773 0
M  V30 20 N 1.950435 1.816915 -2.294145 0
M  V30 21 C 1.444793 1.202184 -1.149433 0
M  V30 22 C 1.233088 -0.160522 -1.156767 0
M  V30 23 C 1.349519 -2.986786 -0.754620 0
M  V30 24 C 1.131820 -4.349725 -0.733858 0
M  V30 25 C 0.085154 -4.811488 0.033085 0
M  V30 26 C -0.101037 -6.250041 0.017875 0
M  V30 27 O -0.175423 -7.473017 0.111358 0
M  V30 28 N -0.975587 -6.753948 -1.015740 0
M  V30 29 C -1.440814 -8.071394 -1.404536 0
M  V30 30 C -1.396819 -8.135254 -2.917535 0
M  V30 31 C -1.153470 -6.671961 -3.299239 0
M  V30 32 C -1.697012 -5.993663 -2.049665 0
M  V30 33 H -3.551939 -4.592871 2.565200 0
M  V30 34 H -3.119956 -3.028849 1.760978 0
M  V30 35 H -2.145759 -3.598869 3.235890 0
M  V30 36 H -1.186507 -2.028338 1.331012 0
M  V30 37 H 0.052479 -0.520419 1.979137 0
M  V30 38 H 2.163014 6.026580 1.516479 0
M  V30 39 H 3.176430 4.501156 1.711316 0
M  V30 40 H 1.087760 3.789032 3.293487 0
M  V30 41 H 2.322917 4.435938 5.067343 0
M  V30 42 H 3.477689 4.991686 3.823712 0
M  V30 43 H 2.324558 6.209818 4.552897 0
M  V30 44 H -0.567426 3.957305 2.563913 0
M  V30 45 H -2.652860 4.765753 2.044168 0
M  V30 46 H -2.095483 6.374312 1.509125 0
M  V30 47 H -2.205064 5.928784 3.306677 0
M  V30 48 H -0.815591 4.469592 0.200921 0
M  V30 49 H 0.107850 6.050439 0.458827 0
M  V30 50 H 1.422035 -0.823823 -1.979562 0
M  V30 51 H 2.159390 -2.601352 -1.343274 0
M  V30 52 H 1.769053 -5.003169 -1.302751 0
M  V30 53 H -2.467641 -8.245844 -1.021261 0
M  V30 54 H -0.799234 -8.894014 -1.021413 0
M  V30 55 H -2.424635 -8.360599 -3.272713 0
M  V30 56 H -0.631739 -8.803125 -3.312464 0
M  V30 57 H -0.061261 -6.468607 -3.373151 0
M  V30 58 H -1.712027 -6.426722 -4.207001 0
M  V30 59 H -1.411053 -4.923213 -2.009996 0
M  V30 60 H -2.775087 -6.143563 -2.001751 0
M  V30 END ATOM
M  V30 BEGIN BOND
M  V30 1 1 1 2
M  V30 2 1 2 3
M  V30 3 2 3 4
M  V30 4 1 4 5
M  V30 5 1 5 6
M  V30 6 1 6 7
M  V30 7 2 7 8
M  V30 8 1 8 9
M  V30 9 2 9 10
M  V30 10 1 10 11
M  V30 11 1 11 12
M  V30 12 1 12 13
M  V30 13 1 13 14
M  V30 14 1 13 15
M  V30 15 1 15 16
M  V30 16 1 16 17
M  V30 17 1 16 18
M  V30 18 1 10 19
M  V30 19 1 19 20
M  V30 20 2 20 21
M  V30 21 1 21 22
M  V30 22 2 5 23
M  V30 23 1 23 24
M  V30 24 2 24 25
M  V30 25 1 25 26
M  V30 26 2 26 27
M  V30 27 1 26 28
M  V30 28 1 28 29
M  V30 29 1 29 30
M  V30 30 1 30 31
M  V30 31 1 31 32
M  V30 32 1 25 3
M  V30 33 1 32 28
M  V30 34 2 22 6
M  V30 35 1 21 9
M  V30 36 1 18 11
M  V30 37 1 1 33
M  V30 38 1 1 34
M  V30 39 1 1 35
M  V30 40 1 4 36
M  V30 41 1 7 37
M  V30 42 1 12 38
M  V30 43 1 12 39
M  V30 44 1 13 40 CFG=1
M  V30 45 1 14 41
M  V30 46 1 14 42
M  V30 47 1 14 43
M  V30 48 1 16 44 CFG=1
M  V30 49 1 17 45
M  V30 50 1 17 46
M  V30 51 1 17 47
M  V30 52 1 18 48
M  V30 53 1 18 49
M  V30 54 1 22 50
M  V30 55 1 23 51
M  V30 56 1 24 52
M  V30 57 1 29 53
M  V30 58 1 29 54
M  V30 59 1 30 55
M  V30 60 1 30 56
M  V30 61 1 31 57
M  V30 62 1 31 58
M  V30 63 1 32 59
M  V30 64 1 32 60
M  V30 END BOND
M  V30 END CTAB
M  END
>  <Dataset>  (386) 
ChEMBL_Kinases

>  <Ligand_Instance>  (386) 
nan

>  <PDB_ID>  (386) 
nan

>  <Standardized_SMILES>  (386) 
COc1cc(-c2cnc3c(N4C[C@@H](C)O[C@@H](C)C4)snc3c2)ccc1C(=O)N1CCCC1

>  <Name>  (386) 
nan

>  <Pocket>  (386) 
nan

>  <ATP_Site>  (386) 
nan

>  <Peripheral>  (386) 
nan

>  <Num_H_Atoms_ProtBoundConf>  (386) 
nan

>  <Num_Resolved_Atoms>  (386) 
nan

>  <Num_Not_Resolved_Atoms>  (386) 
nan

$$$$
CHEMBL453376
     RDKit          3D

  0  0  0  0  0  0  0  0  0  0999 V3000
M  V30 BEGIN CTAB
M  V30 COUNTS 65 69 0 0 0
M  V30 BEGIN ATOM
M  V30 1 C 3.919352 -2.985889 3.600882 0
M  V30 2 S 2.306790 -3.238650 2.936387 0
M  V30 3 O 2.419202 -4.164222 1.737554 0
M  V30 4 O 1.435132 -3.908588 3.997156 0
M  V30 5 C 1.609424 -1.694362 2.464825 0
M  V30 6 C 2.336068 -0.950647 1.410315 0
M  V30 7 N 3.692265 -0.635606 1.757897 0
M  V30 8 C 4.198085 0.364800 0.795310 0
M  V30 9 C 3.270988 1.564893 1.192452 0
M  V30 10 N 2.309574 2.108712 0.998383 0
M  V30 11 C 1.663838 3.105799 1.481585 0
M  V30 12 C 0.388445 3.674675 1.088691 0
M  V30 13 C -0.165677 4.743931 1.743088 0
M  V30 14 C -1.377287 5.280512 1.354242 0
M  V30 15 C -2.014107 4.702862 0.279692 0
M  V30 16 N -3.190659 5.219834 -0.114470 0
M  V30 17 C -3.845252 4.699600 -1.158072 0
M  V30 18 N -3.351558 3.635004 -1.856727 0
M  V30 19 C -2.185356 3.055988 -1.533042 0
M  V30 20 N -1.465926 1.994172 -2.103619 0
M  V30 21 C -1.485514 0.590198 -2.105031 0
M  V30 22 C -2.639239 -0.101331 -1.815320 0
M  V30 23 C -2.655321 -1.474933 -1.815757 0
M  V30 24 C -1.522603 -2.202542 -2.105059 0
M  V30 25 O -1.182807 -3.490974 -2.198436 0
M  V30 26 C -1.817523 -4.700423 -2.058575 0
M  V30 27 C -2.443193 -5.019112 -0.767501 0
M  V30 28 C -1.657593 -5.637499 0.175267 0
M  V30 29 C -2.162449 -6.012850 1.409286 0
M  V30 30 C -3.489246 -5.786619 1.767194 0
M  V30 31 C -4.217793 -5.159807 0.768332 0
M  V30 32 F -5.543857 -4.884145 1.000574 0
M  V30 33 C -3.784769 -4.763214 -0.466905 0
M  V30 34 C -0.348294 -1.481166 -2.398780 0
M  V30 35 Cl 1.246496 -2.152118 -2.801251 0
M  V30 36 C -0.299021 -0.078425 -2.406447 0
M  V30 37 C -1.556733 3.634515 -0.449938 0
M  V30 38 C -0.326874 3.168540 0.026286 0
M  V30 39 C 2.413273 3.644140 2.566813 0
M  V30 40 S 3.935299 2.522516 2.619637 0
M  V30 41 H 4.747557 -3.309817 2.958958 0
M  V30 42 H 4.085864 -1.907099 3.847055 0
M  V30 43 H 3.991711 -3.575185 4.558248 0
M  V30 44 H 1.478951 -1.097022 3.407812 0
M  V30 45 H 0.550901 -1.915639 2.129231 0
M  V30 46 H 2.349326 -1.628590 0.500686 0
M  V30 47 H 1.715905 -0.099419 1.094325 0
M  V30 48 H 4.298068 -1.480338 1.548997 0
M  V30 49 H 5.235371 0.637995 0.958200 0
M  V30 50 H 3.938736 0.080647 -0.229812 0
M  V30 51 H 0.343859 5.185911 2.581735 0
M  V30 52 H -1.764183 6.112863 1.901778 0
M  V30 53 H -4.809262 5.032644 -1.571521 0
M  V30 54 H -0.736799 2.473958 -2.674313 0
M  V30 55 H -3.563047 0.365577 -1.576132 0
M  V30 56 H -3.468569 -2.143434 -1.615226 0
M  V30 57 H -1.118548 -5.564596 -2.315357 0
M  V30 58 H -2.673143 -4.728791 -2.812323 0
M  V30 59 H -0.599041 -5.870533 0.020118 0
M  V30 60 H -1.570024 -6.511389 2.194607 0
M  V30 61 H -3.990553 -6.027709 2.676215 0
M  V30 62 H -4.405553 -4.282524 -1.192091 0
M  V30 63 H 0.577445 0.535574 -2.624846 0
M  V30 64 H 0.152420 2.311568 -0.471874 0
M  V30 65 H 2.135960 4.609977 3.293403 0
M  V30 END ATOM
M  V30 BEGIN BOND
M  V30 1 1 1 2
M  V30 2 2 2 3
M  V30 3 2 2 4
M  V30 4 1 2 5
M  V30 5 1 5 6
M  V30 6 1 6 7
M  V30 7 1 7 8
M  V30 8 1 8 9
M  V30 9 2 9 10
M  V30 10 1 10 11
M  V30 11 1 11 12
M  V30 12 2 12 13
M  V30 13 1 13 14
M  V30 14 2 14 15
M  V30 15 1 15 16
M  V30 16 2 16 17
M  V30 17 1 17 18
M  V30 18 2 18 19
M  V30 19 1 19 20
M  V30 20 1 20 21
M  V30 21 2 21 22
M  V30 22 1 22 23
M  V30 23 2 23 24
M  V30 24 1 24 25
M  V30 25 1 25 26
M  V30 26 1 26 27
M  V30 27 2 27 28
M  V30 28 1 28 29
M  V30 29 2 29 30
M  V30 30 1 30 31
M  V30 31 1 31 32
M  V30 32 2 31 33
M  V30 33 1 24 34
M  V30 34 1 34 35
M  V30 35 2 34 36
M  V30 36 1 19 37
M  V30 37 2 37 38
M  V30 38 2 11 39
M  V30 39 1 39 40
M  V30 40 1 40 9
M  V30 41 1 38 12
M  V30 42 1 37 15
M  V30 43 1 36 21
M  V30 44 1 33 27
M  V30 45 1 1 41
M  V30 46 1 1 42
M  V30 47 1 1 43
M  V30 48 1 5 44
M  V30 49 1 5 45
M  V30 50 1 6 46
M  V30 51 1 6 47
M  V30 52 1 7 48
M  V30 53 1 8 49
M  V30 54 1 8 50
M  V30 55 1 13 51
M  V30 56 1 14 52
M  V30 57 1 17 53
M  V30 58 1 20 54
M  V30 59 1 22 55
M  V30 60 1 23 56
M  V30 61 1 26 57
M  V30 62 1 26 58
M  V30 63 1 28 59
M  V30 64 1 29 60
M  V30 65 1 30 61
M  V30 66 1 33 62
M  V30 67 1 36 63
M  V30 68 1 38 64
M  V30 69 1 39 65
M  V30 END BOND
M  V30 END CTAB
M  END
>  <Dataset>  (387) 
ChEMBL_Kinases

>  <Ligand_Instance>  (387) 
nan

>  <PDB_ID>  (387) 
nan

>  <Standardized_SMILES>  (387) 
CS(=O)(=O)CCNCc1nc(-c2ccc3ncnc(Nc4ccc(OCc5cccc(F)c5)c(Cl)c4)c3c2)cs1

>  <Name>  (387) 
nan

>  <Pocket>  (387) 
nan

>  <ATP_Site>  (387) 
nan

>  <Peripheral>  (387) 
nan

>  <Num_H_Atoms_ProtBoundConf>  (387) 
nan

>  <Num_Resolved_Atoms>  (387) 
nan

>  <Num_Not_Resolved_Atoms>  (387) 
nan

$$$$
CHEMBL4532931
     RDKit          3D

  0  0  0  0  0  0  0  0  0  0999 V3000
M  V30 BEGIN CTAB
M  V30 COUNTS 42 44 0 0 0
M  V30 BEGIN ATOM
M  V30 1 C -1.670794 -5.988504 0.183242 0
M  V30 2 O -0.407068 -5.593018 -0.249217 0
M  V30 3 C -0.092969 -4.590800 -1.120448 0
M  V30 4 C -1.113338 -3.830099 -1.685596 0
M  V30 5 C -0.700320 -2.824510 -2.566795 0
M  V30 6 C 0.613665 -2.553659 -2.895523 0
M  V30 7 C 0.998027 -1.491119 -3.826855 0
M  V30 8 N 1.202590 -0.214779 -3.188963 0
M  V30 9 C 1.049737 0.103445 -1.815236 0
M  V30 10 O 0.694504 -0.858239 -1.079951 0
M  V30 11 N 1.312623 1.445876 -1.453267 0
M  V30 12 C 1.120852 1.695029 0.020205 0
M  V30 13 N 1.833329 1.627303 0.885362 0
M  V30 14 C 1.657034 1.849606 2.170163 0
M  V30 15 C 2.577880 1.754172 3.221754 0
M  V30 16 C 2.178656 2.036284 4.508843 0
M  V30 17 C 0.907301 2.418841 4.872594 0
M  V30 18 C 0.499921 2.717638 6.233774 0
M  V30 19 O 1.374897 2.618650 7.131348 0
M  V30 20 C -0.878020 3.125317 6.591794 0
M  V30 21 Br -0.982285 5.056738 6.417994 0
M  V30 22 C 0.004901 2.511518 3.836601 0
M  V30 23 C 0.426921 2.221547 2.536059 0
M  V30 24 S -0.457141 2.239313 0.980793 0
M  V30 25 C 1.564640 -3.353444 -2.292108 0
M  V30 26 C 1.236986 -4.365660 -1.411790 0
M  V30 27 H -2.090648 -5.232743 0.896111 0
M  V30 28 H -1.535348 -6.906373 0.820221 0
M  V30 29 H -2.370846 -6.275994 -0.615725 0
M  V30 30 H -2.152211 -3.994221 -1.466985 0
M  V30 31 H -1.472506 -2.225765 -3.014089 0
M  V30 32 H 0.117132 -1.356199 -4.520218 0
M  V30 33 H 1.866982 -1.833907 -4.432817 0
M  V30 34 H 1.493378 0.470909 -3.919614 0
M  V30 35 H 1.604253 2.212127 -2.085710 0
M  V30 36 H 3.634361 1.463327 3.111843 0
M  V30 37 H 2.897896 1.961400 5.335889 0
M  V30 38 H -1.577527 2.677852 5.882640 0
M  V30 39 H -1.157615 2.807651 7.617868 0
M  V30 40 H -1.017136 2.792219 3.933471 0
M  V30 41 H 2.620003 -3.158440 -2.537835 0
M  V30 42 H 2.052194 -4.951834 -0.978114 0
M  V30 END ATOM
M  V30 BEGIN BOND
M  V30 1 1 1 2
M  V30 2 1 2 3
M  V30 3 2 3 4
M  V30 4 1 4 5
M  V30 5 2 5 6
M  V30 6 1 6 7
M  V30 7 1 7 8
M  V30 8 1 8 9
M  V30 9 2 9 10
M  V30 10 1 9 11
M  V30 11 1 11 12
M  V30 12 2 12 13
M  V30 13 1 13 14
M  V30 14 2 14 15
M  V30 15 1 15 16
M  V30 16 2 16 17
M  V30 17 1 17 18
M  V30 18 2 18 19
M  V30 19 1 18 20
M  V30 20 1 20 21
M  V30 21 1 17 22
M  V30 22 2 22 23
M  V30 23 1 23 24
M  V30 24 1 6 25
M  V30 25 2 25 26
M  V30 26 1 26 3
M  V30 27 1 24 12
M  V30 28 1 23 14
M  V30 29 1 1 27
M  V30 30 1 1 28
M  V30 31 1 1 29
M  V30 32 1 4 30
M  V30 33 1 5 31
M  V30 34 1 7 32
M  V30 35 1 7 33
M  V30 36 1 8 34
M  V30 37 1 11 35
M  V30 38 1 15 36
M  V30 39 1 16 37
M  V30 40 1 20 38
M  V30 41 1 20 39
M  V30 42 1 22 40
M  V30 43 1 25 41
M  V30 44 1 26 42
M  V30 END BOND
M  V30 END CTAB
M  END
>  <Dataset>  (388) 
ChEMBL_Kinases

>  <Ligand_Instance>  (388) 
nan

>  <PDB_ID>  (388) 
nan

>  <Standardized_SMILES>  (388) 
COc1ccc(CNC(=O)Nc2nc3ccc(C(=O)CBr)cc3s2)cc1

>  <Name>  (388) 
nan

>  <Pocket>  (388) 
nan

>  <ATP_Site>  (388) 
nan

>  <Peripheral>  (388) 
nan

>  <Num_H_Atoms_ProtBoundConf>  (388) 
nan

>  <Num_Resolved_Atoms>  (388) 
nan

>  <Num_Not_Resolved_Atoms>  (388) 
nan

$$$$
CHEMBL4533719
     RDKit          3D

  0  0  0  0  0  0  0  0  0  0999 V3000
M  V30 BEGIN CTAB
M  V30 COUNTS 36 37 0 0 0
M  V30 BEGIN ATOM
M  V30 1 C 0.158029 -3.716062 2.553933 0
M  V30 2 C -0.446767 -2.529255 2.614101 0
M  V30 3 C -1.140633 -2.476790 3.948568 0
M  V30 4 C -0.480545 -1.409631 1.599554 0 CFG=2
M  V30 5 C -0.210114 -1.943591 0.243746 0
M  V30 6 C -0.087870 -0.915455 -0.800791 0
M  V30 7 C -0.194922 -0.088124 -1.818170 0
M  V30 8 C -1.461614 -0.379426 -2.597497 0
M  V30 9 C 0.710702 1.024932 -2.159622 0
M  V30 10 O 0.249278 1.573748 -3.206325 0
M  V30 11 C 1.923031 1.600140 -1.610332 0
M  V30 12 C 1.806731 2.285886 -0.266656 0
M  V30 13 C 1.439668 1.337474 0.802607 0
M  V30 14 C 0.203661 0.933439 1.059663 0
M  V30 15 C 0.071549 -0.134293 2.070933 0 CFG=2
M  V30 16 O 1.402112 -0.277906 2.520054 0
M  V30 17 C 2.210762 0.549767 1.757824 0
M  V30 18 O 3.468972 0.563379 1.930968 0
M  V30 19 H 0.774632 -4.256426 1.845292 0
M  V30 20 H 0.779318 -4.291981 1.870309 0
M  V30 21 H -1.795240 -1.575102 4.001686 0
M  V30 22 H -0.357729 -2.477319 4.730259 0
M  V30 23 H -1.798535 -3.349203 4.110504 0
M  V30 24 H -1.639112 -1.215614 1.571664 0
M  V30 25 H 0.628771 -2.662899 0.272448 0
M  V30 26 H -1.086028 -2.652832 -0.044957 0
M  V30 27 H 0.919147 -0.745893 -0.448645 0
M  V30 28 H -1.506123 -1.425907 -2.915571 0
M  V30 29 H -1.623527 0.321085 -3.416224 0
M  V30 30 H -2.286875 -0.221623 -1.853800 0
M  V30 31 H 2.348834 2.331038 -2.318988 0
M  V30 32 H 2.681320 0.782689 -1.546797 0
M  V30 33 H 1.075840 3.106311 -0.298739 0
M  V30 34 H 2.803999 2.699874 -0.024412 0
M  V30 35 H -0.773532 1.238100 0.668126 0
M  V30 36 H -0.553525 0.270601 2.950272 0
M  V30 END ATOM
M  V30 BEGIN BOND
M  V30 1 2 1 2
M  V30 2 1 2 3
M  V30 3 1 2 4
M  V30 4 1 4 5
M  V30 5 1 5 6
M  V30 6 2 6 7
M  V30 7 1 7 8
M  V30 8 1 7 9
M  V30 9 2 9 10
M  V30 10 1 9 11
M  V30 11 1 11 12
M  V30 12 1 12 13
M  V30 13 2 13 14
M  V30 14 1 14 15
M  V30 15 1 15 16
M  V30 16 1 16 17
M  V30 17 2 17 18
M  V30 18 1 15 4
M  V30 19 1 17 13
M  V30 20 1 1 19
M  V30 21 1 1 20
M  V30 22 1 3 21
M  V30 23 1 3 22
M  V30 24 1 3 23
M  V30 25 1 4 24 CFG=3
M  V30 26 1 5 25
M  V30 27 1 5 26
M  V30 28 1 6 27
M  V30 29 1 8 28
M  V30 30 1 8 29
M  V30 31 1 8 30
M  V30 32 1 11 31
M  V30 33 1 11 32
M  V30 34 1 12 33
M  V30 35 1 12 34
M  V30 36 1 14 35
M  V30 37 1 15 36 CFG=1
M  V30 END BOND
M  V30 END CTAB
M  END
>  <Dataset>  (389) 
ChEMBL_Kinases

>  <Ligand_Instance>  (389) 
nan

>  <PDB_ID>  (389) 
nan

>  <Standardized_SMILES>  (389) 
C=C(C)[C@@H]1C/C=C(\C)C(=O)CCC2=C[C@@H]1OC2=O

>  <Name>  (389) 
nan

>  <Pocket>  (389) 
nan

>  <ATP_Site>  (389) 
nan

>  <Peripheral>  (389) 
nan

>  <Num_H_Atoms_ProtBoundConf>  (389) 
nan

>  <Num_Resolved_Atoms>  (389) 
nan

>  <Num_Not_Resolved_Atoms>  (389) 
nan

$$$$
CHEMBL4533641
     RDKit          3D

  0  0  0  0  0  0  0  0  0  0999 V3000
M  V30 BEGIN CTAB
M  V30 COUNTS 48 51 0 0 0
M  V30 BEGIN ATOM
M  V30 1 C 4.202274 -4.929689 -2.290368 0
M  V30 2 N 4.179083 -4.955302 -0.845194 0
M  V30 3 N 4.820025 -5.920796 -0.159733 0
M  V30 4 C 4.613713 -5.678378 1.147808 0
M  V30 5 C 3.831842 -4.539685 1.187893 0
M  V30 6 Cl 3.489295 -4.114670 2.862997 0
M  V30 7 C 3.553875 -4.077550 -0.077019 0
M  V30 8 C 2.754505 -2.906921 -0.237975 0
M  V30 9 C 2.216217 -2.176059 0.797236 0
M  V30 10 C 1.485829 -1.087902 0.366278 0
M  V30 11 C 0.761993 -0.071620 1.118106 0
M  V30 12 O 0.729858 -0.088403 2.354710 0
M  V30 13 N 0.077807 0.959811 0.450611 0
M  V30 14 C -0.646156 1.977748 1.169294 0 CFG=1
M  V30 15 C -0.225206 3.377011 0.943992 0
M  V30 16 N -1.025876 4.079953 -0.042064 0
M  V30 17 C -2.375273 4.232591 0.402765 0
M  V30 18 C -2.872479 3.099988 1.240167 0
M  V30 19 C -2.131684 1.853917 0.874632 0 CFG=2
M  V30 20 C -2.748129 0.671825 1.523736 0
M  V30 21 C -2.756757 0.498225 2.891927 0
M  V30 22 C -3.332393 -0.603127 3.471029 0
M  V30 23 C -3.931479 -1.591369 2.706694 0
M  V30 24 F -4.524800 -2.713985 3.194511 0
M  V30 25 C -3.949248 -1.464801 1.335196 0
M  V30 26 F -4.501628 -2.356076 0.457755 0
M  V30 27 C -3.358831 -0.342168 0.801511 0
M  V30 28 O 1.568331 -1.138389 -0.960930 0
M  V30 29 C 2.292981 -2.177856 -1.295499 0
M  V30 30 Cl 2.502158 -2.393588 -2.979686 0
M  V30 31 H 4.744772 -4.039351 -2.633511 0
M  V30 32 H 4.769493 -5.839562 -2.673641 0
M  V30 33 H 3.193726 -5.079110 -2.675362 0
M  V30 34 H 5.093440 -6.406420 1.781454 0
M  V30 35 H 2.238905 -2.266738 1.889719 0
M  V30 36 H 0.065121 1.032545 -0.601740 0
M  V30 37 H -0.513823 1.733541 2.243861 0
M  V30 38 H -0.386389 3.943404 1.886524 0
M  V30 39 H 0.844244 3.486145 0.713221 0
M  V30 40 H -0.541136 4.979392 -0.226239 0
M  V30 41 H -3.048288 4.340567 -0.476054 0
M  V30 42 H -2.429106 5.211567 0.948769 0
M  V30 43 H -2.751387 3.396696 2.300623 0
M  V30 44 H -3.945962 2.931701 1.047650 0
M  V30 45 H -2.278283 1.720542 -0.234244 0
M  V30 46 H -2.301417 1.241267 3.542482 0
M  V30 47 H -3.355855 -0.768986 4.540538 0
M  V30 48 H -3.353877 -0.207144 -0.289703 0
M  V30 END ATOM
M  V30 BEGIN BOND
M  V30 1 1 1 2
M  V30 2 1 2 3
M  V30 3 2 3 4
M  V30 4 1 4 5
M  V30 5 1 5 6
M  V30 6 2 5 7
M  V30 7 1 7 8
M  V30 8 1 8 9
M  V30 9 2 9 10
M  V30 10 1 10 11
M  V30 11 2 11 12
M  V30 12 1 11 13
M  V30 13 1 13 14
M  V30 14 1 14 15
M  V30 15 1 15 16
M  V30 16 1 16 17
M  V30 17 1 17 18
M  V30 18 1 18 19
M  V30 19 1 19 20
M  V30 20 2 20 21
M  V30 21 1 21 22
M  V30 22 2 22 23
M  V30 23 1 23 24
M  V30 24 1 23 25
M  V30 25 1 25 26
M  V30 26 2 25 27
M  V30 27 1 10 28
M  V30 28 1 28 29
M  V30 29 1 29 30
M  V30 30 1 7 2
M  V30 31 2 29 8
M  V30 32 1 19 14
M  V30 33 1 27 20
M  V30 34 1 1 31
M  V30 35 1 1 32
M  V30 36 1 1 33
M  V30 37 1 4 34
M  V30 38 1 9 35
M  V30 39 1 13 36
M  V30 40 1 14 37 CFG=1
M  V30 41 1 15 38
M  V30 42 1 15 39
M  V30 43 1 16 40
M  V30 44 1 17 41
M  V30 45 1 17 42
M  V30 46 1 18 43
M  V30 47 1 18 44
M  V30 48 1 19 45 CFG=3
M  V30 49 1 21 46
M  V30 50 1 22 47
M  V30 51 1 27 48
M  V30 END BOND
M  V30 END CTAB
M  END
>  <Dataset>  (390) 
ChEMBL_Kinases

>  <Ligand_Instance>  (390) 
nan

>  <PDB_ID>  (390) 
nan

>  <Standardized_SMILES>  (390) 
Cn1ncc(Cl)c1-c1cc(C(=O)N[C@H]2CNCC[C@@H]2c2ccc(F)c(F)c2)oc1Cl

>  <Name>  (390) 
nan

>  <Pocket>  (390) 
nan

>  <ATP_Site>  (390) 
nan

>  <Peripheral>  (390) 
nan

>  <Num_H_Atoms_ProtBoundConf>  (390) 
nan

>  <Num_Resolved_Atoms>  (390) 
nan

>  <Num_Not_Resolved_Atoms>  (390) 
nan

$$$$
CHEMBL4533640
     RDKit          3D

  0  0  0  0  0  0  0  0  0  0999 V3000
M  V30 BEGIN CTAB
M  V30 COUNTS 50 54 0 0 0
M  V30 BEGIN ATOM
M  V30 1 C 5.777130 1.140706 6.614743 0
M  V30 2 N 5.376432 0.244393 5.524936 0
M  V30 3 N 5.923376 -0.904915 5.196867 0
M  V30 4 C 5.262951 -1.410622 4.144131 0
M  V30 5 C 4.270887 -0.506308 3.836007 0
M  V30 6 C 4.345904 0.547539 4.718028 0
M  V30 7 N 3.471509 1.665916 4.692338 0
M  V30 8 C 2.405189 1.882712 3.783275 0
M  V30 9 N 1.698640 3.018881 3.940432 0
M  V30 10 C 0.666343 3.337269 3.143385 0
M  V30 11 C 0.309451 2.483634 2.130342 0
M  V30 12 C 1.020191 1.318696 1.955395 0
M  V30 13 C 0.645206 0.411438 0.883076 0
M  V30 14 C 1.288415 -0.777977 0.621323 0
M  V30 15 C 0.960791 -1.662174 -0.385645 0
M  V30 16 C -0.097116 -1.349817 -1.213181 0
M  V30 17 C -0.781859 -0.161584 -0.994205 0
M  V30 18 C -0.402100 0.679340 0.032209 0
M  V30 19 C -1.833261 -0.130051 -2.030112 0
M  V30 20 O -2.683542 0.798936 -2.176433 0
M  V30 21 N -1.749868 -1.294918 -2.837496 0
M  V30 22 C -2.601469 -1.644521 -3.963668 0
M  V30 23 C -3.791185 -2.437478 -3.514177 0
M  V30 24 C -4.893956 -1.655325 -3.183629 0
M  V30 25 C -6.071360 -2.265556 -2.748683 0
M  V30 26 C -6.105897 -3.646380 -2.658572 0
M  V30 27 C -4.999481 -4.399797 -2.991990 0
M  V30 28 Cl -4.983302 -6.154447 -2.897906 0
M  V30 29 C -3.830587 -3.802679 -3.423300 0
M  V30 30 C -0.667888 -2.098950 -2.361926 0
M  V30 31 N 2.028775 1.086493 2.794491 0
M  V30 32 H 4.859361 1.428817 7.202117 0
M  V30 33 H 6.381957 0.536757 7.331241 0
M  V30 34 H 6.363000 1.994948 6.277471 0
M  V30 35 H 5.560777 -2.359501 3.718289 0
M  V30 36 H 3.603586 -0.679747 3.030594 0
M  V30 37 H 3.685262 2.360570 5.439365 0
M  V30 38 H 0.157670 4.277081 3.349769 0
M  V30 39 H -0.514254 2.817718 1.555603 0
M  V30 40 H 2.119787 -1.085017 1.224534 0
M  V30 41 H 1.501552 -2.585046 -0.546708 0
M  V30 42 H -1.002691 1.549323 0.092483 0
M  V30 43 H -2.897321 -0.744212 -4.548715 0
M  V30 44 H -2.007902 -2.279179 -4.681995 0
M  V30 45 H -4.970977 -0.581486 -3.218387 0
M  V30 46 H -6.973695 -1.734184 -2.472044 0
M  V30 47 H -6.980220 -4.213426 -2.329124 0
M  V30 48 H -2.913669 -4.319372 -3.705724 0
M  V30 49 H 0.087807 -2.267479 -3.151924 0
M  V30 50 H -1.116827 -3.070458 -2.027633 0
M  V30 END ATOM
M  V30 BEGIN BOND
M  V30 1 1 1 2
M  V30 2 1 2 3
M  V30 3 2 3 4
M  V30 4 1 4 5
M  V30 5 2 5 6
M  V30 6 1 6 7
M  V30 7 1 7 8
M  V30 8 2 8 9
M  V30 9 1 9 10
M  V30 10 2 10 11
M  V30 11 1 11 12
M  V30 12 1 12 13
M  V30 13 2 13 14
M  V30 14 1 14 15
M  V30 15 2 15 16
M  V30 16 1 16 17
M  V30 17 2 17 18
M  V30 18 1 17 19
M  V30 19 2 19 20
M  V30 20 1 19 21
M  V30 21 1 21 22
M  V30 22 1 22 23
M  V30 23 2 23 24
M  V30 24 1 24 25
M  V30 25 2 25 26
M  V30 26 1 26 27
M  V30 27 1 27 28
M  V30 28 2 27 29
M  V30 29 1 21 30
M  V30 30 2 12 31
M  V30 31 1 6 2
M  V30 32 1 31 8
M  V30 33 1 18 13
M  V30 34 1 29 23
M  V30 35 1 30 16
M  V30 36 1 1 32
M  V30 37 1 1 33
M  V30 38 1 1 34
M  V30 39 1 4 35
M  V30 40 1 5 36
M  V30 41 1 7 37
M  V30 42 1 10 38
M  V30 43 1 11 39
M  V30 44 1 14 40
M  V30 45 1 15 41
M  V30 46 1 18 42
M  V30 47 1 22 43
M  V30 48 1 22 44
M  V30 49 1 24 45
M  V30 50 1 25 46
M  V30 51 1 26 47
M  V30 52 1 29 48
M  V30 53 1 30 49
M  V30 54 1 30 50
M  V30 END BOND
M  V30 END CTAB
M  END
>  <Dataset>  (391) 
ChEMBL_Kinases

>  <Ligand_Instance>  (391) 
nan

>  <PDB_ID>  (391) 
nan

>  <Standardized_SMILES>  (391) 
Cn1nccc1Nc1nccc(-c2ccc3c(c2)C(=O)N(Cc2cccc(Cl)c2)C3)n1

>  <Name>  (391) 
nan

>  <Pocket>  (391) 
nan

>  <ATP_Site>  (391) 
nan

>  <Peripheral>  (391) 
nan

>  <Num_H_Atoms_ProtBoundConf>  (391) 
nan

>  <Num_Resolved_Atoms>  (391) 
nan

>  <Num_Not_Resolved_Atoms>  (391) 
nan

$$$$
CHEMBL4533624
     RDKit          3D

  0  0  0  0  0  0  0  0  0  0999 V3000
M  V30 BEGIN CTAB
M  V30 COUNTS 50 54 0 0 0
M  V30 BEGIN ATOM
M  V30 1 C 2.512436 -3.229634 2.932044 0
M  V30 2 C 2.734219 -1.752945 2.980371 0
M  V30 3 C 2.966692 -1.098889 4.193740 0
M  V30 4 C 3.176445 0.255280 4.295674 0
M  V30 5 C 3.163029 1.027850 3.175642 0
M  V30 6 C 2.932918 0.389944 1.962883 0
M  V30 7 N 2.910295 1.146875 0.736096 0
M  V30 8 C 2.689598 0.711285 -0.592341 0
M  V30 9 N 3.812038 0.249142 -1.155681 0
M  V30 10 C 3.942981 -0.229832 -2.389677 0
M  V30 11 N 2.811838 -0.234223 -3.112949 0
M  V30 12 C 1.663359 0.224881 -2.574367 0
M  V30 13 S -0.014756 0.362693 -3.271336 0
M  V30 14 C -0.738924 1.056345 -1.829321 0
M  V30 15 C 0.301646 1.152772 -0.895827 0
M  V30 16 C 1.524110 0.714589 -1.316754 0
M  V30 17 C -0.231504 1.729197 0.341674 0
M  V30 18 C -1.537722 1.097329 0.714411 0
M  V30 19 N -2.499956 1.060686 -0.303245 0
M  V30 20 S -3.860400 0.125985 -0.069405 0
M  V30 21 O -4.743923 0.174943 -1.307773 0
M  V30 22 O -4.715774 0.540680 1.093891 0
M  V30 23 C -3.426376 -1.556087 0.126604 0
M  V30 24 C -3.742941 -2.232103 1.287321 0
M  V30 25 C -3.448589 -3.557014 1.540774 0
M  V30 26 C -2.786913 -4.264287 0.561022 0
M  V30 27 F -2.510535 -5.547129 0.820161 0
M  V30 28 C -2.445853 -3.639752 -0.618396 0
M  V30 29 C -2.767496 -2.321815 -0.806643 0
M  V30 30 F -2.420294 -1.735460 -1.975520 0
M  V30 31 C -2.146673 1.469980 -1.607700 0
M  V30 32 C 2.723271 -0.970778 1.867341 0
M  V30 33 H 1.453459 -3.352564 2.583522 0
M  V30 34 H 3.227659 -3.744468 2.290456 0
M  V30 35 H 2.554323 -3.624000 3.967437 0
M  V30 36 H 2.979881 -1.704711 5.094363 0
M  V30 37 H 3.352431 0.726021 5.250499 0
M  V30 38 H 3.318127 2.102117 3.146378 0
M  V30 39 H 3.078159 2.192956 0.775371 0
M  V30 40 H 4.824289 -0.598552 -2.848228 0
M  V30 41 H -0.391622 2.845088 0.260195 0
M  V30 42 H 0.458680 1.616595 1.197080 0
M  V30 43 H -1.367492 0.039595 1.069903 0
M  V30 44 H -1.944630 1.612082 1.609870 0
M  V30 45 H -4.268505 -1.681584 2.071896 0
M  V30 46 H -3.738320 -3.989069 2.478002 0
M  V30 47 H -1.931590 -4.227064 -1.355763 0
M  V30 48 H -2.786833 0.901340 -2.331381 0
M  V30 49 H -2.288884 2.559425 -1.795178 0
M  V30 50 H 2.546142 -1.435155 0.902131 0
M  V30 END ATOM
M  V30 BEGIN BOND
M  V30 1 1 1 2
M  V30 2 2 2 3
M  V30 3 1 3 4
M  V30 4 2 4 5
M  V30 5 1 5 6
M  V30 6 1 6 7
M  V30 7 1 7 8
M  V30 8 2 8 9
M  V30 9 1 9 10
M  V30 10 2 10 11
M  V30 11 1 11 12
M  V30 12 1 12 13
M  V30 13 1 13 14
M  V30 14 2 14 15
M  V30 15 1 15 16
M  V30 16 1 15 17
M  V30 17 1 17 18
M  V30 18 1 18 19
M  V30 19 1 19 20
M  V30 20 2 20 21
M  V30 21 2 20 22
M  V30 22 1 20 23
M  V30 23 2 23 24
M  V30 24 1 24 25
M  V30 25 2 25 26
M  V30 26 1 26 27
M  V30 27 1 26 28
M  V30 28 2 28 29
M  V30 29 1 29 30
M  V30 30 1 19 31
M  V30 31 2 6 32
M  V30 32 1 32 2
M  V30 33 1 16 8
M  V30 34 1 29 23
M  V30 35 2 16 12
M  V30 36 1 31 14
M  V30 37 1 1 33
M  V30 38 1 1 34
M  V30 39 1 1 35
M  V30 40 1 3 36
M  V30 41 1 4 37
M  V30 42 1 5 38
M  V30 43 1 7 39
M  V30 44 1 10 40
M  V30 45 1 17 41
M  V30 46 1 17 42
M  V30 47 1 18 43
M  V30 48 1 18 44
M  V30 49 1 24 45
M  V30 50 1 25 46
M  V30 51 1 28 47
M  V30 52 1 31 48
M  V30 53 1 31 49
M  V30 54 1 32 50
M  V30 END BOND
M  V30 END CTAB
M  END
>  <Dataset>  (392) 
ChEMBL_Kinases

>  <Ligand_Instance>  (392) 
nan

>  <PDB_ID>  (392) 
nan

>  <Standardized_SMILES>  (392) 
Cc1cccc(Nc2ncnc3sc4c(c23)CCN(S(=O)(=O)c2ccc(F)cc2F)C4)c1

>  <Name>  (392) 
nan

>  <Pocket>  (392) 
nan

>  <ATP_Site>  (392) 
nan

>  <Peripheral>  (392) 
nan

>  <Num_H_Atoms_ProtBoundConf>  (392) 
nan

>  <Num_Resolved_Atoms>  (392) 
nan

>  <Num_Not_Resolved_Atoms>  (392) 
nan

$$$$
CHEMBL4533527
     RDKit          3D

  0  0  0  0  0  0  0  0  0  0999 V3000
M  V30 BEGIN CTAB
M  V30 COUNTS 53 57 0 0 0
M  V30 BEGIN ATOM
M  V30 1 C 2.988975 -2.400510 3.794505 0
M  V30 2 C 2.569732 -3.724157 3.184197 0
M  V30 3 C 3.498211 -4.785534 3.734934 0
M  V30 4 C 2.736774 -3.647446 1.678474 0
M  V30 5 N 1.556613 -2.968095 1.184477 0
M  V30 6 C 1.450866 -1.624622 0.739645 0
M  V30 7 C 2.555161 -0.803183 0.749664 0
M  V30 8 C 2.392381 0.501832 0.303952 0
M  V30 9 C 1.111038 0.861516 -0.116693 0
M  V30 10 N 0.710448 2.061939 -0.586689 0
M  V30 11 C -0.603690 1.996675 -0.882611 0
M  V30 12 C -1.396594 3.100839 -1.416926 0
M  V30 13 C -2.445287 3.536612 -0.599575 0
M  V30 14 C -3.196256 4.582108 -1.104673 0
M  V30 15 C -2.987626 5.201479 -2.316850 0
M  V30 16 F -3.785200 6.223904 -2.722050 0
M  V30 17 C -1.925355 4.720597 -3.086072 0
M  V30 18 C -1.140152 3.676404 -2.630850 0
M  V30 19 C -1.023151 0.717235 -0.585385 0
M  V30 20 C -2.359060 0.174063 -0.738013 0
M  V30 21 C -2.979775 0.068072 -1.985833 0
M  V30 22 C -4.252935 -0.466993 -1.991046 0
M  V30 23 N -4.878349 -0.869741 -0.868372 0
M  V30 24 C -4.266899 -0.760906 0.325441 0
M  V30 25 C -2.978873 -0.231763 0.428074 0
M  V30 26 N 0.040028 0.033111 -0.116601 0
M  V30 27 N 0.255249 -1.218137 0.324945 0
M  V30 28 C 0.435097 -3.885060 1.204669 0
M  V30 29 C 0.399462 -4.558880 2.537709 0
M  V30 30 N 1.188180 -3.927937 3.558537 0
M  V30 31 H 2.212590 -1.615823 3.653483 0
M  V30 32 H 3.961472 -2.107629 3.344471 0
M  V30 33 H 3.154936 -2.482573 4.887879 0
M  V30 34 H 4.469102 -4.305091 3.974126 0
M  V30 35 H 3.703960 -5.573980 2.986990 0
M  V30 36 H 3.096216 -5.173286 4.689781 0
M  V30 37 H 2.864692 -4.659410 1.223568 0
M  V30 38 H 3.670432 -3.103299 1.438558 0
M  V30 39 H 3.535166 -1.109051 1.081065 0
M  V30 40 H 3.193408 1.217757 0.273890 0
M  V30 41 H -2.669508 3.094840 0.370051 0
M  V30 42 H -4.022231 4.937175 -0.478568 0
M  V30 43 H -1.732210 5.183998 -4.044690 0
M  V30 44 H -0.316144 3.303287 -3.227206 0
M  V30 45 H -2.455022 0.399189 -2.874299 0
M  V30 46 H -4.765248 -0.561947 -2.961500 0
M  V30 47 H -4.731647 -1.073811 1.269346 0
M  V30 48 H -2.494848 -0.148568 1.397000 0
M  V30 49 H 0.649520 -4.674428 0.426939 0
M  V30 50 H -0.526166 -3.425610 0.903742 0
M  V30 51 H 0.604569 -5.656339 2.458518 0
M  V30 52 H -0.668556 -4.491268 2.892681 0
M  V30 53 H 1.182573 -4.571539 4.380795 0
M  V30 END ATOM
M  V30 BEGIN BOND
M  V30 1 1 1 2
M  V30 2 1 2 3
M  V30 3 1 2 4
M  V30 4 1 4 5
M  V30 5 1 5 6
M  V30 6 1 6 7
M  V30 7 2 7 8
M  V30 8 1 8 9
M  V30 9 2 9 10
M  V30 10 1 10 11
M  V30 11 1 11 12
M  V30 12 2 12 13
M  V30 13 1 13 14
M  V30 14 2 14 15
M  V30 15 1 15 16
M  V30 16 1 15 17
M  V30 17 2 17 18
M  V30 18 2 11 19
M  V30 19 1 19 20
M  V30 20 2 20 21
M  V30 21 1 21 22
M  V30 22 2 22 23
M  V30 23 1 23 24
M  V30 24 2 24 25
M  V30 25 1 19 26
M  V30 26 1 26 27
M  V30 27 1 5 28
M  V30 28 1 28 29
M  V30 29 1 29 30
M  V30 30 1 30 2
M  V30 31 2 27 6
M  V30 32 1 26 9
M  V30 33 1 18 12
M  V30 34 1 25 20
M  V30 35 1 1 31
M  V30 36 1 1 32
M  V30 37 1 1 33
M  V30 38 1 3 34
M  V30 39 1 3 35
M  V30 40 1 3 36
M  V30 41 1 4 37
M  V30 42 1 4 38
M  V30 43 1 7 39
M  V30 44 1 8 40
M  V30 45 1 13 41
M  V30 46 1 14 42
M  V30 47 1 17 43
M  V30 48 1 18 44
M  V30 49 1 21 45
M  V30 50 1 22 46
M  V30 51 1 24 47
M  V30 52 1 25 48
M  V30 53 1 28 49
M  V30 54 1 28 50
M  V30 55 1 29 51
M  V30 56 1 29 52
M  V30 57 1 30 53
M  V30 END BOND
M  V30 END CTAB
M  END
>  <Dataset>  (393) 
ChEMBL_Kinases

>  <Ligand_Instance>  (393) 
nan

>  <PDB_ID>  (393) 
nan

>  <Standardized_SMILES>  (393) 
CC1(C)CN(c2ccc3nc(-c4ccc(F)cc4)c(-c4ccncc4)n3n2)CCN1

>  <Name>  (393) 
nan

>  <Pocket>  (393) 
nan

>  <ATP_Site>  (393) 
nan

>  <Peripheral>  (393) 
nan

>  <Num_H_Atoms_ProtBoundConf>  (393) 
nan

>  <Num_Resolved_Atoms>  (393) 
nan

>  <Num_Not_Resolved_Atoms>  (393) 
nan

$$$$
CHEMBL4533517
     RDKit          3D

  0  0  0  0  0  0  0  0  0  0999 V3000
M  V30 BEGIN CTAB
M  V30 COUNTS 36 39 0 0 0
M  V30 BEGIN ATOM
M  V30 1 C 1.477125 -5.286229 1.119862 0
M  V30 2 C 0.651101 -5.248048 2.214655 0
M  V30 3 C 0.087453 -4.021911 2.566860 0
M  V30 4 C 0.407832 -2.919845 1.776223 0
M  V30 5 N -0.135536 -1.626690 2.095376 0
M  V30 6 C -0.244070 -0.475921 1.287370 0
M  V30 7 N 0.695204 0.191149 0.596042 0
M  V30 8 C 0.421149 1.280653 -0.137866 0
M  V30 9 C 1.488079 1.948195 -0.866941 0
M  V30 10 C 2.794620 1.446965 -0.792170 0
M  V30 11 C 3.815415 2.091264 -1.501439 0
M  V30 12 N 3.517609 3.166916 -2.230449 0
M  V30 13 C 2.273365 3.639798 -2.297713 0
M  V30 14 C 1.183781 3.069155 -1.628133 0
M  V30 15 N -0.854789 1.732421 -0.187349 0
M  V30 16 C -1.867333 1.123123 0.477933 0
M  V30 17 C -3.112630 1.704059 0.328136 0
M  V30 18 N -4.128610 1.085575 0.999078 0
M  V30 19 C -3.867473 -0.023547 1.751350 0
M  V30 20 C -2.627566 -0.599609 1.901647 0
M  V30 21 C -1.552310 0.001716 1.226044 0
M  V30 22 C 1.237552 -2.937944 0.669443 0
M  V30 23 C 1.785703 -4.181038 0.342240 0
M  V30 24 H 1.924742 -6.248160 0.830261 0
M  V30 25 H 0.408302 -6.102454 2.828690 0
M  V30 26 H -0.584571 -3.855319 3.415527 0
M  V30 27 H -0.495518 -1.518819 3.074516 0
M  V30 28 H 3.009247 0.571657 -0.196078 0
M  V30 29 H 4.834088 1.685790 -1.431411 0
M  V30 30 H 2.013496 4.518806 -2.892238 0
M  V30 31 H 0.161412 3.420481 -1.659755 0
M  V30 32 H -3.297510 2.564809 -0.261092 0
M  V30 33 H -4.663765 -0.547041 2.306662 0
M  V30 34 H -2.427955 -1.459914 2.486477 0
M  V30 35 H 1.446501 -2.056966 0.095136 0
M  V30 36 H 2.439524 -4.259948 -0.511911 0
M  V30 END ATOM
M  V30 BEGIN BOND
M  V30 1 2 1 2
M  V30 2 1 2 3
M  V30 3 2 3 4
M  V30 4 1 4 5
M  V30 5 1 5 6
M  V30 6 2 6 7
M  V30 7 1 7 8
M  V30 8 1 8 9
M  V30 9 2 9 10
M  V30 10 1 10 11
M  V30 11 2 11 12
M  V30 12 1 12 13
M  V30 13 2 13 14
M  V30 14 2 8 15
M  V30 15 1 15 16
M  V30 16 2 16 17
M  V30 17 1 17 18
M  V30 18 2 18 19
M  V30 19 1 19 20
M  V30 20 2 20 21
M  V30 21 1 4 22
M  V30 22 2 22 23
M  V30 23 1 23 1
M  V30 24 1 21 6
M  V30 25 1 14 9
M  V30 26 1 21 16
M  V30 27 1 1 24
M  V30 28 1 2 25
M  V30 29 1 3 26
M  V30 30 1 5 27
M  V30 31 1 10 28
M  V30 32 1 11 29
M  V30 33 1 13 30
M  V30 34 1 14 31
M  V30 35 1 17 32
M  V30 36 1 19 33
M  V30 37 1 20 34
M  V30 38 1 22 35
M  V30 39 1 23 36
M  V30 END BOND
M  V30 END CTAB
M  END
>  <Dataset>  (394) 
ChEMBL_Kinases

>  <Ligand_Instance>  (394) 
nan

>  <PDB_ID>  (394) 
nan

>  <Standardized_SMILES>  (394) 
c1ccc(Nc2nc(-c3ccncc3)nc3cnccc23)cc1

>  <Name>  (394) 
nan

>  <Pocket>  (394) 
nan

>  <ATP_Site>  (394) 
nan

>  <Peripheral>  (394) 
nan

>  <Num_H_Atoms_ProtBoundConf>  (394) 
nan

>  <Num_Resolved_Atoms>  (394) 
nan

>  <Num_Not_Resolved_Atoms>  (394) 
nan

$$$$
CHEMBL453347
     RDKit          3D

  0  0  0  0  0  0  0  0  0  0999 V3000
M  V30 BEGIN CTAB
M  V30 COUNTS 63 68 0 0 0
M  V30 BEGIN ATOM
M  V30 1 C 3.489063 2.652667 4.109735 0
M  V30 2 N 2.910146 2.022104 2.937010 0
M  V30 3 C 3.746151 0.953444 2.435224 0
M  V30 4 C 3.223783 0.587276 1.050428 0
M  V30 5 N 1.812351 0.271265 1.116780 0
M  V30 6 C 0.995846 1.320143 0.589289 0
M  V30 7 C 1.071474 1.567442 -0.861311 0
M  V30 8 C 0.701868 0.510571 -1.806355 0
M  V30 9 N -0.625204 -0.000933 -1.762599 0
M  V30 10 C -1.691932 0.503931 -2.446058 0
M  V30 11 C -1.687471 1.613196 -3.305654 0
M  V30 12 C -2.824566 2.055260 -3.958923 0
M  V30 13 C -3.991648 1.320531 -3.707029 0
M  V30 14 O -5.148209 1.771244 -4.372402 0
M  V30 15 C -3.948866 0.250565 -2.864906 0
M  V30 16 C -2.857302 -0.196214 -2.220518 0
M  V30 17 C -2.500778 -1.187514 -1.353774 0
M  V30 18 C -3.243986 -2.180473 -0.790235 0
M  V30 19 C -2.659110 -3.081951 0.064737 0
M  V30 20 C -1.314679 -2.991452 0.361524 0
M  V30 21 C -0.527441 -3.831906 1.255756 0
M  V30 22 C 0.644567 -4.335824 0.676353 0
M  V30 23 C 1.510037 -5.137706 1.384146 0
M  V30 24 C 1.249264 -5.473201 2.695889 0
M  V30 25 C 0.081774 -4.974414 3.281890 0
M  V30 26 C -0.767592 -4.174201 2.553263 0
M  V30 27 C -0.585141 -1.957015 -0.238477 0
M  V30 28 C -1.160556 -1.044892 -1.098758 0
M  V30 29 C -3.590161 -4.082148 0.573414 0
M  V30 30 O -3.400849 -5.042698 1.361795 0
M  V30 31 N -4.844791 -3.736064 -0.040142 0
M  V30 32 C -4.621357 -2.597664 -0.851908 0
M  V30 33 O -5.603496 -2.155793 -1.463302 0
M  V30 34 C 1.415317 0.123484 2.525487 0
M  V30 35 C 1.643636 1.412306 3.295108 0
M  V30 36 H 4.371491 3.271572 3.853842 0
M  V30 37 H 3.712425 1.891515 4.901852 0
M  V30 38 H 2.742282 3.335901 4.563616 0
M  V30 39 H 4.806100 1.214912 2.371285 0
M  V30 40 H 3.659517 0.110813 3.156127 0
M  V30 41 H 3.821678 -0.293696 0.677556 0
M  V30 42 H 3.479489 1.422411 0.396908 0
M  V30 43 H -0.059903 1.259713 0.983197 0
M  V30 44 H 1.374190 2.264501 1.085147 0
M  V30 45 H 0.517944 2.508808 -1.077877 0
M  V30 46 H 2.145288 1.849444 -1.081672 0
M  V30 47 H 1.423181 -0.350819 -1.686181 0
M  V30 48 H 0.892431 0.870768 -2.845790 0
M  V30 49 H -0.804589 2.196711 -3.517643 0
M  V30 50 H -2.817293 2.902544 -4.614616 0
M  V30 51 H -5.701939 2.522349 -3.948129 0
M  V30 52 H -4.894496 -0.211708 -2.763619 0
M  V30 53 H 0.924938 -4.114721 -0.365126 0
M  V30 54 H 2.426706 -5.554972 0.992021 0
M  V30 55 H 1.864006 -6.095844 3.338730 0
M  V30 56 H -0.161042 -5.210616 4.302266 0
M  V30 57 H -1.652578 -3.778302 2.981893 0
M  V30 58 H 0.469340 -1.844066 -0.045969 0
M  V30 59 H -5.716200 -4.305772 0.155824 0
M  V30 60 H 0.295627 -0.022989 2.489153 0
M  V30 61 H 1.824527 -0.765243 3.001860 0
M  V30 62 H 0.810227 2.110786 3.207613 0
M  V30 63 H 1.691047 1.130066 4.382547 0
M  V30 END ATOM
M  V30 BEGIN BOND
M  V30 1 1 1 2
M  V30 2 1 2 3
M  V30 3 1 3 4
M  V30 4 1 4 5
M  V30 5 1 5 6
M  V30 6 1 6 7
M  V30 7 1 7 8
M  V30 8 1 8 9
M  V30 9 1 9 10
M  V30 10 2 10 11
M  V30 11 1 11 12
M  V30 12 2 12 13
M  V30 13 1 13 14
M  V30 14 1 13 15
M  V30 15 2 15 16
M  V30 16 1 16 17
M  V30 17 2 17 18
M  V30 18 1 18 19
M  V30 19 2 19 20
M  V30 20 1 20 21
M  V30 21 2 21 22
M  V30 22 1 22 23
M  V30 23 2 23 24
M  V30 24 1 24 25
M  V30 25 2 25 26
M  V30 26 1 20 27
M  V30 27 2 27 28
M  V30 28 1 19 29
M  V30 29 2 29 30
M  V30 30 1 29 31
M  V30 31 1 31 32
M  V30 32 2 32 33
M  V30 33 1 5 34
M  V30 34 1 34 35
M  V30 35 1 35 2
M  V30 36 1 28 9
M  V30 37 1 16 10
M  V30 38 1 28 17
M  V30 39 1 32 18
M  V30 40 1 26 21
M  V30 41 1 1 36
M  V30 42 1 1 37
M  V30 43 1 1 38
M  V30 44 1 3 39
M  V30 45 1 3 40
M  V30 46 1 4 41
M  V30 47 1 4 42
M  V30 48 1 6 43
M  V30 49 1 6 44
M  V30 50 1 7 45
M  V30 51 1 7 46
M  V30 52 1 8 47
M  V30 53 1 8 48
M  V30 54 1 11 49
M  V30 55 1 12 50
M  V30 56 1 14 51
M  V30 57 1 15 52
M  V30 58 1 22 53
M  V30 59 1 23 54
M  V30 60 1 24 55
M  V30 61 1 25 56
M  V30 62 1 26 57
M  V30 63 1 27 58
M  V30 64 1 31 59
M  V30 65 1 34 60
M  V30 66 1 34 61
M  V30 67 1 35 62
M  V30 68 1 35 63
M  V30 END BOND
M  V30 END CTAB
M  END
>  <Dataset>  (395) 
ChEMBL_Kinases

>  <Ligand_Instance>  (395) 
nan

>  <PDB_ID>  (395) 
nan

>  <Standardized_SMILES>  (395) 
CN1CCN(CCCn2c3ccc(O)cc3c3c4c(c(-c5ccccc5)cc32)C(=O)NC4=O)CC1

>  <Name>  (395) 
nan

>  <Pocket>  (395) 
nan

>  <ATP_Site>  (395) 
nan

>  <Peripheral>  (395) 
nan

>  <Num_H_Atoms_ProtBoundConf>  (395) 
nan

>  <Num_Resolved_Atoms>  (395) 
nan

>  <Num_Not_Resolved_Atoms>  (395) 
nan

$$$$
CHEMBL4533453
     RDKit          3D

  0  0  0  0  0  0  0  0  0  0999 V3000
M  V30 BEGIN CTAB
M  V30 COUNTS 41 44 0 0 0
M  V30 BEGIN ATOM
M  V30 1 Cl 1.727574 -2.440471 5.264429 0
M  V30 2 C 2.029169 -2.047658 3.601605 0
M  V30 3 C 3.304648 -2.029444 3.106263 0
M  V30 4 N 3.589633 -1.736239 1.831854 0
M  V30 5 C 2.622729 -1.434135 0.937968 0
M  V30 6 N 2.711807 -1.068153 -0.422477 0
M  V30 7 C 1.742155 -0.805215 -1.429336 0 CFG=2
M  V30 8 C 2.444410 -0.262977 -2.648927 0
M  V30 9 C 1.489516 0.375443 -3.619548 0
M  V30 10 C 0.091250 -0.174873 -3.416270 0
M  V30 11 N -0.399237 0.037219 -2.098764 0
M  V30 12 C 0.615131 0.093151 -1.060761 0
M  V30 13 N 1.391221 -1.454310 1.426376 0
M  V30 14 C 1.044433 -1.739779 2.690855 0
M  V30 15 C -0.321286 -1.714076 3.231737 0
M  V30 16 C -1.182191 -2.595577 3.846516 0
M  V30 17 N -2.338248 -2.000469 4.144602 0
M  V30 18 C -2.306401 -0.714850 3.748421 0
M  V30 19 C -3.172518 0.333397 3.792069 0
M  V30 20 C -2.914431 1.600959 3.312056 0
M  V30 21 C -1.661734 1.797936 2.740382 0
M  V30 22 C -0.770570 0.743251 2.685454 0
M  V30 23 C -1.045736 -0.522089 3.173967 0
M  V30 24 H 4.182203 -2.249626 3.701713 0
M  V30 25 H 3.732535 -0.996318 -0.647920 0
M  V30 26 H 1.252870 -1.781034 -1.753609 0
M  V30 27 H 2.930626 -1.146227 -3.157178 0
M  V30 28 H 3.213094 0.446653 -2.293873 0
M  V30 29 H 1.510816 1.481915 -3.548037 0
M  V30 30 H 1.775243 0.113067 -4.659720 0
M  V30 31 H 0.166740 -1.269406 -3.597775 0
M  V30 32 H -0.574340 0.282077 -4.180003 0
M  V30 33 H -1.135185 0.752687 -2.007807 0
M  V30 34 H 0.892413 1.152409 -0.885577 0
M  V30 35 H 0.078451 -0.315433 -0.146958 0
M  V30 36 H -0.844005 -3.608788 4.012066 0
M  V30 37 H -3.172793 -2.457902 4.616867 0
M  V30 38 H -4.124344 0.113454 4.251354 0
M  V30 39 H -3.706205 2.350227 3.418859 0
M  V30 40 H -1.470876 2.786942 2.371747 0
M  V30 41 H 0.154268 1.008211 2.222459 0
M  V30 END ATOM
M  V30 BEGIN BOND
M  V30 1 1 1 2
M  V30 2 2 2 3
M  V30 3 1 3 4
M  V30 4 2 4 5
M  V30 5 1 5 6
M  V30 6 1 6 7
M  V30 7 1 7 8
M  V30 8 1 8 9
M  V30 9 1 9 10
M  V30 10 1 10 11
M  V30 11 1 11 12
M  V30 12 1 5 13
M  V30 13 2 13 14
M  V30 14 1 14 15
M  V30 15 2 15 16
M  V30 16 1 16 17
M  V30 17 1 17 18
M  V30 18 2 18 19
M  V30 19 1 19 20
M  V30 20 2 20 21
M  V30 21 1 21 22
M  V30 22 2 22 23
M  V30 23 1 14 2
M  V30 24 1 23 15
M  V30 25 1 12 7
M  V30 26 1 23 18
M  V30 27 1 3 24
M  V30 28 1 6 25
M  V30 29 1 7 26 CFG=3
M  V30 30 1 8 27
M  V30 31 1 8 28
M  V30 32 1 9 29
M  V30 33 1 9 30
M  V30 34 1 10 31
M  V30 35 1 10 32
M  V30 36 1 11 33
M  V30 37 1 12 34
M  V30 38 1 12 35
M  V30 39 1 16 36
M  V30 40 1 17 37
M  V30 41 1 19 38
M  V30 42 1 20 39
M  V30 43 1 21 40
M  V30 44 1 22 41
M  V30 END BOND
M  V30 END CTAB
M  END
>  <Dataset>  (396) 
ChEMBL_Kinases

>  <Ligand_Instance>  (396) 
nan

>  <PDB_ID>  (396) 
nan

>  <Standardized_SMILES>  (396) 
Clc1cnc(N[C@@H]2CCCNC2)nc1-c1c[nH]c2ccccc12

>  <Name>  (396) 
nan

>  <Pocket>  (396) 
nan

>  <ATP_Site>  (396) 
nan

>  <Peripheral>  (396) 
nan

>  <Num_H_Atoms_ProtBoundConf>  (396) 
nan

>  <Num_Resolved_Atoms>  (396) 
nan

>  <Num_Not_Resolved_Atoms>  (396) 
nan

$$$$
CHEMBL4533288
     RDKit          3D

  0  0  0  0  0  0  0  0  0  0999 V3000
M  V30 BEGIN CTAB
M  V30 COUNTS 44 47 0 0 0
M  V30 BEGIN ATOM
M  V30 1 C 0.074825 -5.161371 2.573516 0
M  V30 2 C -0.701343 -4.879178 1.308133 0
M  V30 3 O -1.880375 -4.962363 0.793197 0
M  V30 4 N -0.248435 -4.321035 0.095234 0
M  V30 5 C 0.181285 -3.756609 -1.148369 0
M  V30 6 N 0.885707 -3.927930 -2.249796 0
M  V30 7 N 0.943991 -2.812128 -2.912546 0
M  V30 8 C 0.266918 -1.814743 -2.277396 0
M  V30 9 C 0.126251 -0.500307 -2.552784 0
M  V30 10 C -0.573903 0.239974 -1.631976 0
M  V30 11 C -0.431905 1.674843 -1.213369 0
M  V30 12 C -0.941461 2.888860 -0.854730 0
M  V30 13 C -0.426714 3.778335 0.016031 0
M  V30 14 C 0.742720 3.568557 0.697193 0
M  V30 15 C 1.440452 2.431021 0.503076 0
M  V30 16 N 2.568352 1.951844 1.253620 0
M  V30 17 S 2.297261 0.486504 2.085380 0
M  V30 18 O 3.585381 0.004759 2.722187 0
M  V30 19 O 1.977820 -0.631246 1.100509 0
M  V30 20 C 1.012622 0.485937 3.250064 0
M  V30 21 C -0.146070 1.314432 3.339474 0
M  V30 22 C 0.960328 1.460593 4.384485 0
M  V30 23 C 0.808218 1.584891 -0.431930 0
M  V30 24 C -1.154430 -0.245358 -0.466161 0
M  V30 25 C -1.003142 -1.647971 -0.173827 0
M  V30 26 C -0.270455 -2.413857 -1.098214 0
M  V30 27 H 1.078900 -4.627040 2.469717 0
M  V30 28 H 0.235385 -6.215784 2.754769 0
M  V30 29 H -0.411466 -4.580208 3.421861 0
M  V30 30 H 0.842815 -4.324854 0.397257 0
M  V30 31 H 1.420781 -2.699934 -3.807588 0
M  V30 32 H 0.488429 0.038166 -3.400221 0
M  V30 33 H -1.844450 2.829033 -1.495063 0
M  V30 34 H -1.097663 4.646496 0.102120 0
M  V30 35 H 1.091177 4.323395 1.387204 0
M  V30 36 H 3.515785 2.423613 1.346450 0
M  V30 37 H 0.867922 -0.614378 3.691962 0
M  V30 38 H -0.370246 2.259742 2.852570 0
M  V30 39 H -1.125385 0.866851 3.789034 0
M  V30 40 H 1.666360 2.275273 4.319086 0
M  V30 41 H 0.695309 1.170509 5.427652 0
M  V30 42 H 1.457555 0.689317 -0.557850 0
M  V30 43 H -1.757869 0.176484 0.341325 0
M  V30 44 H -1.449348 -2.103953 0.726301 0
M  V30 END ATOM
M  V30 BEGIN BOND
M  V30 1 1 1 2
M  V30 2 2 2 3
M  V30 3 1 2 4
M  V30 4 1 4 5
M  V30 5 2 5 6
M  V30 6 1 6 7
M  V30 7 1 7 8
M  V30 8 2 8 9
M  V30 9 1 9 10
M  V30 10 1 10 11
M  V30 11 2 11 12
M  V30 12 1 12 13
M  V30 13 2 13 14
M  V30 14 1 14 15
M  V30 15 1 15 16
M  V30 16 1 16 17
M  V30 17 2 17 18
M  V30 18 2 17 19
M  V30 19 1 17 20
M  V30 20 1 20 21
M  V30 21 1 21 22
M  V30 22 2 15 23
M  V30 23 2 10 24
M  V30 24 1 24 25
M  V30 25 2 25 26
M  V30 26 1 26 5
M  V30 27 1 26 8
M  V30 28 1 23 11
M  V30 29 1 22 20
M  V30 30 1 1 27
M  V30 31 1 1 28
M  V30 32 1 1 29
M  V30 33 1 4 30
M  V30 34 1 7 31
M  V30 35 1 9 32
M  V30 36 1 12 33
M  V30 37 1 13 34
M  V30 38 1 14 35
M  V30 39 1 16 36
M  V30 40 1 20 37
M  V30 41 1 21 38
M  V30 42 1 21 39
M  V30 43 1 22 40
M  V30 44 1 22 41
M  V30 45 1 23 42
M  V30 46 1 24 43
M  V30 47 1 25 44
M  V30 END BOND
M  V30 END CTAB
M  END
>  <Dataset>  (397) 
ChEMBL_Kinases

>  <Ligand_Instance>  (397) 
nan

>  <PDB_ID>  (397) 
nan

>  <Standardized_SMILES>  (397) 
CC(=O)Nc1n[nH]c2cc(-c3cccc(NS(=O)(=O)C4CC4)c3)ccc12

>  <Name>  (397) 
nan

>  <Pocket>  (397) 
nan

>  <ATP_Site>  (397) 
nan

>  <Peripheral>  (397) 
nan

>  <Num_H_Atoms_ProtBoundConf>  (397) 
nan

>  <Num_Resolved_Atoms>  (397) 
nan

>  <Num_Not_Resolved_Atoms>  (397) 
nan

$$$$
CHEMBL4533216
     RDKit          3D

  0  0  0  0  0  0  0  0  0  0999 V3000
M  V30 BEGIN CTAB
M  V30 COUNTS 121 124 0 0 0
M  V30 BEGIN ATOM
M  V30 1 C -0.947163 -5.204560 -3.238576 0
M  V30 2 C -0.230656 -4.233352 -4.109466 0
M  V30 3 C 1.206580 -4.098019 -3.680529 0
M  V30 4 C 1.321302 -3.594879 -2.237633 0
M  V30 5 C 2.744235 -3.428734 -1.840152 0
M  V30 6 C 3.054505 -2.935508 -0.486380 0
M  V30 7 C 2.710749 -3.685209 0.719453 0
M  V30 8 C 1.341197 -4.025708 1.081961 0
M  V30 9 O 0.647769 -5.069173 0.846376 0
M  V30 10 O 0.569912 -3.133793 1.819665 0
M  V30 11 C -0.745587 -3.446054 2.208826 0 CFG=1
M  V30 12 C -0.607014 -3.671897 3.720022 0
M  V30 13 C -0.290075 -4.870786 4.144106 0
M  V30 14 C -0.143354 -5.155065 5.560494 0
M  V30 15 O -0.118684 -4.992999 6.786085 0
M  V30 16 O 0.199796 -6.461650 5.836109 0
M  V30 17 C 0.405729 -7.016689 7.108878 0
M  V30 18 C -0.819256 -2.527615 4.592871 0
M  V30 19 C -0.773685 -1.190800 3.901775 0 CFG=1
M  V30 20 C 0.669570 -0.703896 4.064148 0
M  V30 21 C 0.910593 0.666599 3.488789 0 CFG=2
M  V30 22 C 2.408783 0.914301 3.599657 0
M  V30 23 O 2.859578 0.881895 4.908634 0
M  V30 24 O 0.164114 1.611997 4.152172 0
M  V30 25 C -0.798924 2.416152 3.649729 0
M  V30 26 O -0.889036 2.102001 2.428477 0
M  V30 27 C -1.856019 3.399089 3.400882 0
M  V30 28 C -2.454384 3.275573 1.985479 0
M  V30 29 O -1.679317 3.401016 0.950981 0
M  V30 30 C -0.918065 3.535753 -0.057106 0
M  V30 31 C -0.108276 4.534651 -0.507705 0
M  V30 32 C 0.645526 4.481997 -1.645064 0
M  V30 33 C 0.609380 3.354043 -2.418562 0
M  V30 34 C 1.247998 2.917775 -3.679402 0
M  V30 35 C 0.550491 3.136572 -4.876550 0
M  V30 36 O -0.676527 3.757739 -4.953832 0
M  V30 37 C -1.365194 3.878479 -6.154117 0
M  V30 38 C -2.862024 3.859477 -6.063559 0
M  V30 39 C -1.017608 5.153492 -6.927033 0
M  V30 40 C 1.183156 2.677398 -6.010622 0
M  V30 41 C 2.415402 2.041342 -6.028161 0
M  V30 42 C 3.095199 1.831168 -4.854027 0
M  V30 43 C 2.503633 2.275106 -3.672624 0
M  V30 44 O 3.023336 2.164927 -2.405108 0
M  V30 45 C 4.250511 1.580897 -2.119391 0
M  V30 46 C 5.277433 2.605289 -1.635807 0
M  V30 47 C 4.114822 0.519342 -1.055379 0
M  V30 48 C -0.222099 2.307567 -1.972582 0
M  V30 49 C -1.001325 2.344694 -0.804564 0
M  V30 50 C -1.794360 1.156561 -0.481939 0
M  V30 51 O -2.769372 1.712740 -1.028306 0
M  V30 52 O -1.574349 -0.049380 0.147445 0
M  V30 53 C -2.705265 -0.903860 0.238011 0
M  V30 54 C -2.399881 -2.224653 0.802020 0
M  V30 55 C -3.730955 -2.989536 0.893618 0
M  V30 56 C -1.615879 -2.995655 -0.272539 0
M  V30 57 C -1.717612 -2.303567 2.125166 0 CFG=1
M  V30 58 O -2.716133 -2.603101 3.103928 0
M  V30 59 O -1.104159 -1.174454 2.577050 0
M  V30 60 H -1.703810 -4.694615 -2.615805 0
M  V30 61 H -1.416985 -5.984127 -3.889041 0
M  V30 62 H -0.226200 -5.736130 -2.605856 0
M  V30 63 H -0.324405 -4.443785 -5.188213 0
M  V30 64 H -0.710393 -3.218742 -3.965603 0
M  V30 65 H 1.703081 -3.387601 -4.373547 0
M  V30 66 H 1.759617 -5.057123 -3.762314 0
M  V30 67 H 0.839245 -4.346801 -1.632530 0
M  V30 68 H 0.736646 -2.654594 -2.213699 0
M  V30 69 H 3.197267 -2.692190 -2.568726 0
M  V30 70 H 3.231198 -4.432211 -1.995083 0
M  V30 71 H 2.556668 -1.908790 -0.381494 0
M  V30 72 H 4.154598 -2.624099 -0.417760 0
M  V30 73 H 3.361864 -4.620864 0.750112 0
M  V30 74 H 3.158140 -3.072239 1.594686 0
M  V30 75 H -1.123577 -4.415572 1.835581 0
M  V30 76 H -0.154116 -5.606672 3.400682 0
M  V30 77 H 0.476014 -8.141200 7.020242 0
M  V30 78 H 1.357564 -6.690903 7.581084 0
M  V30 79 H -0.386280 -6.820978 7.844517 0
M  V30 80 H -1.762697 -2.613637 5.167866 0
M  V30 81 H -0.026348 -2.565347 5.408579 0
M  V30 82 H -1.473495 -0.511973 4.437336 0
M  V30 83 H 1.413856 -1.432133 3.709914 0
M  V30 84 H 0.835134 -0.668088 5.182491 0
M  V30 85 H 0.659893 0.634612 2.426967 0
M  V30 86 H 2.880625 0.062309 3.070603 0
M  V30 87 H 2.729278 1.818233 3.056792 0
M  V30 88 H 2.358948 1.506448 5.471876 0
M  V30 89 H -1.397805 4.424385 3.519579 0
M  V30 90 H -2.672752 3.330216 4.155523 0
M  V30 91 H -2.986187 2.248686 2.022609 0
M  V30 92 H -3.396550 3.950356 1.980125 0
M  V30 93 H -0.060248 5.428673 0.073455 0
M  V30 94 H 1.309026 5.210750 -2.077710 0
M  V30 95 H -1.052049 3.059815 -6.870571 0
M  V30 96 H -3.234218 4.847339 -5.749955 0
M  V30 97 H -3.215062 3.767154 -7.138791 0
M  V30 98 H -3.290243 3.032211 -5.485676 0
M  V30 99 H -0.737141 4.941371 -7.963569 0
M  V30 100 H -0.143316 5.656627 -6.464599 0
M  V30 101 H -1.852623 5.891989 -6.918541 0
M  V30 102 H 0.834040 2.745183 -7.029579 0
M  V30 103 H 2.944275 1.664568 -6.904086 0
M  V30 104 H 4.051922 1.344515 -4.810535 0
M  V30 105 H 4.739604 1.099354 -2.984960 0
M  V30 106 H 6.161684 1.968986 -1.331857 0
M  V30 107 H 5.632938 3.257062 -2.444916 0
M  V30 108 H 4.922526 3.087997 -0.732744 0
M  V30 109 H 3.087995 0.534735 -0.592712 0
M  V30 110 H 4.375767 -0.488617 -1.448608 0
M  V30 111 H 4.801532 0.707229 -0.204375 0
M  V30 112 H -0.413421 1.334785 -2.449916 0
M  V30 113 H -3.412722 -0.360015 0.928739 0
M  V30 114 H -3.232725 -1.005391 -0.708087 0
M  V30 115 H -4.336025 -2.863659 -0.003849 0
M  V30 116 H -4.257403 -2.546522 1.770353 0
M  V30 117 H -3.520022 -4.067211 1.046681 0
M  V30 118 H -2.136321 -2.735354 -1.235244 0
M  V30 119 H -1.681779 -4.073459 -0.161001 0
M  V30 120 H -0.633635 -2.541450 -0.327855 0
M  V30 121 H -2.929385 -3.579401 3.002604 0
M  V30 END ATOM
M  V30 BEGIN BOND
M  V30 1 1 1 2
M  V30 2 1 2 3
M  V30 3 1 3 4
M  V30 4 1 4 5
M  V30 5 1 5 6
M  V30 6 1 6 7
M  V30 7 1 7 8
M  V30 8 2 8 9
M  V30 9 1 8 10
M  V30 10 1 10 11
M  V30 11 1 11 12
M  V30 12 2 12 13
M  V30 13 1 13 14
M  V30 14 2 14 15
M  V30 15 1 14 16
M  V30 16 1 16 17
M  V30 17 1 12 18
M  V30 18 1 18 19
M  V30 19 1 19 20
M  V30 20 1 20 21
M  V30 21 1 21 22
M  V30 22 1 22 23
M  V30 23 1 21 24
M  V30 24 1 24 25
M  V30 25 2 25 26
M  V30 26 1 25 27
M  V30 27 1 27 28
M  V30 28 1 28 29
M  V30 29 1 29 30
M  V30 30 2 30 31
M  V30 31 1 31 32
M  V30 32 2 32 33
M  V30 33 1 33 34
M  V30 34 2 34 35
M  V30 35 1 35 36
M  V30 36 1 36 37
M  V30 37 1 37 38
M  V30 38 1 37 39
M  V30 39 1 35 40
M  V30 40 2 40 41
M  V30 41 1 41 42
M  V30 42 2 42 43
M  V30 43 1 43 44
M  V30 44 1 44 45
M  V30 45 1 45 46
M  V30 46 1 45 47
M  V30 47 1 33 48
M  V30 48 2 48 49
M  V30 49 1 49 50
M  V30 50 2 50 51
M  V30 51 1 50 52
M  V30 52 1 52 53
M  V30 53 1 53 54
M  V30 54 1 54 55
M  V30 55 1 54 56
M  V30 56 1 54 57
M  V30 57 1 57 58 CFG=1
M  V30 58 1 57 59
M  V30 59 1 57 11
M  V30 60 1 59 19
M  V30 61 1 49 30
M  V30 62 1 43 34
M  V30 63 1 1 60
M  V30 64 1 1 61
M  V30 65 1 1 62
M  V30 66 1 2 63
M  V30 67 1 2 64
M  V30 68 1 3 65
M  V30 69 1 3 66
M  V30 70 1 4 67
M  V30 71 1 4 68
M  V30 72 1 5 69
M  V30 73 1 5 70
M  V30 74 1 6 71
M  V30 75 1 6 72
M  V30 76 1 7 73
M  V30 77 1 7 74
M  V30 78 1 11 75 CFG=3
M  V30 79 1 13 76
M  V30 80 1 17 77
M  V30 81 1 17 78
M  V30 82 1 17 79
M  V30 83 1 18 80
M  V30 84 1 18 81
M  V30 85 1 19 82 CFG=1
M  V30 86 1 20 83
M  V30 87 1 20 84
M  V30 88 1 21 85 CFG=3
M  V30 89 1 22 86
M  V30 90 1 22 87
M  V30 91 1 23 88
M  V30 92 1 27 89
M  V30 93 1 27 90
M  V30 94 1 28 91
M  V30 95 1 28 92
M  V30 96 1 31 93
M  V30 97 1 32 94
M  V30 98 1 37 95
M  V30 99 1 38 96
M  V30 100 1 38 97
M  V30 101 1 38 98
M  V30 102 1 39 99
M  V30 103 1 39 100
M  V30 104 1 39 101
M  V30 105 1 40 102
M  V30 106 1 41 103
M  V30 107 1 42 104
M  V30 108 1 45 105
M  V30 109 1 46 106
M  V30 110 1 46 107
M  V30 111 1 46 108
M  V30 112 1 47 109
M  V30 113 1 47 110
M  V30 114 1 47 111
M  V30 115 1 48 112
M  V30 116 1 53 113
M  V30 117 1 53 114
M  V30 118 1 55 115
M  V30 119 1 55 116
M  V30 120 1 55 117
M  V30 121 1 56 118
M  V30 122 1 56 119
M  V30 123 1 56 120
M  V30 124 1 58 121
M  V30 END BOND
M  V30 END CTAB
M  END
>  <Dataset>  (398) 
ChEMBL_Kinases

>  <Ligand_Instance>  (398) 
nan

>  <PDB_ID>  (398) 
nan

>  <Standardized_SMILES>  (398) 
CCCCCCCC(=O)O[C@H]1/C(=C/C(=O)OC)C[C@H]2C[C@H](CO)OC(=O)CCOc3ccc(-c4c(OC(C)C)cccc4OC(C)C)cc3C(=O)OCC(C)(C)[C@]1(O)O2

>  <Name>  (398) 
nan

>  <Pocket>  (398) 
nan

>  <ATP_Site>  (398) 
nan

>  <Peripheral>  (398) 
nan

>  <Num_H_Atoms_ProtBoundConf>  (398) 
nan

>  <Num_Resolved_Atoms>  (398) 
nan

>  <Num_Not_Resolved_Atoms>  (398) 
nan

$$$$
CHEMBL4533188
     RDKit          3D

  0  0  0  0  0  0  0  0  0  0999 V3000
M  V30 BEGIN CTAB
M  V30 COUNTS 50 54 0 0 0
M  V30 BEGIN ATOM
M  V30 1 C 0.685335 -1.839940 -3.384197 0
M  V30 2 O 0.782567 -3.017187 -2.591823 0
M  V30 3 C 1.286845 -2.871770 -1.299822 0
M  V30 4 C 1.696810 -1.661543 -0.741633 0
M  V30 5 C 2.183758 -1.626780 0.553574 0
M  V30 6 C 2.589030 -0.310736 1.051462 0
M  V30 7 N 3.688162 0.095217 1.739964 0
M  V30 8 C 3.619448 1.410284 1.977383 0
M  V30 9 C 4.522866 2.217087 2.642287 0
M  V30 10 C 4.221970 3.560374 2.758110 0
M  V30 11 C 3.065637 4.068098 2.229361 0
M  V30 12 C 2.188631 3.208695 1.567958 0
M  V30 13 N 2.478407 1.882584 1.449622 0
M  V30 14 C 1.830597 0.839681 0.875685 0
M  V30 15 N 0.560270 1.025692 0.217065 0
M  V30 16 C -0.487807 0.355822 0.568525 0
M  V30 17 C -1.745622 0.586888 -0.134560 0
M  V30 18 C -1.865542 1.495987 -1.165688 0
M  V30 19 N -3.178367 1.387357 -1.519281 0
M  V30 20 N -3.805112 0.484568 -0.763267 0
M  V30 21 C -2.940992 -0.050282 0.128478 0
M  V30 22 C -3.244921 -1.069065 1.126559 0
M  V30 23 C -2.481262 -2.179297 1.411244 0
M  V30 24 C -2.823248 -3.100969 2.363417 0
M  V30 25 C -3.985200 -2.952489 3.102697 0
M  V30 26 C -4.791646 -1.855683 2.859610 0
M  V30 27 C -4.408083 -0.935446 1.878036 0
M  V30 28 C 2.274986 -2.774613 1.316491 0
M  V30 29 C 1.871893 -4.001896 0.784495 0
M  V30 30 C 1.382248 -4.022903 -0.524174 0
M  V30 31 O 0.976655 -5.254612 -1.060913 0
M  V30 32 H 0.340951 -2.111384 -4.399783 0
M  V30 33 H 1.731069 -1.431794 -3.466706 0
M  V30 34 H -0.008737 -1.094353 -2.958159 0
M  V30 35 H 1.601405 -0.794127 -1.389410 0
M  V30 36 H 5.449720 1.826732 3.069578 0
M  V30 37 H 4.874878 4.265125 3.264095 0
M  V30 38 H 2.766125 5.116631 2.284276 0
M  V30 39 H 1.257122 3.584914 1.135148 0
M  V30 40 H -0.325112 -0.325231 1.367207 0
M  V30 41 H -1.130590 2.146802 -1.608979 0
M  V30 42 H -3.679753 1.913800 -2.271575 0
M  V30 43 H -1.578238 -2.303816 0.843607 0
M  V30 44 H -2.145482 -3.940777 2.505326 0
M  V30 45 H -4.249664 -3.684380 3.853598 0
M  V30 46 H -5.707782 -1.704547 3.416571 0
M  V30 47 H -5.085404 -0.087323 1.729475 0
M  V30 48 H 2.662705 -2.711750 2.331905 0
M  V30 49 H 1.934414 -4.922357 1.367668 0
M  V30 50 H 0.045582 -5.476722 -1.321242 0
M  V30 END ATOM
M  V30 BEGIN BOND
M  V30 1 1 1 2
M  V30 2 1 2 3
M  V30 3 2 3 4
M  V30 4 1 4 5
M  V30 5 1 5 6
M  V30 6 1 6 7
M  V30 7 2 7 8
M  V30 8 1 8 9
M  V30 9 2 9 10
M  V30 10 1 10 11
M  V30 11 2 11 12
M  V30 12 1 12 13
M  V30 13 1 13 14
M  V30 14 1 14 15
M  V30 15 2 15 16
M  V30 16 1 16 17
M  V30 17 2 17 18
M  V30 18 1 18 19
M  V30 19 1 19 20
M  V30 20 2 20 21
M  V30 21 1 21 22
M  V30 22 2 22 23
M  V30 23 1 23 24
M  V30 24 2 24 25
M  V30 25 1 25 26
M  V30 26 2 26 27
M  V30 27 2 5 28
M  V30 28 1 28 29
M  V30 29 2 29 30
M  V30 30 1 30 31
M  V30 31 1 30 3
M  V30 32 2 14 6
M  V30 33 1 21 17
M  V30 34 1 27 22
M  V30 35 1 13 8
M  V30 36 1 1 32
M  V30 37 1 1 33
M  V30 38 1 1 34
M  V30 39 1 4 35
M  V30 40 1 9 36
M  V30 41 1 10 37
M  V30 42 1 11 38
M  V30 43 1 12 39
M  V30 44 1 16 40
M  V30 45 1 18 41
M  V30 46 1 19 42
M  V30 47 1 23 43
M  V30 48 1 24 44
M  V30 49 1 25 45
M  V30 50 1 26 46
M  V30 51 1 27 47
M  V30 52 1 28 48
M  V30 53 1 29 49
M  V30 54 1 31 50
M  V30 END BOND
M  V30 END CTAB
M  END
>  <Dataset>  (399) 
ChEMBL_Kinases

>  <Ligand_Instance>  (399) 
nan

>  <PDB_ID>  (399) 
nan

>  <Standardized_SMILES>  (399) 
COc1cc(-c2nc3ccccn3c2/N=C/c2c[nH]nc2-c2ccccc2)ccc1O

>  <Name>  (399) 
nan

>  <Pocket>  (399) 
nan

>  <ATP_Site>  (399) 
nan

>  <Peripheral>  (399) 
nan

>  <Num_H_Atoms_ProtBoundConf>  (399) 
nan

>  <Num_Resolved_Atoms>  (399) 
nan

>  <Num_Not_Resolved_Atoms>  (399) 
nan

$$$$
CHEMBL4533038
     RDKit          3D

  0  0  0  0  0  0  0  0  0  0999 V3000
M  V30 BEGIN CTAB
M  V30 COUNTS 47 51 0 0 0
M  V30 BEGIN ATOM
M  V30 1 C -0.364468 -3.284077 5.410135 0
M  V30 2 C 0.388778 -2.492994 4.423960 0
M  V30 3 C 0.529106 -2.904510 3.111229 0
M  V30 4 C 1.240234 -2.143457 2.206566 0
M  V30 5 C 1.792760 -0.972858 2.672858 0
M  V30 6 N 2.538098 -0.155659 1.753122 0
M  V30 7 C 2.820411 -0.348369 0.377775 0
M  V30 8 N 3.851817 -1.189314 0.251023 0
M  V30 9 C 4.364909 -1.567928 -0.924750 0
M  V30 10 N 3.756877 -1.031276 -1.990352 0
M  V30 11 C 2.709333 -0.176568 -1.867112 0
M  V30 12 S 1.764340 0.651633 -3.132307 0
M  V30 13 C 0.708613 1.477914 -1.980072 0
M  V30 14 C 1.097787 1.109544 -0.733487 0
M  V30 15 C 2.152060 0.237656 -0.676809 0
M  V30 16 C 0.388400 1.664630 0.449668 0
M  V30 17 C -0.972487 2.194621 0.174520 0
M  V30 18 N -1.360409 1.954492 -1.136645 0
M  V30 19 S -2.790823 1.260613 -1.554933 0
M  V30 20 O -2.973227 1.182598 -3.042619 0
M  V30 21 O -3.937644 2.042927 -0.965936 0
M  V30 22 C -2.940828 -0.442586 -0.886806 0
M  V30 23 C -2.206920 -1.280000 -0.158540 0
M  V30 24 C -2.732889 -2.476485 0.099714 0
M  V30 25 C -3.956847 -2.741512 -0.393417 0
M  V30 26 S -4.430079 -1.286891 -1.260068 0
M  V30 27 C -0.458902 2.427018 -2.135508 0
M  V30 28 C 1.701088 -0.491343 3.960160 0
M  V30 29 Br 2.500791 1.145474 4.520864 0
M  V30 30 C 0.971970 -1.306549 4.817488 0
M  V30 31 H -0.995052 -4.065297 4.955543 0
M  V30 32 H -1.069598 -2.661160 6.020435 0
M  V30 33 H 0.324830 -3.729751 6.162480 0
M  V30 34 H 0.065576 -3.844245 2.805799 0
M  V30 35 H 1.369102 -2.435070 1.173687 0
M  V30 36 H 2.993311 0.745197 2.013508 0
M  V30 37 H 5.152657 -2.201760 -1.269036 0
M  V30 38 H 1.037874 2.404365 0.989020 0
M  V30 39 H 0.205267 0.775056 1.131697 0
M  V30 40 H -1.024181 3.305696 0.387959 0
M  V30 41 H -1.734621 1.681598 0.849968 0
M  V30 42 H -1.275532 -0.780674 0.086908 0
M  V30 43 H -2.071080 -3.125789 0.710044 0
M  V30 44 H -4.364168 -3.904481 -0.091552 0
M  V30 45 H -0.881261 2.361642 -3.136072 0
M  V30 46 H -0.152112 3.465811 -1.905609 0
M  V30 47 H 0.857228 -0.992152 5.847097 0
M  V30 END ATOM
M  V30 BEGIN BOND
M  V30 1 1 1 2
M  V30 2 2 2 3
M  V30 3 1 3 4
M  V30 4 2 4 5
M  V30 5 1 5 6
M  V30 6 1 6 7
M  V30 7 2 7 8
M  V30 8 1 8 9
M  V30 9 2 9 10
M  V30 10 1 10 11
M  V30 11 1 11 12
M  V30 12 1 12 13
M  V30 13 2 13 14
M  V30 14 1 14 15
M  V30 15 1 14 16
M  V30 16 1 16 17
M  V30 17 1 17 18
M  V30 18 1 18 19
M  V30 19 2 19 20
M  V30 20 2 19 21
M  V30 21 1 19 22
M  V30 22 2 22 23
M  V30 23 1 23 24
M  V30 24 2 24 25
M  V30 25 1 25 26
M  V30 26 1 18 27
M  V30 27 1 5 28
M  V30 28 1 28 29
M  V30 29 2 28 30
M  V30 30 1 30 2
M  V30 31 1 15 7
M  V30 32 1 26 22
M  V30 33 2 15 11
M  V30 34 1 27 13
M  V30 35 1 1 31
M  V30 36 1 1 32
M  V30 37 1 1 33
M  V30 38 1 3 34
M  V30 39 1 4 35
M  V30 40 1 6 36
M  V30 41 1 9 37
M  V30 42 1 16 38
M  V30 43 1 16 39
M  V30 44 1 17 40
M  V30 45 1 17 41
M  V30 46 1 23 42
M  V30 47 1 24 43
M  V30 48 1 25 44
M  V30 49 1 27 45
M  V30 50 1 27 46
M  V30 51 1 30 47
M  V30 END BOND
M  V30 END CTAB
M  END
>  <Dataset>  (400) 
ChEMBL_Kinases

>  <Ligand_Instance>  (400) 
nan

>  <PDB_ID>  (400) 
nan

>  <Standardized_SMILES>  (400) 
Cc1ccc(Nc2ncnc3sc4c(c23)CCN(S(=O)(=O)c2cccs2)C4)c(Br)c1

>  <Name>  (400) 
nan

>  <Pocket>  (400) 
nan

>  <ATP_Site>  (400) 
nan

>  <Peripheral>  (400) 
nan

>  <Num_H_Atoms_ProtBoundConf>  (400) 
nan

>  <Num_Resolved_Atoms>  (400) 
nan

>  <Num_Not_Resolved_Atoms>  (400) 
nan

$$$$
CHEMBL4643185
     RDKit          3D

  0  0  0  0  0  0  0  0  0  0999 V3000
M  V30 BEGIN CTAB
M  V30 COUNTS 61 65 0 0 0
M  V30 BEGIN ATOM
M  V30 1 C 3.381595 -3.013987 5.057773 0
M  V30 2 N 3.151689 -2.539641 3.735478 0
M  V30 3 C 3.556673 -1.191490 3.476130 0
M  V30 4 C 4.174317 -0.970048 2.137908 0
M  V30 5 C 3.181847 -0.776655 1.015764 0
M  V30 6 N 1.959862 -1.593169 1.201919 0
M  V30 7 C 0.814345 -0.860647 0.901947 0
M  V30 8 C 0.740142 0.383266 1.509627 0
M  V30 9 C -0.365994 1.187257 1.312198 0
M  V30 10 C -1.434522 0.818366 0.524256 0
M  V30 11 C -2.593075 1.634732 0.304804 0
M  V30 12 C -3.561516 2.328366 0.109295 0
M  V30 13 C -4.736048 3.196521 -0.135283 0
M  V30 14 C -4.482684 3.929897 -1.417785 0
M  V30 15 O -4.895058 4.101720 0.902774 0
M  V30 16 C -5.940305 2.291745 -0.233889 0
M  V30 17 N -6.020054 1.020375 -0.603885 0
M  V30 18 C -7.249484 0.512683 -0.581103 0
M  V30 19 C -8.400643 1.282044 -0.186432 0
M  V30 20 S -7.484033 2.907832 0.170779 0
M  V30 21 C -1.319308 -0.428844 -0.062509 0
M  V30 22 C -0.222469 -1.289439 0.099155 0
M  V30 23 N -0.199020 -2.524012 -0.527827 0
M  V30 24 C 0.531533 -3.250865 -1.502447 0
M  V30 25 N 0.193798 -4.548956 -1.721259 0
M  V30 26 C 0.837554 -5.288495 -2.628515 0
M  V30 27 N 1.835581 -4.792211 -3.358316 0
M  V30 28 C 2.230166 -3.518995 -3.203775 0
M  V30 29 N 3.181064 -2.773766 -3.794066 0
M  V30 30 C 3.135668 -1.547624 -3.252179 0
M  V30 31 C 2.136369 -1.540018 -2.309426 0
M  V30 32 C 1.559553 -2.767515 -2.266364 0
M  V30 33 C 1.979135 -2.968569 1.659913 0
M  V30 34 C 1.904737 -2.917415 3.172191 0
M  V30 35 H 4.452073 -2.999687 5.298427 0
M  V30 36 H 3.024586 -4.076356 5.079664 0
M  V30 37 H 2.754942 -2.455209 5.771366 0
M  V30 38 H 2.713886 -0.521739 3.624531 0
M  V30 39 H 4.311543 -0.915731 4.255912 0
M  V30 40 H 4.943468 -1.732267 1.878408 0
M  V30 41 H 4.758292 -0.018689 2.215163 0
M  V30 42 H 3.699777 -1.110253 0.079508 0
M  V30 43 H 2.954601 0.305242 0.988948 0
M  V30 44 H 1.436436 0.888275 2.166233 0
M  V30 45 H -0.515400 2.188003 1.750510 0
M  V30 46 H -3.818680 4.788044 -1.159293 0
M  V30 47 H -5.436526 4.379535 -1.803033 0
M  V30 48 H -3.980446 3.286055 -2.155146 0
M  V30 49 H -5.203989 3.642708 1.723012 0
M  V30 50 H -7.145401 -0.538256 -0.910933 0
M  V30 51 H -9.336927 0.613124 -0.253787 0
M  V30 52 H -2.115198 -0.796418 -0.698128 0
M  V30 53 H -1.017693 -3.022414 -0.073552 0
M  V30 54 H 0.457569 -6.317707 -2.696641 0
M  V30 55 H 3.836626 -3.095559 -4.541059 0
M  V30 56 H 3.800254 -0.757577 -3.555172 0
M  V30 57 H 1.879127 -0.691787 -1.727692 0
M  V30 58 H 2.958577 -3.438785 1.429482 0
M  V30 59 H 1.270894 -3.645246 1.207630 0
M  V30 60 H 1.613158 -3.904232 3.591862 0
M  V30 61 H 1.095220 -2.206132 3.442356 0
M  V30 END ATOM
M  V30 BEGIN BOND
M  V30 1 1 1 2
M  V30 2 1 2 3
M  V30 3 1 3 4
M  V30 4 1 4 5
M  V30 5 1 5 6
M  V30 6 1 6 7
M  V30 7 2 7 8
M  V30 8 1 8 9
M  V30 9 2 9 10
M  V30 10 1 10 11
M  V30 11 3 11 12
M  V30 12 1 12 13
M  V30 13 1 13 14
M  V30 14 1 13 15
M  V30 15 1 13 16
M  V30 16 2 16 17
M  V30 17 1 17 18
M  V30 18 2 18 19
M  V30 19 1 19 20
M  V30 20 1 10 21
M  V30 21 2 21 22
M  V30 22 1 22 23
M  V30 23 1 23 24
M  V30 24 2 24 25
M  V30 25 1 25 26
M  V30 26 2 26 27
M  V30 27 1 27 28
M  V30 28 1 28 29
M  V30 29 1 29 30
M  V30 30 2 30 31
M  V30 31 1 31 32
M  V30 32 1 6 33
M  V30 33 1 33 34
M  V30 34 1 34 2
M  V30 35 1 22 7
M  V30 36 1 32 24
M  V30 37 1 20 16
M  V30 38 2 32 28
M  V30 39 1 1 35
M  V30 40 1 1 36
M  V30 41 1 1 37
M  V30 42 1 3 38
M  V30 43 1 3 39
M  V30 44 1 4 40
M  V30 45 1 4 41
M  V30 46 1 5 42
M  V30 47 1 5 43
M  V30 48 1 8 44
M  V30 49 1 9 45
M  V30 50 1 14 46
M  V30 51 1 14 47
M  V30 52 1 14 48
M  V30 53 1 15 49
M  V30 54 1 18 50
M  V30 55 1 19 51
M  V30 56 1 21 52
M  V30 57 1 23 53
M  V30 58 1 26 54
M  V30 59 1 29 55
M  V30 60 1 30 56
M  V30 61 1 31 57
M  V30 62 1 33 58
M  V30 63 1 33 59
M  V30 64 1 34 60
M  V30 65 1 34 61
M  V30 END BOND
M  V30 END CTAB
M  END
>  <Dataset>  (401) 
ChEMBL_Kinases

>  <Ligand_Instance>  (401) 
nan

>  <PDB_ID>  (401) 
nan

>  <Standardized_SMILES>  (401) 
CN1CCCN(c2ccc(C#CC(C)(O)c3nccs3)cc2Nc2ncnc3[nH]ccc23)CC1

>  <Name>  (401) 
nan

>  <Pocket>  (401) 
nan

>  <ATP_Site>  (401) 
nan

>  <Peripheral>  (401) 
nan

>  <Num_H_Atoms_ProtBoundConf>  (401) 
nan

>  <Num_Resolved_Atoms>  (401) 
nan

>  <Num_Not_Resolved_Atoms>  (401) 
nan

$$$$
CHEMBL4529215
     RDKit          3D

  0  0  0  0  0  0  0  0  0  0999 V3000
M  V30 BEGIN CTAB
M  V30 COUNTS 78 83 0 0 0
M  V30 BEGIN ATOM
M  V30 1 N 4.062453 -1.872108 -4.573173 0
M  V30 2 C 2.913926 -1.786524 -4.349787 0
M  V30 3 C 1.485400 -1.687451 -4.090870 0
M  V30 4 C 0.657762 -1.554948 -5.175600 0
M  V30 5 N -0.666128 -1.460700 -4.984581 0
M  V30 6 C -1.139904 -1.499035 -3.736049 0
M  V30 7 N -2.539645 -1.396848 -3.532877 0
M  V30 8 C -3.512024 -2.455555 -3.483426 0
M  V30 9 C -3.545220 -3.221837 -4.756462 0
M  V30 10 C -4.598542 -2.991235 -5.644731 0
M  V30 11 C -4.735893 -3.638072 -6.854205 0
M  V30 12 C -3.777507 -4.564333 -7.203457 0
M  V30 13 C -2.740391 -4.801035 -6.344377 0
M  V30 14 C -2.604759 -4.151766 -5.133029 0
M  V30 15 O -1.558918 -4.395546 -4.274819 0
M  V30 16 C -0.519485 -5.302220 -4.494265 0
M  V30 17 F 0.329326 -5.259197 -3.407801 0
M  V30 18 F -1.013786 -6.601161 -4.569127 0
M  V30 19 F 0.192066 -5.047309 -5.635299 0
M  V30 20 N -0.332513 -1.627323 -2.695237 0
M  V30 21 C 0.998731 -1.728337 -2.784172 0
M  V30 22 N 1.903835 -1.889978 -1.715818 0
M  V30 23 C 1.790219 -1.963296 -0.289572 0
M  V30 24 C 1.566716 -0.642146 0.354237 0
M  V30 25 C 2.731886 0.281117 0.038643 0
M  V30 26 C 2.473827 1.593272 0.705098 0
M  V30 27 C 2.425989 1.399215 2.224971 0
M  V30 28 C 1.281249 0.500623 2.570531 0
M  V30 29 C 1.559614 -0.830979 1.857830 0
M  V30 30 C -0.058519 0.960626 2.134738 0
M  V30 31 N -0.657943 2.047645 2.798981 0
M  V30 32 C -0.954382 1.987947 4.174609 0 CFG=1
M  V30 33 C 0.166069 2.027942 5.143847 0
M  V30 34 C -0.052089 2.952050 6.332376 0
M  V30 35 C -0.377072 4.360000 5.889300 0 CFG=1
M  V30 36 O 0.786380 5.088004 5.665501 0
M  V30 37 C -1.316903 4.353357 4.700198 0
M  V30 38 C -1.999215 3.006694 4.601384 0
M  V30 39 C 0.046555 1.297364 0.651222 0
M  V30 40 C 1.168638 2.237669 0.335122 0
M  V30 41 C 0.333058 0.017612 -0.150357 0
M  V30 42 H 1.083312 -1.528985 -6.165201 0
M  V30 43 H -2.751776 -0.383257 -3.421260 0
M  V30 44 H -4.508194 -2.040302 -3.284445 0
M  V30 45 H -3.240754 -3.162769 -2.656948 0
M  V30 46 H -5.343240 -2.262864 -5.359553 0
M  V30 47 H -5.593744 -3.386444 -7.474079 0
M  V30 48 H -3.923994 -5.048387 -8.161697 0
M  V30 49 H -1.992645 -5.522030 -6.614092 0
M  V30 50 H 2.922707 -1.979316 -1.987606 0
M  V30 51 H 0.889472 -2.621474 -0.083002 0
M  V30 52 H 2.664184 -2.480889 0.192959 0
M  V30 53 H 2.852273 0.449375 -1.037016 0
M  V30 54 H 3.620934 -0.160360 0.524571 0
M  V30 55 H 3.328894 2.292298 0.524653 0
M  V30 56 H 2.394621 2.404628 2.640247 0
M  V30 57 H 3.347438 0.878173 2.591480 0
M  V30 58 H 1.347484 0.222583 3.648893 0
M  V30 59 H 2.580339 -1.136443 2.144706 0
M  V30 60 H 0.798899 -1.555072 2.197763 0
M  V30 61 H -0.723010 0.034572 2.144305 0
M  V30 62 H -1.494364 2.348238 2.257082 0
M  V30 63 H -1.501780 0.992889 4.329001 0
M  V30 64 H 0.311475 1.026056 5.589425 0
M  V30 65 H 1.146594 2.305734 4.672938 0
M  V30 66 H -0.827555 2.582067 7.028655 0
M  V30 67 H 0.898979 3.001141 6.898207 0
M  V30 68 H -0.917262 4.848111 6.724292 0
M  V30 69 H 1.543658 4.633682 6.111251 0
M  V30 70 H -2.106774 5.126694 4.775187 0
M  V30 71 H -0.724306 4.570516 3.797809 0
M  V30 72 H -2.866960 3.054291 3.945854 0
M  V30 73 H -2.314307 2.719858 5.629792 0
M  V30 74 H -0.897473 1.717202 0.283195 0
M  V30 75 H 1.052906 3.111795 1.036619 0
M  V30 76 H 1.096435 2.522958 -0.713256 0
M  V30 77 H 0.595721 0.414189 -1.179653 0
M  V30 78 H -0.549456 -0.618111 -0.128839 0
M  V30 END ATOM
M  V30 BEGIN BOND
M  V30 1 3 1 2
M  V30 2 1 2 3
M  V30 3 2 3 4
M  V30 4 1 4 5
M  V30 5 2 5 6
M  V30 6 1 6 7
M  V30 7 1 7 8
M  V30 8 1 8 9
M  V30 9 2 9 10
M  V30 10 1 10 11
M  V30 11 2 11 12
M  V30 12 1 12 13
M  V30 13 2 13 14
M  V30 14 1 14 15
M  V30 15 1 15 16
M  V30 16 1 16 17
M  V30 17 1 16 18
M  V30 18 1 16 19
M  V30 19 1 6 20
M  V30 20 2 20 21
M  V30 21 1 21 22
M  V30 22 1 22 23
M  V30 23 1 23 24
M  V30 24 1 24 25
M  V30 25 1 25 26
M  V30 26 1 26 27
M  V30 27 1 27 28
M  V30 28 1 28 29
M  V30 29 1 28 30
M  V30 30 1 30 31
M  V30 31 1 31 32
M  V30 32 1 32 33
M  V30 33 1 33 34
M  V30 34 1 34 35
M  V30 35 1 35 36
M  V30 36 1 35 37
M  V30 37 1 37 38
M  V30 38 1 30 39
M  V30 39 1 39 40
M  V30 40 1 39 41
M  V30 41 1 21 3
M  V30 42 1 29 24
M  V30 43 1 38 32
M  V30 44 1 14 9
M  V30 45 1 41 24
M  V30 46 1 40 26
M  V30 47 1 4 42
M  V30 48 1 7 43
M  V30 49 1 8 44
M  V30 50 1 8 45
M  V30 51 1 10 46
M  V30 52 1 11 47
M  V30 53 1 12 48
M  V30 54 1 13 49
M  V30 55 1 22 50
M  V30 56 1 23 51
M  V30 57 1 23 52
M  V30 58 1 25 53
M  V30 59 1 25 54
M  V30 60 1 26 55
M  V30 61 1 27 56
M  V30 62 1 27 57
M  V30 63 1 28 58
M  V30 64 1 29 59
M  V30 65 1 29 60
M  V30 66 1 30 61
M  V30 67 1 31 62
M  V30 68 1 32 63 CFG=3
M  V30 69 1 33 64
M  V30 70 1 33 65
M  V30 71 1 34 66
M  V30 72 1 34 67
M  V30 73 1 35 68 CFG=1
M  V30 74 1 36 69
M  V30 75 1 37 70
M  V30 76 1 37 71
M  V30 77 1 38 72
M  V30 78 1 38 73
M  V30 79 1 39 74
M  V30 80 1 40 75
M  V30 81 1 40 76
M  V30 82 1 41 77
M  V30 83 1 41 78
M  V30 END BOND
M  V30 END CTAB
M  END
>  <Dataset>  (402) 
ChEMBL_Kinases

>  <Ligand_Instance>  (402) 
nan

>  <PDB_ID>  (402) 
nan

>  <Standardized_SMILES>  (402) 
N#Cc1cnc(NCc2ccccc2OC(F)(F)F)nc1NCC12CC3CC(C1)C(N[C@H]1CC[C@@H](O)CC1)C(C3)C2

>  <Name>  (402) 
nan

>  <Pocket>  (402) 
nan

>  <ATP_Site>  (402) 
nan

>  <Peripheral>  (402) 
nan

>  <Num_H_Atoms_ProtBoundConf>  (402) 
nan

>  <Num_Resolved_Atoms>  (402) 
nan

>  <Num_Not_Resolved_Atoms>  (402) 
nan

$$$$
CHEMBL4529213
     RDKit          3D

  0  0  0  0  0  0  0  0  0  0999 V3000
M  V30 BEGIN CTAB
M  V30 COUNTS 42 45 0 0 0
M  V30 BEGIN ATOM
M  V30 1 C 0.697130 -6.530997 -0.232013 0
M  V30 2 C 1.729377 -5.993575 0.692106 0
M  V30 3 N 2.723841 -6.681207 1.282292 0
M  V30 4 N 3.437855 -5.836155 2.039342 0
M  V30 5 C 2.928176 -4.571823 1.963895 0
M  V30 6 C 1.871306 -4.692663 1.124649 0
M  V30 7 C 1.012465 -3.586424 0.742489 0
M  V30 8 C 1.032105 -2.299253 1.077942 0
M  V30 9 C 0.093181 -1.444685 0.571794 0
M  V30 10 N -0.108240 -0.124730 0.746316 0
M  V30 11 C -1.108603 0.537646 0.145441 0
M  V30 12 C -1.194811 2.003678 0.444337 0 CFG=2
M  V30 13 C -0.286570 2.822313 -0.415337 0
M  V30 14 C 1.165653 2.713220 -0.103729 0
M  V30 15 C 1.530826 2.865781 1.339005 0
M  V30 16 C 0.720196 3.934996 2.037348 0
M  V30 17 C -0.721364 3.575020 2.195579 0
M  V30 18 N -1.021446 2.227367 1.862087 0
M  V30 19 N -2.011890 -0.015401 -0.683834 0
M  V30 20 C -1.897000 -1.332243 -0.923837 0
M  V30 21 O -2.645466 -2.009738 -1.665588 0
M  V30 22 C -0.870327 -2.006608 -0.305785 0
M  V30 23 S -0.373213 -3.779762 -0.366575 0
M  V30 24 H -0.295595 -6.267562 0.191602 0
M  V30 25 H 0.820946 -7.603341 -0.378715 0
M  V30 26 H 0.841388 -6.013192 -1.213525 0
M  V30 27 H 4.283116 -6.098706 2.621119 0
M  V30 28 H 3.319683 -3.705768 2.479250 0
M  V30 29 H 1.801304 -1.951785 1.753376 0
M  V30 30 H -2.235308 2.324704 0.227599 0
M  V30 31 H -0.416109 2.437731 -1.458779 0
M  V30 32 H -0.647648 3.866013 -0.454202 0
M  V30 33 H 1.664532 3.555703 -0.667201 0
M  V30 34 H 1.607179 1.789729 -0.492265 0
M  V30 35 H 2.597284 3.222745 1.368680 0
M  V30 36 H 1.509480 1.926221 1.905265 0
M  V30 37 H 1.147438 4.050642 3.056200 0
M  V30 38 H 0.875965 4.909916 1.523937 0
M  V30 39 H -1.092157 3.754069 3.244314 0
M  V30 40 H -1.386844 4.225363 1.572768 0
M  V30 41 H -0.447084 1.510671 2.332489 0
M  V30 42 H -2.785858 0.499543 -1.148124 0
M  V30 END ATOM
M  V30 BEGIN BOND
M  V30 1 1 1 2
M  V30 2 2 2 3
M  V30 3 1 3 4
M  V30 4 1 4 5
M  V30 5 2 5 6
M  V30 6 1 6 7
M  V30 7 2 7 8
M  V30 8 1 8 9
M  V30 9 1 9 10
M  V30 10 2 10 11
M  V30 11 1 11 12
M  V30 12 1 12 13
M  V30 13 1 13 14
M  V30 14 1 14 15
M  V30 15 1 15 16
M  V30 16 1 16 17
M  V30 17 1 17 18
M  V30 18 1 11 19
M  V30 19 1 19 20
M  V30 20 2 20 21
M  V30 21 1 20 22
M  V30 22 1 22 23
M  V30 23 1 6 2
M  V30 24 1 23 7
M  V30 25 2 22 9
M  V30 26 1 18 12
M  V30 27 1 1 24
M  V30 28 1 1 25
M  V30 29 1 1 26
M  V30 30 1 4 27
M  V30 31 1 5 28
M  V30 32 1 8 29
M  V30 33 1 12 30 CFG=3
M  V30 34 1 13 31
M  V30 35 1 13 32
M  V30 36 1 14 33
M  V30 37 1 14 34
M  V30 38 1 15 35
M  V30 39 1 15 36
M  V30 40 1 16 37
M  V30 41 1 16 38
M  V30 42 1 17 39
M  V30 43 1 17 40
M  V30 44 1 18 41
M  V30 45 1 19 42
M  V30 END BOND
M  V30 END CTAB
M  END
>  <Dataset>  (403) 
ChEMBL_Kinases

>  <Ligand_Instance>  (403) 
nan

>  <PDB_ID>  (403) 
nan

>  <Standardized_SMILES>  (403) 
Cc1n[nH]cc1-c1cc2nc([C@@H]3CCCCCN3)[nH]c(=O)c2s1

>  <Name>  (403) 
nan

>  <Pocket>  (403) 
nan

>  <ATP_Site>  (403) 
nan

>  <Peripheral>  (403) 
nan

>  <Num_H_Atoms_ProtBoundConf>  (403) 
nan

>  <Num_Resolved_Atoms>  (403) 
nan

>  <Num_Not_Resolved_Atoms>  (403) 
nan

$$$$
CHEMBL4529052
     RDKit          3D

  0  0  0  0  0  0  0  0  0  0999 V3000
M  V30 BEGIN CTAB
M  V30 COUNTS 45 48 0 0 0
M  V30 BEGIN ATOM
M  V30 1 C -2.217579 -2.276832 3.035229 0
M  V30 2 O -1.851856 -2.927624 1.864832 0
M  V30 3 C -1.364206 -2.265542 0.704419 0
M  V30 4 C -1.496619 -0.873573 0.455106 0
M  V30 5 C -0.742890 -0.557275 -0.693535 0
M  V30 6 C -0.003668 -1.598451 -1.368302 0
M  V30 7 C 0.984053 -0.912290 -2.279440 0
M  V30 8 C 1.886241 -0.283965 -3.108662 0
M  V30 9 N 2.931177 0.522379 -3.077415 0
M  V30 10 C 3.436506 0.973832 -1.935395 0
M  V30 11 N 4.377533 1.838044 -1.424271 0
M  V30 12 N 4.302416 1.970502 -0.083076 0
M  V30 13 C 3.333901 1.215781 0.367682 0
M  V30 14 N 2.303611 0.991144 1.413281 0
M  V30 15 C 1.924061 2.287668 1.944314 0
M  V30 16 O 2.494568 3.392677 1.697298 0
M  V30 17 C 0.683972 1.858002 2.732831 0
M  V30 18 C -0.108890 1.089594 3.600745 0
M  V30 19 C -1.483712 1.369386 3.511112 0
M  V30 20 C -2.195452 2.279964 2.740701 0
M  V30 21 N -1.449841 3.045240 1.914899 0
M  V30 22 C -0.099373 2.810457 1.939713 0
M  V30 23 C 2.796198 0.574892 -0.779795 0
M  V30 24 C 1.714990 -0.254928 -1.139218 0
M  V30 25 C 0.094154 -2.903878 -1.114797 0
M  V30 26 C -0.650978 -3.284044 -0.000215 0
M  V30 27 O -0.963811 -4.324973 0.724064 0
M  V30 28 C -1.062135 -5.550712 1.243414 0
M  V30 29 H -1.520953 -1.336695 3.093559 0
M  V30 30 H -1.638581 -2.858785 3.922838 0
M  V30 31 H -3.174599 -2.122095 3.346213 0
M  V30 32 H -2.024779 -0.221414 1.067496 0
M  V30 33 H -0.757847 0.444107 -1.026627 0
M  V30 34 H 1.317550 -0.761910 -3.980778 0
M  V30 35 H 5.000932 2.283557 -2.143285 0
M  V30 36 H 1.988878 0.018110 1.684892 0
M  V30 37 H 0.721818 0.575924 3.981144 0
M  V30 38 H -1.904318 0.666981 4.220400 0
M  V30 39 H -3.239001 2.195296 2.940254 0
M  V30 40 H 0.104384 3.599929 1.156187 0
M  V30 41 H 1.365622 -0.643827 -0.046243 0
M  V30 42 H 0.619567 -3.618169 -1.615885 0
M  V30 43 H -0.884867 -6.359139 0.507898 0
M  V30 44 H -2.187906 -5.666777 1.524564 0
M  V30 45 H -0.529440 -5.773573 2.202001 0
M  V30 END ATOM
M  V30 BEGIN BOND
M  V30 1 1 1 2
M  V30 2 1 2 3
M  V30 3 2 3 4
M  V30 4 1 4 5
M  V30 5 2 5 6
M  V30 6 1 6 7
M  V30 7 2 7 8
M  V30 8 1 8 9
M  V30 9 2 9 10
M  V30 10 1 10 11
M  V30 11 1 11 12
M  V30 12 2 12 13
M  V30 13 1 13 14
M  V30 14 1 14 15
M  V30 15 2 15 16
M  V30 16 1 15 17
M  V30 17 2 17 18
M  V30 18 1 18 19
M  V30 19 2 19 20
M  V30 20 1 20 21
M  V30 21 2 21 22
M  V30 22 1 13 23
M  V30 23 2 23 24
M  V30 24 1 6 25
M  V30 25 2 25 26
M  V30 26 1 26 27
M  V30 27 1 27 28
M  V30 28 1 26 3
M  V30 29 1 24 7
M  V30 30 1 23 10
M  V30 31 1 22 17
M  V30 32 1 1 29
M  V30 33 1 1 30
M  V30 34 1 1 31
M  V30 35 1 4 32
M  V30 36 1 5 33
M  V30 37 1 8 34
M  V30 38 1 11 35
M  V30 39 1 14 36
M  V30 40 1 18 37
M  V30 41 1 19 38
M  V30 42 1 20 39
M  V30 43 1 22 40
M  V30 44 1 24 41
M  V30 45 1 25 42
M  V30 46 1 28 43
M  V30 47 1 28 44
M  V30 48 1 28 45
M  V30 END BOND
M  V30 END CTAB
M  END
>  <Dataset>  (404) 
ChEMBL_Kinases

>  <Ligand_Instance>  (404) 
nan

>  <PDB_ID>  (404) 
nan

>  <Standardized_SMILES>  (404) 
COc1ccc(-c2cnc3[nH]nc(NC(=O)c4cccnc4)c3c2)cc1OC

>  <Name>  (404) 
nan

>  <Pocket>  (404) 
nan

>  <ATP_Site>  (404) 
nan

>  <Peripheral>  (404) 
nan

>  <Num_H_Atoms_ProtBoundConf>  (404) 
nan

>  <Num_Resolved_Atoms>  (404) 
nan

>  <Num_Not_Resolved_Atoms>  (404) 
nan

$$$$
CHEMBL4643625
     RDKit          3D

  0  0  0  0  0  0  0  0  0  0999 V3000
M  V30 BEGIN CTAB
M  V30 COUNTS 54 57 0 0 0
M  V30 BEGIN ATOM
M  V30 1 C -1.455405 -6.915607 2.733404 0
M  V30 2 C -1.787462 -5.613297 3.515314 0
M  V30 3 O -1.428113 -4.598172 2.698619 0
M  V30 4 C -1.372441 -3.294857 2.591605 0
M  V30 5 O -1.789990 -3.964502 3.550403 0
M  V30 6 C -1.346844 -1.852922 2.558856 0
M  V30 7 C -1.835259 -1.289548 3.743086 0
M  V30 8 N -1.832967 0.047918 3.837949 0
M  V30 9 C -1.361989 0.775654 2.790236 0
M  V30 10 C -1.406659 2.133208 2.989651 0
M  V30 11 C -0.967729 3.009972 2.019926 0
M  V30 12 C -0.491189 2.419897 0.859938 0
M  V30 13 C -0.012594 3.305051 -0.193185 0
M  V30 14 C -0.018512 4.675140 -0.079968 0
M  V30 15 C 0.428497 5.547751 -1.060018 0
M  V30 16 Cl 0.391666 7.279186 -0.844330 0
M  V30 17 C 0.916413 5.015157 -2.238206 0
M  V30 18 O 1.371180 5.888183 -3.235049 0
M  V30 19 C 0.957567 3.650116 -2.433774 0
M  V30 20 Cl 1.572957 2.999521 -3.926691 0
M  V30 21 C 0.488448 2.860855 -1.395448 0
M  V30 22 N -0.488770 1.092398 0.761457 0
M  V30 23 C -0.889661 0.197010 1.641045 0
M  V30 24 C -0.857871 -1.168026 1.463719 0
M  V30 25 N -0.407624 -1.738127 0.268154 0
M  V30 26 C -0.385111 -3.084406 -0.231748 0
M  V30 27 C 1.055176 -3.577907 -0.376462 0
M  V30 28 C 1.710413 -2.758492 -1.465053 0
M  V30 29 C 3.109845 -2.336932 -1.156808 0
M  V30 30 C 0.836436 -1.613520 -1.842137 0
M  V30 31 C 0.217510 -0.864373 -0.692088 0
M  V30 32 H -0.645581 -6.712742 2.023702 0
M  V30 33 H -1.121395 -7.668778 3.462205 0
M  V30 34 H -2.366819 -7.221394 2.168511 0
M  V30 35 H -1.266603 -5.700613 4.497580 0
M  V30 36 H -2.902254 -5.655427 3.687145 0
M  V30 37 H -2.207979 -1.860712 4.571660 0
M  V30 38 H -1.794934 2.557669 3.932528 0
M  V30 39 H -1.036081 4.044712 2.250843 0
M  V30 40 H -0.375820 5.171431 0.791272 0
M  V30 41 H 0.978903 5.866046 -4.171863 0
M  V30 42 H 0.552930 1.816405 -1.616146 0
M  V30 43 H -0.993632 -3.817964 0.277797 0
M  V30 44 H -0.756707 -3.045511 -1.303855 0
M  V30 45 H 0.975991 -4.636984 -0.689500 0
M  V30 46 H 1.610480 -3.543751 0.564372 0
M  V30 47 H 1.782397 -3.402457 -2.390280 0
M  V30 48 H 3.840114 -2.605117 -1.926543 0
M  V30 49 H 3.417963 -2.840490 -0.200615 0
M  V30 50 H 3.175084 -1.234201 -0.972725 0
M  V30 51 H 0.111633 -1.904068 -2.637177 0
M  V30 52 H 1.527843 -0.868128 -2.374933 0
M  V30 53 H -0.570001 -0.231968 -1.164385 0
M  V30 54 H 1.035509 -0.255741 -0.223291 0
M  V30 END ATOM
M  V30 BEGIN BOND
M  V30 1 1 1 2
M  V30 2 1 2 3
M  V30 3 1 3 4
M  V30 4 2 4 5
M  V30 5 1 4 6
M  V30 6 2 6 7
M  V30 7 1 7 8
M  V30 8 2 8 9
M  V30 9 1 9 10
M  V30 10 2 10 11
M  V30 11 1 11 12
M  V30 12 1 12 13
M  V30 13 2 13 14
M  V30 14 1 14 15
M  V30 15 1 15 16
M  V30 16 2 15 17
M  V30 17 1 17 18
M  V30 18 1 17 19
M  V30 19 1 19 20
M  V30 20 2 19 21
M  V30 21 2 12 22
M  V30 22 1 22 23
M  V30 23 2 23 24
M  V30 24 1 24 25
M  V30 25 1 25 26
M  V30 26 1 26 27
M  V30 27 1 27 28
M  V30 28 1 28 29
M  V30 29 1 28 30
M  V30 30 1 30 31
M  V30 31 1 24 6
M  V30 32 1 31 25
M  V30 33 1 23 9
M  V30 34 1 21 13
M  V30 35 1 1 32
M  V30 36 1 1 33
M  V30 37 1 1 34
M  V30 38 1 2 35
M  V30 39 1 2 36
M  V30 40 1 7 37
M  V30 41 1 10 38
M  V30 42 1 11 39
M  V30 43 1 14 40
M  V30 44 1 18 41
M  V30 45 1 21 42
M  V30 46 1 26 43
M  V30 47 1 26 44
M  V30 48 1 27 45
M  V30 49 1 27 46
M  V30 50 1 28 47
M  V30 51 1 29 48
M  V30 52 1 29 49
M  V30 53 1 29 50
M  V30 54 1 30 51
M  V30 55 1 30 52
M  V30 56 1 31 53
M  V30 57 1 31 54
M  V30 END BOND
M  V30 END CTAB
M  END
>  <Dataset>  (405) 
ChEMBL_Kinases

>  <Ligand_Instance>  (405) 
nan

>  <PDB_ID>  (405) 
nan

>  <Standardized_SMILES>  (405) 
CCOC(=O)c1cnc2ccc(-c3cc(Cl)c(O)c(Cl)c3)nc2c1N1CCC(C)CC1

>  <Name>  (405) 
nan

>  <Pocket>  (405) 
nan

>  <ATP_Site>  (405) 
nan

>  <Peripheral>  (405) 
nan

>  <Num_H_Atoms_ProtBoundConf>  (405) 
nan

>  <Num_Resolved_Atoms>  (405) 
nan

>  <Num_Not_Resolved_Atoms>  (405) 
nan

$$$$
CHEMBL4528911
     RDKit          3D

  0  0  0  0  0  0  0  0  0  0999 V3000
M  V30 BEGIN CTAB
M  V30 COUNTS 47 51 0 0 0
M  V30 BEGIN ATOM
M  V30 1 F 5.029393 -0.357453 5.896430 0
M  V30 2 C 4.807626 -0.237982 4.581805 0
M  V30 3 C 5.433120 -0.911731 3.588796 0
M  V30 4 C 5.331498 -0.911518 2.217880 0
M  V30 5 C 4.367169 -0.013193 1.801192 0
M  V30 6 C 3.613625 0.776166 2.692166 0
M  V30 7 N 2.634221 1.708518 2.198260 0
M  V30 8 C 2.454670 1.818838 0.802988 0
M  V30 9 N 3.444614 2.522945 0.258498 0
M  V30 10 C 3.573465 2.818822 -1.025022 0
M  V30 11 N 2.597389 2.348376 -1.807590 0
M  V30 12 C 1.565666 1.623356 -1.299070 0
M  V30 13 S 0.101236 0.849443 -2.049114 0
M  V30 14 C -0.539598 0.199570 -0.539879 0
M  V30 15 C 0.355766 0.584747 0.443553 0
M  V30 16 C 1.434338 1.317536 0.032609 0
M  V30 17 C -0.057181 0.109434 1.789232 0
M  V30 18 C -1.566626 0.076485 1.845378 0
M  V30 19 N -2.172884 -0.724703 0.873112 0
M  V30 20 C -3.418044 -1.312919 1.173441 0
M  V30 21 C -3.887059 -2.150614 0.046830 0
M  V30 22 C -3.488955 -3.474742 0.127892 0
M  V30 23 C -3.843442 -4.406694 -0.855903 0
M  V30 24 C -4.606368 -3.945534 -1.907167 0
M  V30 25 C -5.018143 -2.607115 -2.002935 0
M  V30 26 C -4.655332 -1.706199 -1.020444 0
M  V30 27 C -1.783445 -0.576545 -0.464394 0
M  V30 28 C 3.843535 0.652967 4.073278 0
M  V30 29 H 6.189329 -1.610859 3.954215 0
M  V30 30 H 5.914153 -1.511720 1.568273 0
M  V30 31 H 4.143750 0.124640 0.743372 0
M  V30 32 H 2.115055 2.254975 2.918212 0
M  V30 33 H 4.348245 3.378582 -1.517221 0
M  V30 34 H 0.250240 0.824864 2.586462 0
M  V30 35 H 0.336018 -0.873243 2.064899 0
M  V30 36 H -1.819550 -0.272163 2.873031 0
M  V30 37 H -1.955481 1.113444 1.773404 0
M  V30 38 H -4.153688 -0.468851 1.330911 0
M  V30 39 H -3.458223 -1.887251 2.121942 0
M  V30 40 H -2.884792 -3.906851 0.937969 0
M  V30 41 H -3.553623 -5.437344 -0.818745 0
M  V30 42 H -4.949406 -4.553495 -2.732894 0
M  V30 43 H -5.617788 -2.245056 -2.830507 0
M  V30 44 H -4.933027 -0.645067 -1.018302 0
M  V30 45 H -1.607202 -1.545015 -1.008259 0
M  V30 46 H -2.571976 -0.022371 -1.029941 0
M  V30 47 H 3.247800 1.268249 4.732953 0
M  V30 END ATOM
M  V30 BEGIN BOND
M  V30 1 1 1 2
M  V30 2 2 2 3
M  V30 3 1 3 4
M  V30 4 2 4 5
M  V30 5 1 5 6
M  V30 6 1 6 7
M  V30 7 1 7 8
M  V30 8 2 8 9
M  V30 9 1 9 10
M  V30 10 2 10 11
M  V30 11 1 11 12
M  V30 12 1 12 13
M  V30 13 1 13 14
M  V30 14 2 14 15
M  V30 15 1 15 16
M  V30 16 1 15 17
M  V30 17 1 17 18
M  V30 18 1 18 19
M  V30 19 1 19 20
M  V30 20 1 20 21
M  V30 21 2 21 22
M  V30 22 1 22 23
M  V30 23 2 23 24
M  V30 24 1 24 25
M  V30 25 2 25 26
M  V30 26 1 19 27
M  V30 27 2 6 28
M  V30 28 1 28 2
M  V30 29 1 16 8
M  V30 30 1 26 21
M  V30 31 2 16 12
M  V30 32 1 27 14
M  V30 33 1 3 29
M  V30 34 1 4 30
M  V30 35 1 5 31
M  V30 36 1 7 32
M  V30 37 1 10 33
M  V30 38 1 17 34
M  V30 39 1 17 35
M  V30 40 1 18 36
M  V30 41 1 18 37
M  V30 42 1 20 38
M  V30 43 1 20 39
M  V30 44 1 22 40
M  V30 45 1 23 41
M  V30 46 1 24 42
M  V30 47 1 25 43
M  V30 48 1 26 44
M  V30 49 1 27 45
M  V30 50 1 27 46
M  V30 51 1 28 47
M  V30 END BOND
M  V30 END CTAB
M  END
>  <Dataset>  (406) 
ChEMBL_Kinases

>  <Ligand_Instance>  (406) 
nan

>  <PDB_ID>  (406) 
nan

>  <Standardized_SMILES>  (406) 
Fc1cccc(Nc2ncnc3sc4c(c23)CCN(Cc2ccccc2)C4)c1

>  <Name>  (406) 
nan

>  <Pocket>  (406) 
nan

>  <ATP_Site>  (406) 
nan

>  <Peripheral>  (406) 
nan

>  <Num_H_Atoms_ProtBoundConf>  (406) 
nan

>  <Num_Resolved_Atoms>  (406) 
nan

>  <Num_Not_Resolved_Atoms>  (406) 
nan

$$$$
CHEMBL4643708
     RDKit          3D

  0  0  0  0  0  0  0  0  0  0999 V3000
M  V30 BEGIN CTAB
M  V30 COUNTS 57 60 0 0 0
M  V30 BEGIN ATOM
M  V30 1 C 2.288304 -4.072285 -0.869082 0
M  V30 2 C 1.759936 -4.088238 0.567612 0
M  V30 3 C 2.653497 -5.063347 1.332461 0
M  V30 4 C 1.868457 -2.740143 1.181449 0
M  V30 5 C 2.946736 -2.258638 1.893979 0
M  V30 6 N 2.699904 -1.000612 2.303237 0
M  V30 7 N 1.481106 -0.632477 1.879420 0
M  V30 8 C 0.738458 0.507570 2.005006 0
M  V30 9 N 1.383402 1.535486 2.740201 0
M  V30 10 C 2.200942 2.625896 2.300901 0
M  V30 11 C 1.493316 3.569766 1.395871 0
M  V30 12 C 0.844562 4.618890 2.027678 0
M  V30 13 C 0.125543 5.615361 1.399906 0
M  V30 14 C 0.090313 5.493946 0.008351 0
M  V30 15 C 0.708942 4.482726 -0.679575 0
M  V30 16 C 1.408544 3.524296 0.020327 0
M  V30 17 C -0.517536 0.575078 1.438364 0
M  V30 18 C -1.024926 -0.504144 0.745932 0
M  V30 19 N -2.316870 -0.451515 0.151777 0
M  V30 20 C -2.834910 -1.584213 -0.565690 0 CFG=2
M  V30 21 O -4.087730 -1.287173 -1.053847 0
M  V30 22 C -3.021777 -2.794002 0.354895 0
M  V30 23 C -3.878812 -3.771324 -0.423527 0
M  V30 24 N -3.156809 -4.140374 -1.615101 0
M  V30 25 C -2.850853 -3.037879 -2.489643 0
M  V30 26 C -1.972476 -2.061062 -1.695168 0 CFG=1
M  V30 27 O -1.464239 -1.062762 -2.489533 0
M  V30 28 N -0.257620 -1.599122 0.651126 0
M  V30 29 C 0.970679 -1.691874 1.194282 0
M  V30 30 H 1.794594 -3.195718 -1.366825 0
M  V30 31 H 2.000972 -5.013831 -1.378013 0
M  V30 32 H 3.367573 -3.858534 -0.893897 0
M  V30 33 H 0.757028 -4.521068 0.594492 0
M  V30 34 H 3.666614 -4.621773 1.336290 0
M  V30 35 H 2.310906 -5.103551 2.387869 0
M  V30 36 H 2.605804 -6.056274 0.841119 0
M  V30 37 H 3.890174 -2.749483 2.136001 0
M  V30 38 H 1.105665 1.292189 3.716102 0
M  V30 39 H 2.604543 3.167815 3.166335 0
M  V30 40 H 3.035410 2.205975 1.664961 0
M  V30 41 H 0.867772 4.722083 3.124891 0
M  V30 42 H -0.359780 6.410661 1.947201 0
M  V30 43 H -0.456952 6.241486 -0.553801 0
M  V30 44 H 0.665323 4.411903 -1.764628 0
M  V30 45 H 1.933380 2.682025 -0.435150 0
M  V30 46 H -1.057700 1.488516 1.564799 0
M  V30 47 H -2.878405 0.426950 0.248566 0
M  V30 48 H -4.441825 -0.503445 -0.582627 0
M  V30 49 H -3.525492 -2.491173 1.308038 0
M  V30 50 H -2.046354 -3.292104 0.556521 0
M  V30 51 H -4.844274 -3.265022 -0.621573 0
M  V30 52 H -3.982054 -4.676000 0.189253 0
M  V30 53 H -3.499772 -4.987062 -2.082101 0
M  V30 54 H -2.311568 -3.459680 -3.353622 0
M  V30 55 H -3.727048 -2.466887 -2.822254 0
M  V30 56 H -1.161537 -2.707380 -1.247984 0
M  V30 57 H -0.529073 -1.302203 -2.700484 0
M  V30 END ATOM
M  V30 BEGIN BOND
M  V30 1 1 1 2
M  V30 2 1 2 3
M  V30 3 1 2 4
M  V30 4 1 4 5
M  V30 5 2 5 6
M  V30 6 1 6 7
M  V30 7 1 7 8
M  V30 8 1 8 9
M  V30 9 1 9 10
M  V30 10 1 10 11
M  V30 11 2 11 12
M  V30 12 1 12 13
M  V30 13 2 13 14
M  V30 14 1 14 15
M  V30 15 2 15 16
M  V30 16 2 8 17
M  V30 17 1 17 18
M  V30 18 1 18 19
M  V30 19 1 19 20
M  V30 20 1 20 21 CFG=3
M  V30 21 1 20 22
M  V30 22 1 22 23
M  V30 23 1 23 24
M  V30 24 1 24 25
M  V30 25 1 25 26
M  V30 26 1 26 27
M  V30 27 2 18 28
M  V30 28 1 28 29
M  V30 29 2 29 4
M  V30 30 1 29 7
M  V30 31 1 16 11
M  V30 32 1 26 20
M  V30 33 1 1 30
M  V30 34 1 1 31
M  V30 35 1 1 32
M  V30 36 1 2 33
M  V30 37 1 3 34
M  V30 38 1 3 35
M  V30 39 1 3 36
M  V30 40 1 5 37
M  V30 41 1 9 38
M  V30 42 1 10 39
M  V30 43 1 10 40
M  V30 44 1 12 41
M  V30 45 1 13 42
M  V30 46 1 14 43
M  V30 47 1 15 44
M  V30 48 1 16 45
M  V30 49 1 17 46
M  V30 50 1 19 47
M  V30 51 1 21 48
M  V30 52 1 22 49
M  V30 53 1 22 50
M  V30 54 1 23 51
M  V30 55 1 23 52
M  V30 56 1 24 53
M  V30 57 1 25 54
M  V30 58 1 25 55
M  V30 59 1 26 56 CFG=1
M  V30 60 1 27 57
M  V30 END BOND
M  V30 END CTAB
M  END
>  <Dataset>  (407) 
ChEMBL_Kinases

>  <Ligand_Instance>  (407) 
nan

>  <PDB_ID>  (407) 
nan

>  <Standardized_SMILES>  (407) 
CC(C)c1cnn2c(NCc3ccccc3)cc(N[C@]3(O)CCNC[C@H]3O)nc12

>  <Name>  (407) 
nan

>  <Pocket>  (407) 
nan

>  <ATP_Site>  (407) 
nan

>  <Peripheral>  (407) 
nan

>  <Num_H_Atoms_ProtBoundConf>  (407) 
nan

>  <Num_Resolved_Atoms>  (407) 
nan

>  <Num_Not_Resolved_Atoms>  (407) 
nan

$$$$
CHEMBL4528846
     RDKit          3D

  0  0  0  0  0  0  0  0  0  0999 V3000
M  V30 BEGIN CTAB
M  V30 COUNTS 53 57 0 0 0
M  V30 BEGIN ATOM
M  V30 1 C 1.941642 -1.477320 6.167718 0
M  V30 2 C 1.294952 -2.487052 5.210402 0
M  V30 3 C 1.774412 -3.875073 5.665315 0
M  V30 4 C 1.765595 -2.320586 3.808899 0
M  V30 5 N 0.751383 -1.965553 2.873639 0
M  V30 6 C 1.094935 -1.300821 1.660224 0
M  V30 7 C 2.399087 -1.014923 1.304377 0
M  V30 8 C 2.774017 -0.372985 0.145464 0
M  V30 9 C 1.790693 0.021714 -0.738322 0
M  V30 10 N 1.744877 0.652474 -1.934393 0
M  V30 11 C 0.436069 0.750945 -2.304237 0
M  V30 12 C -0.085155 1.365338 -3.536629 0
M  V30 13 C 0.224310 0.935992 -4.828716 0
M  V30 14 C -0.328056 1.593496 -5.907503 0
M  V30 15 F 0.049506 1.081884 -7.114035 0
M  V30 16 C -1.178929 2.665074 -5.741331 0
M  V30 17 C -1.473748 3.076102 -4.447940 0
M  V30 18 F -2.319979 4.139783 -4.331574 0
M  V30 19 C -0.944431 2.448155 -3.349197 0
M  V30 20 C -0.354878 0.172400 -1.324259 0
M  V30 21 C -1.798622 0.085154 -1.362547 0
M  V30 22 C -2.685531 0.639567 -0.457624 0
M  V30 23 C -4.023493 0.418359 -0.707414 0
M  V30 24 N -4.464193 -0.287182 -1.755650 0
M  V30 25 C -3.626348 -0.837614 -2.651177 0
M  V30 26 C -2.261318 -0.651136 -2.456283 0
M  V30 27 N 0.504445 -0.264464 -0.379406 0
M  V30 28 N 0.205653 -0.882415 0.744734 0
M  V30 29 C -0.665493 -2.230794 3.046045 0
M  V30 30 C -0.906166 -2.938125 4.331796 0
M  V30 31 N -0.106070 -2.473228 5.427619 0
M  V30 32 H 2.873548 -1.059369 5.718737 0
M  V30 33 H 2.142411 -1.975686 7.136520 0
M  V30 34 H 1.282893 -0.613772 6.363163 0
M  V30 35 H 1.397554 -4.128920 6.676423 0
M  V30 36 H 1.368630 -4.658045 4.991928 0
M  V30 37 H 2.867237 -3.961589 5.670008 0
M  V30 38 H 2.512036 -1.472802 3.825823 0
M  V30 39 H 2.354434 -3.196341 3.418628 0
M  V30 40 H 3.220226 -1.290688 1.938427 0
M  V30 41 H 3.809813 -0.165947 -0.099554 0
M  V30 42 H 0.896818 0.093357 -4.829790 0
M  V30 43 H -1.556278 3.108980 -6.657541 0
M  V30 44 H -1.205480 2.806742 -2.365102 0
M  V30 45 H -2.225043 1.178417 0.334662 0
M  V30 46 H -4.706817 0.866321 0.021397 0
M  V30 47 H -4.050784 -1.392110 -3.469736 0
M  V30 48 H -1.636768 -1.114801 -3.205464 0
M  V30 49 H -0.920115 -2.949413 2.215930 0
M  V30 50 H -1.300586 -1.356110 2.868476 0
M  V30 51 H -1.986056 -2.885851 4.603493 0
M  V30 52 H -0.694179 -4.019419 4.188220 0
M  V30 53 H -0.386594 -1.494104 5.664963 0
M  V30 END ATOM
M  V30 BEGIN BOND
M  V30 1 1 1 2
M  V30 2 1 2 3
M  V30 3 1 2 4
M  V30 4 1 4 5
M  V30 5 1 5 6
M  V30 6 1 6 7
M  V30 7 2 7 8
M  V30 8 1 8 9
M  V30 9 2 9 10
M  V30 10 1 10 11
M  V30 11 1 11 12
M  V30 12 2 12 13
M  V30 13 1 13 14
M  V30 14 1 14 15
M  V30 15 2 14 16
M  V30 16 1 16 17
M  V30 17 1 17 18
M  V30 18 2 17 19
M  V30 19 2 11 20
M  V30 20 1 20 21
M  V30 21 2 21 22
M  V30 22 1 22 23
M  V30 23 2 23 24
M  V30 24 1 24 25
M  V30 25 2 25 26
M  V30 26 1 20 27
M  V30 27 1 27 28
M  V30 28 1 5 29
M  V30 29 1 29 30
M  V30 30 1 30 31
M  V30 31 1 31 2
M  V30 32 2 28 6
M  V30 33 1 27 9
M  V30 34 1 19 12
M  V30 35 1 26 21
M  V30 36 1 1 32
M  V30 37 1 1 33
M  V30 38 1 1 34
M  V30 39 1 3 35
M  V30 40 1 3 36
M  V30 41 1 3 37
M  V30 42 1 4 38
M  V30 43 1 4 39
M  V30 44 1 7 40
M  V30 45 1 8 41
M  V30 46 1 13 42
M  V30 47 1 16 43
M  V30 48 1 19 44
M  V30 49 1 22 45
M  V30 50 1 23 46
M  V30 51 1 25 47
M  V30 52 1 26 48
M  V30 53 1 29 49
M  V30 54 1 29 50
M  V30 55 1 30 51
M  V30 56 1 30 52
M  V30 57 1 31 53
M  V30 END BOND
M  V30 END CTAB
M  END
>  <Dataset>  (408) 
ChEMBL_Kinases

>  <Ligand_Instance>  (408) 
nan

>  <PDB_ID>  (408) 
nan

>  <Standardized_SMILES>  (408) 
CC1(C)CN(c2ccc3nc(-c4cc(F)cc(F)c4)c(-c4ccncc4)n3n2)CCN1

>  <Name>  (408) 
nan

>  <Pocket>  (408) 
nan

>  <ATP_Site>  (408) 
nan

>  <Peripheral>  (408) 
nan

>  <Num_H_Atoms_ProtBoundConf>  (408) 
nan

>  <Num_Resolved_Atoms>  (408) 
nan

>  <Num_Not_Resolved_Atoms>  (408) 
nan

$$$$
CHEMBL4528834
     RDKit          3D

  0  0  0  0  0  0  0  0  0  0999 V3000
M  V30 BEGIN CTAB
M  V30 COUNTS 50 53 0 0 0
M  V30 BEGIN ATOM
M  V30 1 C 4.240291 -4.080740 3.983944 0
M  V30 2 N 4.685176 -4.537968 2.702850 0
M  V30 3 N 5.569209 -5.523437 2.469426 0
M  V30 4 C 5.757648 -5.691983 1.168257 0
M  V30 5 C 4.945739 -4.760071 0.573547 0
M  V30 6 C 4.269683 -4.032416 1.535114 0
M  V30 7 C 3.346937 -2.983054 1.152766 0
M  V30 8 C 2.610336 -2.183040 1.990258 0
M  V30 9 C 1.739194 -1.191149 1.595405 0
M  V30 10 C 1.571707 -0.958351 0.245126 0
M  V30 11 C 0.686522 0.054815 -0.316228 0
M  V30 12 O 0.526784 0.274751 -1.539612 0
M  V30 13 N -0.091490 0.901351 0.519995 0
M  V30 14 C -0.984847 1.920176 0.065248 0 CFG=2
M  V30 15 C -0.795118 3.265519 0.667469 0
M  V30 16 N -1.472556 3.392405 1.955794 0
M  V30 17 C -2.906494 3.498010 1.782526 0
M  V30 18 C -3.322279 2.655031 0.621349 0
M  V30 19 C -2.394783 1.463514 0.462546 0 CFG=1
M  V30 20 C -2.927320 0.476071 -0.485996 0
M  V30 21 C -3.077255 0.988649 -1.779023 0
M  V30 22 C -3.566855 0.201595 -2.807812 0
M  V30 23 C -3.924274 -1.113962 -2.597254 0
M  V30 24 F -4.404253 -1.891069 -3.598672 0
M  V30 25 C -3.769922 -1.597873 -1.322932 0
M  V30 26 F -4.104293 -2.880320 -1.058830 0
M  V30 27 C -3.290695 -0.844932 -0.293311 0
M  V30 28 C 2.310348 -1.760382 -0.600573 0
M  V30 29 N 3.147735 -2.716133 -0.151659 0
M  V30 30 H 4.555496 -3.054082 4.256174 0
M  V30 31 H 3.172453 -4.307216 4.174144 0
M  V30 32 H 4.770664 -4.719000 4.760122 0
M  V30 33 H 6.424544 -6.428422 0.781800 0
M  V30 34 H 4.931830 -4.707885 -0.528650 0
M  V30 35 H 2.690399 -2.307666 3.042245 0
M  V30 36 H 1.188854 -0.595903 2.295814 0
M  V30 37 H -0.062358 0.834165 1.561978 0
M  V30 38 H -0.972924 1.943878 -1.056814 0
M  V30 39 H -1.248645 4.031537 -0.007486 0
M  V30 40 H 0.240497 3.595184 0.826842 0
M  V30 41 H -1.218616 2.615992 2.587025 0
M  V30 42 H -3.133118 4.565990 1.572759 0
M  V30 43 H -3.396980 3.247857 2.738575 0
M  V30 44 H -4.313342 2.214502 0.868388 0
M  V30 45 H -3.396083 3.263477 -0.286616 0
M  V30 46 H -2.284804 1.034135 1.480804 0
M  V30 47 H -2.831677 2.011835 -2.078497 0
M  V30 48 H -3.687641 0.586091 -3.812559 0
M  V30 49 H -3.143230 -1.163889 0.738105 0
M  V30 50 H 2.241331 -1.647022 -1.684607 0
M  V30 END ATOM
M  V30 BEGIN BOND
M  V30 1 1 1 2
M  V30 2 1 2 3
M  V30 3 2 3 4
M  V30 4 1 4 5
M  V30 5 2 5 6
M  V30 6 1 6 7
M  V30 7 2 7 8
M  V30 8 1 8 9
M  V30 9 2 9 10
M  V30 10 1 10 11
M  V30 11 2 11 12
M  V30 12 1 11 13
M  V30 13 1 13 14
M  V30 14 1 14 15
M  V30 15 1 15 16
M  V30 16 1 16 17
M  V30 17 1 17 18
M  V30 18 1 18 19
M  V30 19 1 19 20
M  V30 20 2 20 21
M  V30 21 1 21 22
M  V30 22 2 22 23
M  V30 23 1 23 24
M  V30 24 1 23 25
M  V30 25 1 25 26
M  V30 26 2 25 27
M  V30 27 1 10 28
M  V30 28 2 28 29
M  V30 29 1 6 2
M  V30 30 1 29 7
M  V30 31 1 19 14
M  V30 32 1 27 20
M  V30 33 1 1 30
M  V30 34 1 1 31
M  V30 35 1 1 32
M  V30 36 1 4 33
M  V30 37 1 5 34
M  V30 38 1 8 35
M  V30 39 1 9 36
M  V30 40 1 13 37
M  V30 41 1 14 38 CFG=3
M  V30 42 1 15 39
M  V30 43 1 15 40
M  V30 44 1 16 41
M  V30 45 1 17 42
M  V30 46 1 17 43
M  V30 47 1 18 44
M  V30 48 1 18 45
M  V30 49 1 19 46 CFG=1
M  V30 50 1 21 47
M  V30 51 1 22 48
M  V30 52 1 27 49
M  V30 53 1 28 50
M  V30 END BOND
M  V30 END CTAB
M  END
>  <Dataset>  (409) 
ChEMBL_Kinases

>  <Ligand_Instance>  (409) 
nan

>  <PDB_ID>  (409) 
nan

>  <Standardized_SMILES>  (409) 
Cn1nccc1-c1ccc(C(=O)N[C@@H]2CNCC[C@H]2c2ccc(F)c(F)c2)cn1

>  <Name>  (409) 
nan

>  <Pocket>  (409) 
nan

>  <ATP_Site>  (409) 
nan

>  <Peripheral>  (409) 
nan

>  <Num_H_Atoms_ProtBoundConf>  (409) 
nan

>  <Num_Resolved_Atoms>  (409) 
nan

>  <Num_Not_Resolved_Atoms>  (409) 
nan

$$$$
CHEMBL4528550
     RDKit          3D

  0  0  0  0  0  0  0  0  0  0999 V3000
M  V30 BEGIN CTAB
M  V30 COUNTS 50 54 0 0 0
M  V30 BEGIN ATOM
M  V30 1 C 0.515542 -8.813884 0.694192 0
M  V30 2 N 1.002890 -7.434795 0.613310 0
M  V30 3 C 0.462217 -6.428976 -0.097769 0
M  V30 4 C 1.292738 -5.331509 0.159766 0
M  V30 5 C 1.152801 -3.973010 -0.371346 0
M  V30 6 C 1.533160 -2.795573 0.281438 0
M  V30 7 N 1.335352 -1.614310 -0.348327 0
M  V30 8 C 0.789880 -1.545571 -1.568820 0
M  V30 9 C 0.484411 -0.500258 -2.414719 0
M  V30 10 C 0.686885 0.925123 -2.192804 0
M  V30 11 C 1.244645 1.701289 -3.250084 0
M  V30 12 S 1.287574 3.428685 -2.457801 0
M  V30 13 C 0.579483 2.922663 -0.864357 0
M  V30 14 C 0.345095 3.817052 0.217115 0
M  V30 15 O 0.670020 5.008273 -0.014450 0
M  V30 16 N -0.214901 3.253527 1.392840 0
M  V30 17 C -0.506969 4.030022 2.563865 0 CFG=2
M  V30 18 C 0.314714 3.434692 3.711874 0
M  V30 19 C -0.485841 2.256055 4.165867 0
M  V30 20 C -1.901520 2.471293 3.675823 0
M  V30 21 C -1.891979 3.861005 3.080780 0 CFG=2
M  V30 22 N -2.932892 4.081418 2.114079 0
M  V30 23 C 0.350246 1.509927 -1.002739 0
M  V30 24 C -0.068186 -1.055969 -3.549710 0
M  V30 25 N -0.095340 -2.392423 -3.394034 0
M  V30 26 N 0.425248 -2.690054 -2.192139 0
M  V30 27 C 0.581386 -3.912545 -1.648106 0
M  V30 28 C 2.304164 -5.721720 1.018886 0
M  V30 29 N 2.083959 -7.044973 1.276629 0
M  V30 30 H -0.071552 -8.879906 1.652847 0
M  V30 31 H -0.247914 -8.940751 -0.100679 0
M  V30 32 H 1.318584 -9.558804 0.646416 0
M  V30 33 H -0.406650 -6.447676 -0.724035 0
M  V30 34 H 1.964157 -2.943614 1.261291 0
M  V30 35 H 1.540229 1.437650 -4.164006 0
M  V30 36 H -0.442512 2.245549 1.464889 0
M  V30 37 H -0.236202 5.083824 2.393329 0
M  V30 38 H 1.338086 3.195801 3.392607 0
M  V30 39 H 0.303921 4.241223 4.498689 0
M  V30 40 H -0.095061 1.292793 3.806332 0
M  V30 41 H -0.421628 2.218715 5.284049 0
M  V30 42 H -2.169929 1.758417 2.862572 0
M  V30 43 H -2.647634 2.418632 4.491453 0
M  V30 44 H -2.042187 4.575860 3.911454 0
M  V30 45 H -3.788465 4.485943 2.562631 0
M  V30 46 H -3.244257 3.209809 1.625181 0
M  V30 47 H -0.073753 1.022592 -0.144769 0
M  V30 48 H -0.418704 -0.501724 -4.416134 0
M  V30 49 H 0.275165 -4.805460 -2.182611 0
M  V30 50 H 3.123048 -5.195763 1.448499 0
M  V30 END ATOM
M  V30 BEGIN BOND
M  V30 1 1 1 2
M  V30 2 1 2 3
M  V30 3 2 3 4
M  V30 4 1 4 5
M  V30 5 1 5 6
M  V30 6 2 6 7
M  V30 7 1 7 8
M  V30 8 2 8 9
M  V30 9 1 9 10
M  V30 10 2 10 11
M  V30 11 1 11 12
M  V30 12 1 12 13
M  V30 13 1 13 14
M  V30 14 2 14 15
M  V30 15 1 14 16
M  V30 16 1 16 17
M  V30 17 1 17 18
M  V30 18 1 18 19
M  V30 19 1 19 20
M  V30 20 1 20 21
M  V30 21 1 21 22
M  V30 22 2 13 23
M  V30 23 1 9 24
M  V30 24 2 24 25
M  V30 25 1 25 26
M  V30 26 1 26 27
M  V30 27 1 4 28
M  V30 28 2 28 29
M  V30 29 1 29 2
M  V30 30 2 27 5
M  V30 31 1 26 8
M  V30 32 1 23 10
M  V30 33 1 21 17
M  V30 34 1 1 30
M  V30 35 1 1 31
M  V30 36 1 1 32
M  V30 37 1 3 33
M  V30 38 1 6 34
M  V30 39 1 11 35
M  V30 40 1 16 36
M  V30 41 1 17 37 CFG=3
M  V30 42 1 18 38
M  V30 43 1 18 39
M  V30 44 1 19 40
M  V30 45 1 19 41
M  V30 46 1 20 42
M  V30 47 1 20 43
M  V30 48 1 21 44 CFG=1
M  V30 49 1 22 45
M  V30 50 1 22 46
M  V30 51 1 23 47
M  V30 52 1 24 48
M  V30 53 1 27 49
M  V30 54 1 28 50
M  V30 END BOND
M  V30 END CTAB
M  END
>  <Dataset>  (410) 
ChEMBL_Kinases

>  <Ligand_Instance>  (410) 
nan

>  <PDB_ID>  (410) 
nan

>  <Standardized_SMILES>  (410) 
Cn1cc(-c2cnc3c(-c4csc(C(=O)N[C@@H]5CCC[C@@H]5N)c4)cnn3c2)cn1

>  <Name>  (410) 
nan

>  <Pocket>  (410) 
nan

>  <ATP_Site>  (410) 
nan

>  <Peripheral>  (410) 
nan

>  <Num_H_Atoms_ProtBoundConf>  (410) 
nan

>  <Num_Resolved_Atoms>  (410) 
nan

>  <Num_Not_Resolved_Atoms>  (410) 
nan

$$$$
CHEMBL4528387
     RDKit          3D

  0  0  0  0  0  0  0  0  0  0999 V3000
M  V30 BEGIN CTAB
M  V30 COUNTS 54 58 0 0 0
M  V30 BEGIN ATOM
M  V30 1 C 2.423053 -1.277316 6.182203 0
M  V30 2 N 1.520066 -2.114100 5.457298 0
M  V30 3 C 1.755387 -3.503685 5.788157 0
M  V30 4 C 1.362823 -1.865454 4.071697 0
M  V30 5 C 0.584796 -0.651149 3.751947 0
M  V30 6 C 0.416605 -0.313424 2.270073 0
M  V30 7 C -0.296263 0.770815 1.812617 0
M  V30 8 C -0.405269 1.008449 0.460977 0
M  V30 9 C 0.225271 0.123574 -0.452256 0
M  V30 10 C 0.221723 0.357609 -1.868767 0
M  V30 11 C 1.378330 1.129589 -2.063249 0
M  V30 12 O 2.366033 1.606915 -1.177646 0
M  V30 13 C 1.695585 1.556695 -3.362944 0
M  V30 14 C 0.905371 1.239289 -4.443319 0
M  V30 15 Cl 1.256179 1.745476 -6.079826 0
M  V30 16 C -0.202688 0.490528 -4.204834 0
M  V30 17 N -0.999565 0.160216 -5.234765 0
M  V30 18 C -2.112945 -0.575265 -5.095417 0
M  V30 19 O -2.844455 -0.873254 -6.068961 0
M  V30 20 C -2.415753 -0.992272 -3.807956 0
M  V30 21 C -3.555981 -1.750701 -3.655310 0
M  V30 22 O -4.333136 -2.055027 -4.756185 0
M  V30 23 C -3.853261 -2.166668 -2.376853 0
M  V30 24 C -3.090342 -1.877505 -1.238408 0
M  V30 25 C -1.985977 -1.118179 -1.527051 0
M  V30 26 C -1.621166 -0.669785 -2.742605 0
M  V30 27 C -0.522647 0.070717 -2.961649 0
M  V30 28 C 0.966093 -1.000656 -0.006247 0
M  V30 29 C 1.019248 -1.157132 1.362617 0
M  V30 30 C -0.767513 -0.628237 4.497577 0
M  V30 31 C 0.331835 0.400228 4.758579 0
M  V30 32 H 2.848245 -0.429576 5.618422 0
M  V30 33 H 2.049010 -0.893966 7.148144 0
M  V30 34 H 3.306023 -1.936161 6.514422 0
M  V30 35 H 1.013478 -3.925809 6.494913 0
M  V30 36 H 1.748305 -4.078146 4.837932 0
M  V30 37 H 2.803471 -3.597964 6.195907 0
M  V30 38 H 0.871864 -2.780406 3.636373 0
M  V30 39 H 2.397670 -1.850256 3.628963 0
M  V30 40 H -0.766498 1.426201 2.513183 0
M  V30 41 H -0.961102 1.853341 0.082055 0
M  V30 42 H 3.101180 0.979779 -0.914751 0
M  V30 43 H 2.563637 2.157369 -3.641116 0
M  V30 44 H -0.771408 0.473136 -6.202472 0
M  V30 45 H -5.167878 -1.470308 -4.891785 0
M  V30 46 H -4.768338 -2.763121 -2.323072 0
M  V30 47 H -3.514862 -2.307131 -0.345024 0
M  V30 48 H -1.555774 -1.013244 -0.587388 0
M  V30 49 H 1.432327 -1.650474 -0.730261 0
M  V30 50 H 1.592674 -2.028357 1.710379 0
M  V30 51 H -0.942105 -1.358566 5.299477 0
M  V30 52 H -1.646053 -0.251828 3.979244 0
M  V30 53 H 0.710852 0.420558 5.777884 0
M  V30 54 H 0.124804 1.431186 4.317774 0
M  V30 END ATOM
M  V30 BEGIN BOND
M  V30 1 1 1 2
M  V30 2 1 2 3
M  V30 3 1 2 4
M  V30 4 1 4 5
M  V30 5 1 5 6
M  V30 6 2 6 7
M  V30 7 1 7 8
M  V30 8 2 8 9
M  V30 9 1 9 10
M  V30 10 2 10 11
M  V30 11 1 11 12
M  V30 12 1 11 13
M  V30 13 2 13 14
M  V30 14 1 14 15
M  V30 15 1 14 16
M  V30 16 1 16 17
M  V30 17 1 17 18
M  V30 18 2 18 19
M  V30 19 1 18 20
M  V30 20 2 20 21
M  V30 21 1 21 22
M  V30 22 1 21 23
M  V30 23 2 23 24
M  V30 24 1 24 25
M  V30 25 2 25 26
M  V30 26 1 26 27
M  V30 27 1 9 28
M  V30 28 2 28 29
M  V30 29 1 5 30
M  V30 30 1 30 31
M  V30 31 1 31 5
M  V30 32 1 29 6
M  V30 33 1 27 10
M  V30 34 2 27 16
M  V30 35 1 26 20
M  V30 36 1 1 32
M  V30 37 1 1 33
M  V30 38 1 1 34
M  V30 39 1 3 35
M  V30 40 1 3 36
M  V30 41 1 3 37
M  V30 42 1 4 38
M  V30 43 1 4 39
M  V30 44 1 7 40
M  V30 45 1 8 41
M  V30 46 1 12 42
M  V30 47 1 13 43
M  V30 48 1 17 44
M  V30 49 1 22 45
M  V30 50 1 23 46
M  V30 51 1 24 47
M  V30 52 1 25 48
M  V30 53 1 28 49
M  V30 54 1 29 50
M  V30 55 1 30 51
M  V30 56 1 30 52
M  V30 57 1 31 53
M  V30 58 1 31 54
M  V30 END BOND
M  V30 END CTAB
M  END
>  <Dataset>  (411) 
ChEMBL_Kinases

>  <Ligand_Instance>  (411) 
nan

>  <PDB_ID>  (411) 
nan

>  <Standardized_SMILES>  (411) 
CN(C)CC1(c2ccc(-c3c(O)cc(Cl)c4[nH]c(=O)c5c(O)cccc5c34)cc2)CC1

>  <Name>  (411) 
nan

>  <Pocket>  (411) 
nan

>  <ATP_Site>  (411) 
nan

>  <Peripheral>  (411) 
nan

>  <Num_H_Atoms_ProtBoundConf>  (411) 
nan

>  <Num_Resolved_Atoms>  (411) 
nan

>  <Num_Not_Resolved_Atoms>  (411) 
nan

$$$$
CHEMBL4531058
     RDKit          3D

  0  0  0  0  0  0  0  0  0  0999 V3000
M  V30 BEGIN CTAB
M  V30 COUNTS 70 75 0 0 0
M  V30 BEGIN ATOM
M  V30 1 C 7.155847 -1.153670 5.396208 0
M  V30 2 N 6.192526 -2.208980 5.317546 0
M  V30 3 C 6.288920 -2.946016 4.071315 0
M  V30 4 C 5.776520 -2.155902 2.903797 0
M  V30 5 N 4.408964 -1.722079 3.165423 0
M  V30 6 C 3.701111 -0.943129 2.191903 0
M  V30 7 C 2.380994 -0.571490 2.333028 0
M  V30 8 C 1.775993 0.200476 1.336079 0
M  V30 9 C 2.452579 0.612139 0.202522 0
M  V30 10 N 1.796596 1.412754 -0.804785 0
M  V30 11 C 0.425684 1.660514 -0.508215 0
M  V30 12 N 0.202016 2.702054 0.313471 0
M  V30 13 C -1.067934 2.991490 0.638502 0
M  V30 14 C -2.109697 2.254011 0.154048 0
M  V30 15 C -1.880621 1.181241 -0.692758 0
M  V30 16 C -2.997462 0.433994 -1.166577 0
M  V30 17 S -3.042839 -1.382840 -0.895031 0
M  V30 18 C -4.730681 -1.513451 -1.790968 0
M  V30 19 C -5.364306 -2.862137 -1.924404 0
M  V30 20 C -4.841828 -3.440403 -3.242790 0
M  V30 21 C -3.352988 -3.469043 -3.176188 0
M  V30 22 N -2.816203 -4.032068 -1.986713 0
M  V30 23 C -3.735559 -4.585017 -1.053850 0
M  V30 24 C -4.995511 -3.807850 -0.836457 0
M  V30 25 N -4.952106 -0.389011 -2.093797 0
M  V30 26 C -4.153478 0.647911 -1.828434 0
M  V30 27 C -4.454029 2.032066 -2.217625 0
M  V30 28 C -5.537589 2.743780 -1.752296 0
M  V30 29 C -5.746990 4.064951 -2.180123 0
M  V30 30 C -4.833599 4.591336 -3.065771 0
M  V30 31 F -5.106934 5.865397 -3.431234 0
M  V30 32 C -3.734081 3.933682 -3.565692 0
M  V30 33 C -3.569276 2.640786 -3.117526 0
M  V30 34 N -0.589899 0.940873 -0.981943 0
M  V30 35 C 3.767861 0.224817 0.090151 0
M  V30 36 C 4.375412 -0.536938 1.067456 0
M  V30 37 C 3.898340 -2.142828 4.447078 0
M  V30 38 C 4.847365 -1.734624 5.556640 0
M  V30 39 H 7.449429 -1.018993 6.455182 0
M  V30 40 H 6.694602 -0.232379 4.975139 0
M  V30 41 H 8.070938 -1.413489 4.801336 0
M  V30 42 H 5.773806 -3.938974 4.164123 0
M  V30 43 H 7.362955 -3.179497 3.929572 0
M  V30 44 H 5.716964 -2.873352 2.043885 0
M  V30 45 H 6.463682 -1.332171 2.670517 0
M  V30 46 H 1.833261 -0.872115 3.194589 0
M  V30 47 H 0.743478 0.456731 1.507758 0
M  V30 48 H 2.394672 1.708266 -1.616216 0
M  V30 49 H -1.238238 3.835922 1.306391 0
M  V30 50 H -3.099719 2.522844 0.442222 0
M  V30 51 H -6.469411 -2.798033 -2.047623 0
M  V30 52 H -5.289292 -4.436735 -3.446489 0
M  V30 53 H -5.152603 -2.775170 -4.076149 0
M  V30 54 H -2.953050 -3.913282 -4.119710 0
M  V30 55 H -2.994799 -2.398338 -3.219780 0
M  V30 56 H -2.158282 -4.803606 -2.293011 0
M  V30 57 H -3.189700 -4.607305 -0.062964 0
M  V30 58 H -3.929419 -5.670877 -1.249493 0
M  V30 59 H -5.814210 -4.533281 -0.639205 0
M  V30 60 H -4.945378 -3.186742 0.107494 0
M  V30 61 H -6.155530 2.169856 -1.061781 0
M  V30 62 H -6.619496 4.549219 -1.768000 0
M  V30 63 H -3.069005 4.417690 -4.252849 0
M  V30 64 H -2.703876 2.066415 -3.485297 0
M  V30 65 H 4.335396 0.519733 -0.772084 0
M  V30 66 H 5.418429 -0.829985 0.952819 0
M  V30 67 H 2.923370 -1.661525 4.710683 0
M  V30 68 H 3.708848 -3.248833 4.508861 0
M  V30 69 H 4.485668 -2.071685 6.530914 0
M  V30 70 H 4.855162 -0.621426 5.555678 0
M  V30 END ATOM
M  V30 BEGIN BOND
M  V30 1 1 1 2
M  V30 2 1 2 3
M  V30 3 1 3 4
M  V30 4 1 4 5
M  V30 5 1 5 6
M  V30 6 2 6 7
M  V30 7 1 7 8
M  V30 8 2 8 9
M  V30 9 1 9 10
M  V30 10 1 10 11
M  V30 11 2 11 12
M  V30 12 1 12 13
M  V30 13 2 13 14
M  V30 14 1 14 15
M  V30 15 1 15 16
M  V30 16 1 16 17
M  V30 17 1 17 18
M  V30 18 1 18 19
M  V30 19 1 19 20
M  V30 20 1 20 21
M  V30 21 1 21 22
M  V30 22 1 22 23
M  V30 23 1 23 24
M  V30 24 2 18 25
M  V30 25 1 25 26
M  V30 26 1 26 27
M  V30 27 2 27 28
M  V30 28 1 28 29
M  V30 29 2 29 30
M  V30 30 1 30 31
M  V30 31 1 30 32
M  V30 32 2 32 33
M  V30 33 2 15 34
M  V30 34 1 9 35
M  V30 35 2 35 36
M  V30 36 1 5 37
M  V30 37 1 37 38
M  V30 38 1 38 2
M  V30 39 1 36 6
M  V30 40 1 34 11
M  V30 41 2 26 16
M  V30 42 1 33 27
M  V30 43 1 24 19
M  V30 44 1 1 39
M  V30 45 1 1 40
M  V30 46 1 1 41
M  V30 47 1 3 42
M  V30 48 1 3 43
M  V30 49 1 4 44
M  V30 50 1 4 45
M  V30 51 1 7 46
M  V30 52 1 8 47
M  V30 53 1 10 48
M  V30 54 1 13 49
M  V30 55 1 14 50
M  V30 56 1 19 51
M  V30 57 1 20 52
M  V30 58 1 20 53
M  V30 59 1 21 54
M  V30 60 1 21 55
M  V30 61 1 22 56
M  V30 62 1 23 57
M  V30 63 1 23 58
M  V30 64 1 24 59
M  V30 65 1 24 60
M  V30 66 1 28 61
M  V30 67 1 29 62
M  V30 68 1 32 63
M  V30 69 1 33 64
M  V30 70 1 35 65
M  V30 71 1 36 66
M  V30 72 1 37 67
M  V30 73 1 37 68
M  V30 74 1 38 69
M  V30 75 1 38 70
M  V30 END BOND
M  V30 END CTAB
M  END
>  <Dataset>  (412) 
ChEMBL_Kinases

>  <Ligand_Instance>  (412) 
nan

>  <PDB_ID>  (412) 
nan

>  <Standardized_SMILES>  (412) 
CN1CCN(c2ccc(Nc3nccc(-c4sc(C5CCNCC5)nc4-c4ccc(F)cc4)n3)cc2)CC1

>  <Name>  (412) 
nan

>  <Pocket>  (412) 
nan

>  <ATP_Site>  (412) 
nan

>  <Peripheral>  (412) 
nan

>  <Num_H_Atoms_ProtBoundConf>  (412) 
nan

>  <Num_Resolved_Atoms>  (412) 
nan

>  <Num_Not_Resolved_Atoms>  (412) 
nan

$$$$
CHEMBL4528327
     RDKit          3D

  0  0  0  0  0  0  0  0  0  0999 V3000
M  V30 BEGIN CTAB
M  V30 COUNTS 149 154 0 0 0
M  V30 BEGIN ATOM
M  V30 1 C 5.027037 -6.490500 1.220167 0
M  V30 2 C 5.593609 -6.617568 -0.135311 0
M  V30 3 N 5.973733 -7.771727 -0.644082 0
M  V30 4 C 6.412339 -8.013525 -1.697096 0
M  V30 5 S 6.430212 -6.306133 -2.476195 0
M  V30 6 C 5.753269 -5.512743 -1.020111 0
M  V30 7 C 5.463494 -4.100945 -0.916934 0
M  V30 8 C 5.100203 -3.331403 0.132889 0
M  V30 9 C 4.783612 -1.993962 0.143686 0
M  V30 10 C 4.850554 -1.364848 -1.091421 0
M  V30 11 C 4.488182 0.072340 -1.233022 0 CFG=2
M  V30 12 C 5.677364 0.873890 -0.863166 0
M  V30 13 N 3.291030 0.369382 -0.526928 0
M  V30 14 C 2.130338 1.040308 -1.023525 0
M  V30 15 O 1.839545 1.512645 -2.157107 0
M  V30 16 C 0.996390 1.278773 -0.172696 0 CFG=2
M  V30 17 C 0.033251 2.367423 -0.567501 0
M  V30 18 C -0.999093 2.115690 0.581529 0 CFG=1
M  V30 19 O -2.028050 1.413631 0.003432 0
M  V30 20 C -0.183234 1.283088 1.603544 0
M  V30 21 N 1.206204 1.619569 1.206662 0
M  V30 22 C 2.178236 2.092534 2.106627 0
M  V30 23 O 3.150755 2.388602 1.362503 0
M  V30 24 C 2.407820 2.350262 3.527597 0 CFG=1
M  V30 25 N 1.333183 1.878030 4.301940 0
M  V30 26 C 0.547120 2.789959 5.026205 0
M  V30 27 O 0.488251 4.041280 5.221143 0
M  V30 28 C -0.606189 3.167589 5.971495 0
M  V30 29 O -0.554205 4.486799 6.092235 0
M  V30 30 C -1.224507 5.233393 6.951286 0
M  V30 31 C -2.710702 5.130131 6.975778 0
M  V30 32 O -3.329635 5.421094 5.768110 0
M  V30 33 C -4.667619 5.557446 5.931393 0
M  V30 34 C -5.401530 5.772210 4.653762 0
M  V30 35 O -5.327263 4.741681 3.762179 0
M  V30 36 C -4.139276 4.264767 3.352421 0
M  V30 37 C -4.430383 3.088699 2.345688 0
M  V30 38 O -5.167591 2.220712 3.088074 0
M  V30 39 C -5.693531 1.099807 2.554121 0
M  V30 40 C -4.791605 0.054448 1.998957 0
M  V30 41 N -5.589966 -1.074926 1.464152 0
M  V30 42 C -5.149464 -2.336537 0.879329 0
M  V30 43 O -3.875432 -2.364215 0.895826 0
M  V30 44 C -6.351256 -3.103732 0.493380 0
M  V30 45 C -6.076042 -4.514609 0.063108 0
M  V30 46 C -5.180121 -4.687577 -1.086133 0
M  V30 47 C -5.709736 -4.682406 -2.339464 0
M  V30 48 C -4.940079 -4.901924 -3.472023 0
M  V30 49 C -3.569492 -5.148953 -3.460152 0
M  V30 50 S -2.997053 -5.378450 -5.118996 0
M  V30 51 O -4.091067 -5.826145 -6.027005 0
M  V30 52 O -2.028342 -6.628715 -5.048086 0
M  V30 53 N -2.113520 -4.083599 -5.726679 0
M  V30 54 C -0.744011 -3.894524 -5.410043 0
M  V30 55 C 0.097693 -4.529463 -4.522961 0
M  V30 56 C 1.492920 -4.228651 -4.541307 0
M  V30 57 C 2.228795 -5.020847 -3.532945 0
M  V30 58 C 1.999782 -3.322295 -5.422944 0
M  V30 59 O 3.269346 -3.178314 -5.301345 0
M  V30 60 N 1.198239 -2.682825 -6.302182 0
M  V30 61 C 1.899503 -1.788561 -7.191824 0
M  V30 62 C -0.130006 -2.963968 -6.286748 0
M  V30 63 N -0.819884 -2.241107 -7.309660 0
M  V30 64 C -1.450039 -0.927765 -7.141295 0
M  V30 65 C -1.269499 -0.401893 -5.882313 0
M  V30 66 C -1.869363 0.812555 -5.665837 0
M  V30 67 C -2.616597 1.504745 -6.623084 0
M  V30 68 I -3.574919 3.345972 -6.308655 0
M  V30 69 C -2.750806 0.910001 -7.876306 0
M  V30 70 C -2.163785 -0.323414 -8.150758 0
M  V30 71 F -2.265552 -0.957995 -9.322997 0
M  V30 72 C -3.013323 -5.156139 -2.191785 0
M  V30 73 C -3.802793 -4.930604 -1.051338 0
M  V30 74 C 3.777408 1.802818 3.833128 0
M  V30 75 C 4.212105 1.920933 5.284313 0
M  V30 76 C 4.008664 0.451463 3.271139 0
M  V30 77 C 4.764028 2.737340 3.092449 0
M  V30 78 C 5.214320 -2.051513 -2.224650 0
M  V30 79 C 5.512620 -3.405381 -2.109737 0
M  V30 80 H 4.687122 -7.477634 1.660277 0
M  V30 81 H 4.070320 -5.890251 1.244142 0
M  V30 82 H 5.708537 -5.985877 1.940870 0
M  V30 83 H 6.713079 -9.013557 -2.094518 0
M  V30 84 H 5.064780 -3.841032 1.104010 0
M  V30 85 H 4.496038 -1.510029 1.064722 0
M  V30 86 H 4.315196 0.282649 -2.338215 0
M  V30 87 H 6.327909 0.439044 -0.077986 0
M  V30 88 H 6.402459 1.004182 -1.714837 0
M  V30 89 H 5.407296 1.906723 -0.575625 0
M  V30 90 H 3.411952 -0.005617 0.428940 0
M  V30 91 H 0.339428 0.323069 -0.194099 0
M  V30 92 H 0.495672 3.329840 -0.343520 0
M  V30 93 H -0.447581 2.258042 -1.525541 0
M  V30 94 H -1.368174 3.057434 1.008220 0
M  V30 95 H -2.255962 1.935874 -0.852198 0
M  V30 96 H -0.443816 1.667260 2.585805 0
M  V30 97 H -0.372205 0.215210 1.514007 0
M  V30 98 H 2.506219 3.462377 3.662830 0
M  V30 99 H 0.764983 1.060897 4.620648 0
M  V30 100 H -0.485799 2.502409 6.867269 0
M  V30 101 H -1.562734 2.811772 5.526089 0
M  V30 102 H -1.011992 6.348219 6.773579 0
M  V30 103 H -0.871192 5.123491 8.025947 0
M  V30 104 H -3.068362 4.142275 7.405697 0
M  V30 105 H -3.090787 5.880410 7.725600 0
M  V30 106 H -4.909481 6.453204 6.606166 0
M  V30 107 H -5.147697 4.661125 6.421684 0
M  V30 108 H -6.481286 6.064614 4.862057 0
M  V30 109 H -4.996154 6.717691 4.164120 0
M  V30 110 H -3.604009 3.750241 4.163254 0
M  V30 111 H -3.465907 5.008939 2.891713 0
M  V30 112 H -3.490768 2.641792 2.003626 0
M  V30 113 H -4.923849 3.532093 1.454601 0
M  V30 114 H -6.523948 1.348005 1.806445 0
M  V30 115 H -6.299687 0.599187 3.395838 0
M  V30 116 H -4.241873 0.459844 1.137315 0
M  V30 117 H -4.115674 -0.312619 2.791791 0
M  V30 118 H -6.609931 -0.861972 1.571713 0
M  V30 119 H -7.037948 -3.149218 1.390941 0
M  V30 120 H -6.920792 -2.557772 -0.313172 0
M  V30 121 H -5.727740 -5.107170 0.967114 0
M  V30 122 H -7.037603 -5.027914 -0.201477 0
M  V30 123 H -6.769783 -4.507521 -2.445628 0
M  V30 124 H -5.522663 -4.862445 -4.419081 0
M  V30 125 H -2.705834 -3.466301 -6.343886 0
M  V30 126 H -0.457933 -5.181520 -3.928680 0
M  V30 127 H 1.495075 -5.694207 -2.971739 0
M  V30 128 H 2.977152 -5.673850 -3.978453 0
M  V30 129 H 2.668962 -4.334098 -2.762305 0
M  V30 130 H 2.327592 -0.921109 -6.664969 0
M  V30 131 H 2.817618 -2.380816 -7.532644 0
M  V30 132 H 1.337318 -1.504837 -8.082238 0
M  V30 133 H -0.774261 -2.833639 -8.137957 0
M  V30 134 H -0.698999 -0.914709 -5.152509 0
M  V30 135 H -1.749108 1.239692 -4.678829 0
M  V30 136 H -3.310886 1.324836 -8.703085 0
M  V30 137 H -1.965297 -5.353373 -2.201354 0
M  V30 138 H -3.319802 -4.958464 -0.116770 0
M  V30 139 H 5.165996 1.329695 5.436655 0
M  V30 140 H 3.537687 1.398184 6.003835 0
M  V30 141 H 4.480010 2.950686 5.564059 0
M  V30 142 H 4.470531 -0.197708 4.086779 0
M  V30 143 H 3.110136 -0.079643 2.895180 0
M  V30 144 H 4.784915 0.415820 2.497801 0
M  V30 145 H 5.259833 2.212379 2.244813 0
M  V30 146 H 4.294138 3.696222 2.830369 0
M  V30 147 H 5.643948 2.978787 3.751331 0
M  V30 148 H 5.246039 -1.495866 -3.138158 0
M  V30 149 H 5.783858 -3.811624 -3.054045 0
M  V30 END ATOM
M  V30 BEGIN BOND
M  V30 1 1 1 2
M  V30 2 1 2 3
M  V30 3 2 3 4
M  V30 4 1 4 5
M  V30 5 1 5 6
M  V30 6 1 6 7
M  V30 7 2 7 8
M  V30 8 1 8 9
M  V30 9 2 9 10
M  V30 10 1 10 11
M  V30 11 1 11 12
M  V30 12 1 11 13
M  V30 13 1 13 14
M  V30 14 2 14 15
M  V30 15 1 14 16
M  V30 16 1 16 17
M  V30 17 1 17 18
M  V30 18 1 18 19
M  V30 19 1 18 20
M  V30 20 1 20 21
M  V30 21 1 21 22
M  V30 22 2 22 23
M  V30 23 1 22 24
M  V30 24 1 24 25
M  V30 25 1 25 26
M  V30 26 2 26 27
M  V30 27 1 26 28
M  V30 28 1 28 29
M  V30 29 1 29 30
M  V30 30 1 30 31
M  V30 31 1 31 32
M  V30 32 1 32 33
M  V30 33 1 33 34
M  V30 34 1 34 35
M  V30 35 1 35 36
M  V30 36 1 36 37
M  V30 37 1 37 38
M  V30 38 1 38 39
M  V30 39 1 39 40
M  V30 40 1 40 41
M  V30 41 1 41 42
M  V30 42 2 42 43
M  V30 43 1 42 44
M  V30 44 1 44 45
M  V30 45 1 45 46
M  V30 46 2 46 47
M  V30 47 1 47 48
M  V30 48 2 48 49
M  V30 49 1 49 50
M  V30 50 2 50 51
M  V30 51 2 50 52
M  V30 52 1 50 53
M  V30 53 1 53 54
M  V30 54 1 54 55
M  V30 55 2 55 56
M  V30 56 1 56 57
M  V30 57 1 56 58
M  V30 58 2 58 59
M  V30 59 1 58 60
M  V30 60 1 60 61
M  V30 61 1 60 62
M  V30 62 1 62 63
M  V30 63 1 63 64
M  V30 64 2 64 65
M  V30 65 1 65 66
M  V30 66 2 66 67
M  V30 67 1 67 68
M  V30 68 1 67 69
M  V30 69 2 69 70
M  V30 70 1 70 71
M  V30 71 1 49 72
M  V30 72 2 72 73
M  V30 73 1 24 74
M  V30 74 1 74 75
M  V30 75 1 74 76
M  V30 76 1 74 77
M  V30 77 1 10 78
M  V30 78 2 78 79
M  V30 79 2 6 2
M  V30 80 1 79 7
M  V30 81 1 21 16
M  V30 82 1 73 46
M  V30 83 2 62 54
M  V30 84 1 70 64
M  V30 85 1 1 80
M  V30 86 1 1 81
M  V30 87 1 1 82
M  V30 88 1 4 83
M  V30 89 1 8 84
M  V30 90 1 9 85
M  V30 91 1 11 86 CFG=3
M  V30 92 1 12 87
M  V30 93 1 12 88
M  V30 94 1 12 89
M  V30 95 1 13 90
M  V30 96 1 16 91 CFG=1
M  V30 97 1 17 92
M  V30 98 1 17 93
M  V30 99 1 18 94 CFG=1
M  V30 100 1 19 95
M  V30 101 1 20 96
M  V30 102 1 20 97
M  V30 103 1 24 98 CFG=3
M  V30 104 1 25 99
M  V30 105 1 28 100
M  V30 106 1 28 101
M  V30 107 1 30 102
M  V30 108 1 30 103
M  V30 109 1 31 104
M  V30 110 1 31 105
M  V30 111 1 33 106
M  V30 112 1 33 107
M  V30 113 1 34 108
M  V30 114 1 34 109
M  V30 115 1 36 110
M  V30 116 1 36 111
M  V30 117 1 37 112
M  V30 118 1 37 113
M  V30 119 1 39 114
M  V30 120 1 39 115
M  V30 121 1 40 116
M  V30 122 1 40 117
M  V30 123 1 41 118
M  V30 124 1 44 119
M  V30 125 1 44 120
M  V30 126 1 45 121
M  V30 127 1 45 122
M  V30 128 1 47 123
M  V30 129 1 48 124
M  V30 130 1 53 125
M  V30 131 1 55 126
M  V30 132 1 57 127
M  V30 133 1 57 128
M  V30 134 1 57 129
M  V30 135 1 61 130
M  V30 136 1 61 131
M  V30 137 1 61 132
M  V30 138 1 63 133
M  V30 139 1 65 134
M  V30 140 1 66 135
M  V30 141 1 69 136
M  V30 142 1 72 137
M  V30 143 1 73 138
M  V30 144 1 75 139
M  V30 145 1 75 140
M  V30 146 1 75 141
M  V30 147 1 76 142
M  V30 148 1 76 143
M  V30 149 1 76 144
M  V30 150 1 77 145
M  V30 151 1 77 146
M  V30 152 1 77 147
M  V30 153 1 78 148
M  V30 154 1 79 149
M  V30 END BOND
M  V30 END CTAB
M  END
>  <Dataset>  (413) 
ChEMBL_Kinases

>  <Ligand_Instance>  (413) 
nan

>  <PDB_ID>  (413) 
nan

>  <Standardized_SMILES>  (413) 
Cc1ncsc1-c1ccc([C@H](C)NC(=O)[C@@H]2C[C@@H](O)CN2C(=O)[C@@H](NC(=O)COCCOCCOCCOCCNC(=O)CCc2ccc(S(=O)(=O)Nc3cc(C)c(=O)n(C)c3Nc3ccc(I)cc3F)cc2)C(C)(C)C)cc1

>  <Name>  (413) 
nan

>  <Pocket>  (413) 
nan

>  <ATP_Site>  (413) 
nan

>  <Peripheral>  (413) 
nan

>  <Num_H_Atoms_ProtBoundConf>  (413) 
nan

>  <Num_Resolved_Atoms>  (413) 
nan

>  <Num_Not_Resolved_Atoms>  (413) 
nan

$$$$
CHEMBL4528315
     RDKit          3D

  0  0  0  0  0  0  0  0  0  0999 V3000
M  V30 BEGIN CTAB
M  V30 COUNTS 37 39 0 0 0
M  V30 BEGIN ATOM
M  V30 1 C -0.140028 -3.586485 5.139070 0
M  V30 2 O -0.474326 -2.465076 4.350966 0
M  V30 3 C -0.092369 -2.410154 3.010760 0
M  V30 4 C 0.615505 -3.391255 2.346006 0
M  V30 5 C 0.949636 -3.248718 1.014433 0
M  V30 6 C 0.559003 -2.089390 0.342467 0
M  V30 7 C 0.723448 -1.644049 -0.948876 0
M  V30 8 C 1.352356 -2.273274 -2.002458 0
M  V30 9 C 1.337307 -1.576544 -3.191282 0
M  V30 10 N 0.756432 -0.381804 -3.314854 0
M  V30 11 C 0.124257 0.276937 -2.305439 0
M  V30 12 C -0.545939 1.567058 -2.525485 0
M  V30 13 C 0.128544 -0.407071 -1.092212 0
M  V30 14 N -0.389364 -0.104383 0.108391 0
M  V30 15 C -1.019734 1.124239 0.474606 0
M  V30 16 C -0.094955 2.055799 1.225250 0
M  V30 17 C 1.159742 2.414931 0.555866 0
M  V30 18 O 1.909065 2.244040 -0.455122 0
M  V30 19 O 1.810728 3.332237 1.369127 0
M  V30 20 C -0.147303 -1.106061 0.998547 0
M  V30 21 C -0.476443 -1.258620 2.330840 0
M  V30 22 H 0.934393 -3.892145 4.995842 0
M  V30 23 H -0.775343 -4.466453 4.905595 0
M  V30 24 H -0.214292 -3.341516 6.225218 0
M  V30 25 H 0.888489 -4.258015 2.911968 0
M  V30 26 H 1.500190 -4.002250 0.480372 0
M  V30 27 H 1.826308 -3.224652 -1.945281 0
M  V30 28 H 1.807245 -1.997924 -4.062693 0
M  V30 29 H -0.197781 2.433931 -1.996843 0
M  V30 30 H -1.656363 1.472241 -2.597300 0
M  V30 31 H -0.313860 1.835470 -3.608369 0
M  V30 32 H -1.569416 1.684223 -0.239652 0
M  V30 33 H -1.791761 0.850107 1.270902 0
M  V30 34 H 0.073099 1.700328 2.270442 0
M  V30 35 H -0.694502 3.011758 1.337364 0
M  V30 36 H 2.758921 3.649954 1.248616 0
M  V30 37 H -1.023242 -0.483839 2.816187 0
M  V30 END ATOM
M  V30 BEGIN BOND
M  V30 1 1 1 2
M  V30 2 1 2 3
M  V30 3 2 3 4
M  V30 4 1 4 5
M  V30 5 2 5 6
M  V30 6 1 6 7
M  V30 7 2 7 8
M  V30 8 1 8 9
M  V30 9 2 9 10
M  V30 10 1 10 11
M  V30 11 1 11 12
M  V30 12 2 11 13
M  V30 13 1 13 14
M  V30 14 1 14 15
M  V30 15 1 15 16
M  V30 16 1 16 17
M  V30 17 2 17 18
M  V30 18 1 17 19
M  V30 19 1 14 20
M  V30 20 2 20 21
M  V30 21 1 21 3
M  V30 22 1 20 6
M  V30 23 1 13 7
M  V30 24 1 1 22
M  V30 25 1 1 23
M  V30 26 1 1 24
M  V30 27 1 4 25
M  V30 28 1 5 26
M  V30 29 1 8 27
M  V30 30 1 9 28
M  V30 31 1 12 29
M  V30 32 1 12 30
M  V30 33 1 12 31
M  V30 34 1 15 32
M  V30 35 1 15 33
M  V30 36 1 16 34
M  V30 37 1 16 35
M  V30 38 1 19 36
M  V30 39 1 21 37
M  V30 END BOND
M  V30 END CTAB
M  END
>  <Dataset>  (414) 
ChEMBL_Kinases

>  <Ligand_Instance>  (414) 
nan

>  <PDB_ID>  (414) 
nan

>  <Standardized_SMILES>  (414) 
COc1ccc2c3ccnc(C)c3n(CCC(=O)O)c2c1

>  <Name>  (414) 
nan

>  <Pocket>  (414) 
nan

>  <ATP_Site>  (414) 
nan

>  <Peripheral>  (414) 
nan

>  <Num_H_Atoms_ProtBoundConf>  (414) 
nan

>  <Num_Resolved_Atoms>  (414) 
nan

>  <Num_Not_Resolved_Atoms>  (414) 
nan

$$$$
CHEMBL4528313
     RDKit          3D

  0  0  0  0  0  0  0  0  0  0999 V3000
M  V30 BEGIN CTAB
M  V30 COUNTS 50 54 0 0 0
M  V30 BEGIN ATOM
M  V30 1 N -2.921277 -1.735712 -5.598738 0
M  V30 2 C -3.221030 -0.707099 -4.664607 0
M  V30 3 O -4.266233 -0.114144 -5.035046 0
M  V30 4 C -2.521859 -0.306061 -3.450295 0
M  V30 5 C -3.104445 0.749491 -2.780913 0
M  V30 6 C -2.459852 1.162581 -1.609487 0
M  V30 7 C -3.022011 2.280282 -0.843550 0
M  V30 8 C -2.170848 3.092374 -0.143386 0
M  V30 9 C -2.746292 4.137684 0.567484 0
M  V30 10 C -4.118790 4.367901 0.582161 0
M  V30 11 C -4.910173 3.511270 -0.144293 0
M  V30 12 C -4.391981 2.454293 -0.870364 0
M  V30 13 C -1.307131 0.531041 -1.171866 0
M  V30 14 C -0.774903 -0.529327 -1.899509 0
M  V30 15 C 0.360984 -1.299708 -1.646739 0
M  V30 16 C 1.304690 -1.168753 -0.504860 0 CFG=1
M  V30 17 C 0.780999 -2.054571 0.591962 0
M  V30 18 C 1.697446 -2.186424 1.758703 0 CFG=1
M  V30 19 C 2.463100 -3.480556 1.547234 0
M  V30 20 C 3.466301 -3.283756 0.487573 0
M  V30 21 C 3.643236 -1.844828 0.125121 0 CFG=1
M  V30 22 C 2.673285 -1.515968 -0.966152 0
M  V30 23 S 3.099163 -1.080731 1.648385 0
M  V30 24 O 4.044372 -1.384629 2.767745 0
M  V30 25 O 2.752652 0.334830 1.529147 0
M  V30 26 C 0.379113 -2.176641 -2.688139 0
M  V30 27 N -0.655053 -1.989359 -3.539888 0
M  V30 28 C -1.378088 -0.968283 -3.059078 0
M  V30 29 H -3.598736 -2.506242 -5.747693 0
M  V30 30 H -3.574548 -2.546546 -5.791930 0
M  V30 31 H -3.997203 1.253943 -3.101349 0
M  V30 32 H -1.097270 2.959642 -0.119920 0
M  V30 33 H -2.175835 4.845916 1.158293 0
M  V30 34 H -4.563705 5.185773 1.139087 0
M  V30 35 H -5.983523 3.625163 -0.181931 0
M  V30 36 H -5.052705 1.799700 -1.431825 0
M  V30 37 H -0.814124 0.847980 -0.274722 0
M  V30 38 H 1.212301 -0.103825 -0.173198 0
M  V30 39 H -0.207267 -1.658875 0.873332 0
M  V30 40 H 0.567975 -3.039069 0.107706 0
M  V30 41 H 1.215919 -2.160803 2.739166 0
M  V30 42 H 2.915799 -3.724154 2.539952 0
M  V30 43 H 1.783203 -4.327108 1.312459 0
M  V30 44 H 3.321737 -3.866969 -0.444806 0
M  V30 45 H 4.458713 -3.629215 0.890911 0
M  V30 46 H 4.679996 -1.544395 -0.097293 0
M  V30 47 H 2.636467 -2.402169 -1.636245 0
M  V30 48 H 3.035538 -0.674758 -1.610057 0
M  V30 49 H 1.107424 -2.953330 -2.867848 0
M  V30 50 H -0.880841 -2.522113 -4.419207 0
M  V30 END ATOM
M  V30 BEGIN BOND
M  V30 1 1 1 2
M  V30 2 2 2 3
M  V30 3 1 2 4
M  V30 4 2 4 5
M  V30 5 1 5 6
M  V30 6 1 6 7
M  V30 7 2 7 8
M  V30 8 1 8 9
M  V30 9 2 9 10
M  V30 10 1 10 11
M  V30 11 2 11 12
M  V30 12 2 6 13
M  V30 13 1 13 14
M  V30 14 1 14 15
M  V30 15 1 15 16
M  V30 16 1 16 17
M  V30 17 1 17 18
M  V30 18 1 18 19
M  V30 19 1 19 20
M  V30 20 1 20 21
M  V30 21 1 21 22
M  V30 22 1 21 23
M  V30 23 2 23 24
M  V30 24 2 23 25
M  V30 25 2 15 26
M  V30 26 1 26 27
M  V30 27 1 27 28
M  V30 28 1 28 4
M  V30 29 1 12 7
M  V30 30 2 28 14
M  V30 31 1 22 16
M  V30 32 1 23 18
M  V30 33 1 1 29
M  V30 34 1 1 30
M  V30 35 1 5 31
M  V30 36 1 8 32
M  V30 37 1 9 33
M  V30 38 1 10 34
M  V30 39 1 11 35
M  V30 40 1 12 36
M  V30 41 1 13 37
M  V30 42 1 16 38 CFG=1
M  V30 43 1 17 39
M  V30 44 1 17 40
M  V30 45 1 18 41 CFG=1
M  V30 46 1 19 42
M  V30 47 1 19 43
M  V30 48 1 20 44
M  V30 49 1 20 45
M  V30 50 1 21 46 CFG=3
M  V30 51 1 22 47
M  V30 52 1 22 48
M  V30 53 1 26 49
M  V30 54 1 27 50
M  V30 END BOND
M  V30 END CTAB
M  END
>  <Dataset>  (415) 
ChEMBL_Kinases

>  <Ligand_Instance>  (415) 
nan

>  <PDB_ID>  (415) 
nan

>  <Standardized_SMILES>  (415) 
NC(=O)c1cc(-c2ccccc2)cc2c([C@H]3C[C@H]4CC[C@@H](C3)S4(=O)=O)c[nH]c12

>  <Name>  (415) 
nan

>  <Pocket>  (415) 
nan

>  <ATP_Site>  (415) 
nan

>  <Peripheral>  (415) 
nan

>  <Num_H_Atoms_ProtBoundConf>  (415) 
nan

>  <Num_Resolved_Atoms>  (415) 
nan

>  <Num_Not_Resolved_Atoms>  (415) 
nan

$$$$
CHEMBL452829
     RDKit          3D

  0  0  0  0  0  0  0  0  0  0999 V3000
M  V30 BEGIN CTAB
M  V30 COUNTS 53 58 0 0 0
M  V30 BEGIN ATOM
M  V30 1 O 3.649903 1.439390 3.092608 0
M  V30 2 C 2.926576 0.415807 3.198918 0
M  V30 3 N 2.745378 -0.439769 4.344950 0
M  V30 4 C 1.838193 -1.465961 3.997062 0
M  V30 5 O 1.586174 -2.281842 4.892109 0
M  V30 6 C 1.411965 -1.305981 2.633948 0
M  V30 7 C 2.066121 -0.195993 2.193506 0
M  V30 8 C 1.882818 0.256507 0.890442 0
M  V30 9 C 2.559819 1.438877 0.371797 0
M  V30 10 C 2.061244 2.728250 0.437213 0
M  V30 11 Cl 0.497259 2.900993 1.209811 0
M  V30 12 C 2.761411 3.803784 -0.077605 0
M  V30 13 C 3.995459 3.608536 -0.678577 0
M  V30 14 C 4.505699 2.327831 -0.751215 0
M  V30 15 C 3.796054 1.266103 -0.233584 0
M  V30 16 Cl 4.561915 -0.314423 -0.392695 0
M  V30 17 C 1.035235 -0.427675 0.052405 0
M  V30 18 C 0.382306 -1.548979 0.517052 0
M  V30 19 C 0.573673 -1.984049 1.807692 0
M  V30 20 C -0.172086 -3.100366 2.031248 0
M  V30 21 C -0.447938 -3.996396 3.016539 0
M  V30 22 C -1.294278 -5.069476 2.908201 0
M  V30 23 O -1.546959 -5.960209 3.941446 0
M  V30 24 C -1.945597 -5.287363 1.689044 0
M  V30 25 C -1.693227 -4.398159 0.657871 0
M  V30 26 C -0.824654 -3.336496 0.843056 0
M  V30 27 N -0.484970 -2.396747 -0.064520 0
M  V30 28 C -0.939898 -2.269857 -1.437480 0
M  V30 29 C -2.176118 -1.431357 -1.572261 0
M  V30 30 C -2.039399 -0.024744 -1.090609 0
M  V30 31 N -3.343860 0.616086 -1.308775 0
M  V30 32 C -4.415423 0.696209 -0.484583 0
M  V30 33 C -5.422064 1.382823 -1.084814 0
M  V30 34 N -4.960180 1.730110 -2.298523 0
M  V30 35 C -3.702005 1.269702 -2.442623 0
M  V30 36 H 3.272947 -0.212174 5.237000 0
M  V30 37 H 2.290999 4.789404 0.017954 0
M  V30 38 H 4.525032 4.460162 -1.073552 0
M  V30 39 H 5.470064 2.248649 -1.231608 0
M  V30 40 H 0.892056 -0.077023 -0.960202 0
M  V30 41 H -0.001128 -3.909835 3.970424 0
M  V30 42 H -1.541858 -5.734672 4.922000 0
M  V30 43 H -2.630131 -6.099085 1.496417 0
M  V30 44 H -2.188308 -4.554126 -0.286866 0
M  V30 45 H -0.180616 -1.855017 -2.108260 0
M  V30 46 H -1.200715 -3.277148 -1.827028 0
M  V30 47 H -2.418968 -1.403308 -2.652652 0
M  V30 48 H -3.054574 -1.868891 -1.056920 0
M  V30 49 H -1.309279 0.574617 -1.660948 0
M  V30 50 H -1.869229 -0.020136 -0.007731 0
M  V30 51 H -4.384723 0.245989 0.498869 0
M  V30 52 H -6.391239 1.597781 -0.659737 0
M  V30 53 H -3.122812 1.435665 -3.358609 0
M  V30 END ATOM
M  V30 BEGIN BOND
M  V30 1 2 1 2
M  V30 2 1 2 3
M  V30 3 1 3 4
M  V30 4 2 4 5
M  V30 5 1 4 6
M  V30 6 2 6 7
M  V30 7 1 7 8
M  V30 8 1 8 9
M  V30 9 2 9 10
M  V30 10 1 10 11
M  V30 11 1 10 12
M  V30 12 2 12 13
M  V30 13 1 13 14
M  V30 14 2 14 15
M  V30 15 1 15 16
M  V30 16 2 8 17
M  V30 17 1 17 18
M  V30 18 2 18 19
M  V30 19 1 19 20
M  V30 20 2 20 21
M  V30 21 1 21 22
M  V30 22 1 22 23
M  V30 23 2 22 24
M  V30 24 1 24 25
M  V30 25 2 25 26
M  V30 26 1 26 27
M  V30 27 1 27 28
M  V30 28 1 28 29
M  V30 29 1 29 30
M  V30 30 1 30 31
M  V30 31 1 31 32
M  V30 32 2 32 33
M  V30 33 1 33 34
M  V30 34 2 34 35
M  V30 35 1 7 2
M  V30 36 1 15 9
M  V30 37 1 27 18
M  V30 38 1 35 31
M  V30 39 1 19 6
M  V30 40 1 26 20
M  V30 41 1 3 36
M  V30 42 1 12 37
M  V30 43 1 13 38
M  V30 44 1 14 39
M  V30 45 1 17 40
M  V30 46 1 21 41
M  V30 47 1 23 42
M  V30 48 1 24 43
M  V30 49 1 25 44
M  V30 50 1 28 45
M  V30 51 1 28 46
M  V30 52 1 29 47
M  V30 53 1 29 48
M  V30 54 1 30 49
M  V30 55 1 30 50
M  V30 56 1 32 51
M  V30 57 1 33 52
M  V30 58 1 35 53
M  V30 END BOND
M  V30 END CTAB
M  END
>  <Dataset>  (416) 
ChEMBL_Kinases

>  <Ligand_Instance>  (416) 
nan

>  <PDB_ID>  (416) 
nan

>  <Standardized_SMILES>  (416) 
O=C1NC(=O)c2c1c(-c1c(Cl)cccc1Cl)cc1c2c2cc(O)ccc2n1CCCn1ccnc1

>  <Name>  (416) 
nan

>  <Pocket>  (416) 
nan

>  <ATP_Site>  (416) 
nan

>  <Peripheral>  (416) 
nan

>  <Num_H_Atoms_ProtBoundConf>  (416) 
nan

>  <Num_Resolved_Atoms>  (416) 
nan

>  <Num_Not_Resolved_Atoms>  (416) 
nan

$$$$
CHEMBL4528289
     RDKit          3D

  0  0  0  0  0  0  0  0  0  0999 V3000
M  V30 BEGIN CTAB
M  V30 COUNTS 52 55 0 0 0
M  V30 BEGIN ATOM
M  V30 1 C 4.320394 -5.325067 2.255350 0
M  V30 2 N 3.466468 -5.099308 1.084384 0
M  V30 3 C 3.151635 -6.237858 0.243317 0
M  V30 4 C 3.009008 -3.769870 0.861623 0
M  V30 5 C 3.729946 -2.849345 0.088641 0
M  V30 6 C 3.198054 -1.584165 -0.065744 0
M  V30 7 C 2.008712 -1.166103 0.487694 0
M  V30 8 C 1.467725 0.174193 0.313115 0
M  V30 9 C 2.139224 1.113566 -0.430099 0
M  V30 10 C 1.609844 2.374059 -0.578749 0
M  V30 11 N 2.242209 3.314071 -1.298927 0
M  V30 12 C 1.716521 4.540023 -1.437014 0
M  V30 13 C 0.519998 4.918727 -0.866072 0
M  V30 14 N -0.081086 3.949687 -0.153674 0
M  V30 15 C 0.416162 2.711140 0.005783 0
M  V30 16 C -0.266847 1.751564 0.763218 0
M  V30 17 N -1.490489 2.098973 1.386403 0
M  V30 18 C -2.478300 1.455770 2.205932 0
M  V30 19 C -3.339093 0.439748 1.549170 0 CFG=1
M  V30 20 C -4.158762 0.955729 0.387309 0
M  V30 21 C -4.652027 -0.268734 -0.357672 0
M  V30 22 C -4.693382 -1.488221 0.530508 0
M  V30 23 N -3.341240 -1.902807 0.841625 0
M  V30 24 C -2.513116 -0.723721 1.083667 0
M  V30 25 N 0.308488 0.554992 0.861025 0
M  V30 26 C 1.357730 -2.125819 1.233515 0
M  V30 27 N 1.838232 -3.382243 1.415227 0
M  V30 28 H 5.322218 -4.899025 2.145787 0
M  V30 29 H 3.828461 -4.733759 3.082329 0
M  V30 30 H 4.291383 -6.366356 2.613451 0
M  V30 31 H 2.824325 -5.885834 -0.773595 0
M  V30 32 H 2.273557 -6.755186 0.682163 0
M  V30 33 H 3.972442 -6.963881 0.185155 0
M  V30 34 H 4.667913 -3.145480 -0.360094 0
M  V30 35 H 3.788742 -0.933471 -0.660475 0
M  V30 36 H 3.080036 0.936529 -0.923251 0
M  V30 37 H 2.311150 5.216270 -2.038301 0
M  V30 38 H 0.126408 5.915664 -0.998627 0
M  V30 39 H -1.801720 3.110479 1.223489 0
M  V30 40 H -1.967441 0.889412 3.060280 0
M  V30 41 H -3.129448 2.163151 2.753789 0
M  V30 42 H -4.097751 0.130627 2.313974 0
M  V30 43 H -5.056283 1.500125 0.770154 0
M  V30 44 H -3.547668 1.590849 -0.257935 0
M  V30 45 H -5.719209 -0.100629 -0.685548 0
M  V30 46 H -4.071509 -0.491214 -1.266526 0
M  V30 47 H -5.146688 -2.322766 -0.032323 0
M  V30 48 H -5.294045 -1.277197 1.446389 0
M  V30 49 H -3.294437 -2.557959 1.654711 0
M  V30 50 H -2.125720 -0.445486 0.083348 0
M  V30 51 H -1.774171 -0.978604 1.837020 0
M  V30 52 H 0.417786 -1.921782 1.718767 0
M  V30 END ATOM
M  V30 BEGIN BOND
M  V30 1 1 1 2
M  V30 2 1 2 3
M  V30 3 1 2 4
M  V30 4 2 4 5
M  V30 5 1 5 6
M  V30 6 2 6 7
M  V30 7 1 7 8
M  V30 8 2 8 9
M  V30 9 1 9 10
M  V30 10 2 10 11
M  V30 11 1 11 12
M  V30 12 2 12 13
M  V30 13 1 13 14
M  V30 14 2 14 15
M  V30 15 1 15 16
M  V30 16 1 16 17
M  V30 17 1 17 18
M  V30 18 1 18 19
M  V30 19 1 19 20
M  V30 20 1 20 21
M  V30 21 1 21 22
M  V30 22 1 22 23
M  V30 23 1 23 24
M  V30 24 2 16 25
M  V30 25 1 7 26
M  V30 26 2 26 27
M  V30 27 1 27 4
M  V30 28 1 25 8
M  V30 29 1 15 10
M  V30 30 1 24 19
M  V30 31 1 1 28
M  V30 32 1 1 29
M  V30 33 1 1 30
M  V30 34 1 3 31
M  V30 35 1 3 32
M  V30 36 1 3 33
M  V30 37 1 5 34
M  V30 38 1 6 35
M  V30 39 1 9 36
M  V30 40 1 12 37
M  V30 41 1 13 38
M  V30 42 1 17 39
M  V30 43 1 18 40
M  V30 44 1 18 41
M  V30 45 1 19 42 CFG=1
M  V30 46 1 20 43
M  V30 47 1 20 44
M  V30 48 1 21 45
M  V30 49 1 21 46
M  V30 50 1 22 47
M  V30 51 1 22 48
M  V30 52 1 23 49
M  V30 53 1 24 50
M  V30 54 1 24 51
M  V30 55 1 26 52
M  V30 END BOND
M  V30 END CTAB
M  END
>  <Dataset>  (417) 
ChEMBL_Kinases

>  <Ligand_Instance>  (417) 
nan

>  <PDB_ID>  (417) 
nan

>  <Standardized_SMILES>  (417) 
CN(C)c1ccc(-c2cc3nccnc3c(NC[C@H]3CCCNC3)n2)cn1

>  <Name>  (417) 
nan

>  <Pocket>  (417) 
nan

>  <ATP_Site>  (417) 
nan

>  <Peripheral>  (417) 
nan

>  <Num_H_Atoms_ProtBoundConf>  (417) 
nan

>  <Num_Resolved_Atoms>  (417) 
nan

>  <Num_Not_Resolved_Atoms>  (417) 
nan

$$$$
CHEMBL4528271
     RDKit          3D

  0  0  0  0  0  0  0  0  0  0999 V3000
M  V30 BEGIN CTAB
M  V30 COUNTS 41 43 0 0 0
M  V30 BEGIN ATOM
M  V30 1 C 0.116870 -5.236358 0.692440 0
M  V30 2 C 0.937947 -3.999436 0.426051 0
M  V30 3 C 0.173876 -2.785501 0.906157 0
M  V30 4 C -0.099909 -2.893360 2.388595 0
M  V30 5 C -1.123811 -2.779839 0.108147 0
M  V30 6 N -1.989464 -1.674037 0.441956 0
M  V30 7 C 0.905877 -1.535595 0.665118 0
M  V30 8 C 2.134860 -1.726809 0.025154 0
M  V30 9 C 2.913610 -0.605479 -0.250047 0
M  V30 10 C 2.480836 0.650644 0.099975 0
M  V30 11 C 1.272823 0.863294 0.730735 0
M  V30 12 C 0.660385 2.115335 1.143758 0
M  V30 13 C 0.407227 2.134274 2.504017 0
M  V30 14 C -0.145354 3.281265 3.085815 0
M  V30 15 N -0.443743 4.388572 2.344722 0
M  V30 16 C -0.197882 4.359628 1.040364 0
M  V30 17 N -0.352229 5.207847 -0.005673 0
M  V30 18 N 0.059564 4.664258 -1.160050 0
M  V30 19 C 0.514133 3.407484 -0.926283 0
M  V30 20 Cl 1.129745 2.305104 -2.120510 0
M  V30 21 C 0.344515 3.250635 0.431515 0
M  V30 22 C 0.503527 -0.276357 0.999766 0
M  V30 23 H 0.829100 -6.110599 0.691145 0
M  V30 24 H -0.329940 -5.250576 1.707144 0
M  V30 25 H -0.643199 -5.462217 -0.052237 0
M  V30 26 H 1.079549 -3.915236 -0.671827 0
M  V30 27 H 1.911098 -4.146038 0.921141 0
M  V30 28 H -0.256598 -1.856471 2.807377 0
M  V30 29 H -0.945413 -3.532799 2.652627 0
M  V30 30 H 0.870514 -3.216160 2.860637 0
M  V30 31 H -0.924991 -2.719876 -0.980266 0
M  V30 32 H -1.651307 -3.740771 0.374390 0
M  V30 33 H -2.621926 -1.931807 1.229969 0
M  V30 34 H -2.533957 -1.323074 -0.376528 0
M  V30 35 H 2.622108 -2.629038 -0.315232 0
M  V30 36 H 3.884145 -0.631572 -0.742314 0
M  V30 37 H 3.065333 1.540447 -0.082235 0
M  V30 38 H 0.578540 1.351297 3.246473 0
M  V30 39 H -0.377170 3.382182 4.152285 0
M  V30 40 H -0.750108 6.187220 0.067698 0
M  V30 41 H -0.456347 -0.206530 1.493110 0
M  V30 END ATOM
M  V30 BEGIN BOND
M  V30 1 1 1 2
M  V30 2 1 2 3
M  V30 3 1 3 4
M  V30 4 1 3 5
M  V30 5 1 5 6
M  V30 6 1 3 7
M  V30 7 2 7 8
M  V30 8 1 8 9
M  V30 9 2 9 10
M  V30 10 1 10 11
M  V30 11 1 11 12
M  V30 12 2 12 13
M  V30 13 1 13 14
M  V30 14 2 14 15
M  V30 15 1 15 16
M  V30 16 1 16 17
M  V30 17 1 17 18
M  V30 18 2 18 19
M  V30 19 1 19 20
M  V30 20 1 19 21
M  V30 21 2 11 22
M  V30 22 1 22 7
M  V30 23 1 21 12
M  V30 24 2 21 16
M  V30 25 1 1 23
M  V30 26 1 1 24
M  V30 27 1 1 25
M  V30 28 1 2 26
M  V30 29 1 2 27
M  V30 30 1 4 28
M  V30 31 1 4 29
M  V30 32 1 4 30
M  V30 33 1 5 31
M  V30 34 1 5 32
M  V30 35 1 6 33
M  V30 36 1 6 34
M  V30 37 1 8 35
M  V30 38 1 9 36
M  V30 39 1 10 37
M  V30 40 1 13 38
M  V30 41 1 14 39
M  V30 42 1 17 40
M  V30 43 1 22 41
M  V30 END BOND
M  V30 END CTAB
M  END
>  <Dataset>  (418) 
ChEMBL_Kinases

>  <Ligand_Instance>  (418) 
nan

>  <PDB_ID>  (418) 
nan

>  <Standardized_SMILES>  (418) 
CCC(C)(CN)c1cccc(-c2ccnc3[nH]nc(Cl)c23)c1

>  <Name>  (418) 
nan

>  <Pocket>  (418) 
nan

>  <ATP_Site>  (418) 
nan

>  <Peripheral>  (418) 
nan

>  <Num_H_Atoms_ProtBoundConf>  (418) 
nan

>  <Num_Resolved_Atoms>  (418) 
nan

>  <Num_Not_Resolved_Atoms>  (418) 
nan

$$$$
CHEMBL4643895
     RDKit          3D

  0  0  0  0  0  0  0  0  0  0999 V3000
M  V30 BEGIN CTAB
M  V30 COUNTS 52 56 0 0 0
M  V30 BEGIN ATOM
M  V30 1 C 5.620824 -2.504469 6.597237 0
M  V30 2 C 6.162204 -1.225609 6.033221 0
M  V30 3 C 5.444361 -0.821367 4.781479 0
M  V30 4 C 5.804078 -1.195624 3.502580 0
M  V30 5 C 5.081918 -0.773907 2.409503 0
M  V30 6 C 3.975827 0.037759 2.574338 0
M  V30 7 N 3.229544 0.471061 1.429458 0
M  V30 8 C 2.713477 1.683212 1.111471 0
M  V30 9 C 2.074103 1.586229 -0.110350 0
M  V30 10 C 1.364006 2.700717 -0.833160 0
M  V30 11 S -0.389069 2.696521 -0.291687 0
M  V30 12 C -1.114087 1.177194 -0.885529 0
M  V30 13 N -1.087758 0.054776 -0.148161 0
M  V30 14 N -1.693946 -0.892196 -0.841111 0
M  V30 15 C -2.104018 -0.375479 -2.013182 0
M  V30 16 C -2.816231 -1.174435 -3.017787 0
M  V30 17 N -4.248648 -1.162308 -2.806694 0
M  V30 18 C -5.222397 -0.355658 -3.261728 0
M  V30 19 C -5.000822 0.790288 -4.159890 0
M  V30 20 F -5.451085 0.419825 -5.420165 0
M  V30 21 F -3.705901 1.170705 -4.299031 0
M  V30 22 F -5.820826 1.823362 -3.742170 0
M  V30 23 N -6.418084 -0.737054 -2.788438 0
M  V30 24 C -6.240634 -1.816087 -2.004506 0
M  V30 25 C -7.075869 -2.631927 -1.260338 0
M  V30 26 C -6.609143 -3.716933 -0.516699 0
M  V30 27 C -5.258566 -3.931658 -0.565880 0
M  V30 28 C -4.373965 -3.157059 -1.286673 0
M  V30 29 C -4.869607 -2.086882 -2.014545 0
M  V30 30 O -1.732419 0.883499 -2.000858 0
M  V30 31 N 2.229884 0.305743 -0.488085 0
M  V30 32 N 2.915749 -0.346492 0.431131 0
M  V30 33 C 3.541857 0.463554 3.830273 0
M  V30 34 C 4.330379 -0.012441 4.853352 0
M  V30 35 H 6.366473 -3.344397 6.488609 0
M  V30 36 H 4.688264 -2.850932 6.100008 0
M  V30 37 H 5.507090 -2.389362 7.693948 0
M  V30 38 H 5.985458 -0.414857 6.750813 0
M  V30 39 H 7.252439 -1.379475 5.831268 0
M  V30 40 H 6.679842 -1.834923 3.404997 0
M  V30 41 H 5.385449 -1.082851 1.405099 0
M  V30 42 H 2.810872 2.548635 1.738491 0
M  V30 43 H 1.847347 3.669407 -0.696467 0
M  V30 44 H 1.338070 2.409013 -1.901221 0
M  V30 45 H -2.551927 -0.790989 -4.039438 0
M  V30 46 H -2.417938 -2.224437 -3.000236 0
M  V30 47 H -8.143802 -2.444640 -1.234672 0
M  V30 48 H -7.255731 -4.357445 0.066261 0
M  V30 49 H -4.801140 -4.761639 -0.012540 0
M  V30 50 H -3.312082 -3.376173 -1.287257 0
M  V30 51 H 2.700006 1.086507 4.011328 0
M  V30 52 H 4.030516 0.295158 5.867325 0
M  V30 END ATOM
M  V30 BEGIN BOND
M  V30 1 1 1 2
M  V30 2 1 2 3
M  V30 3 2 3 4
M  V30 4 1 4 5
M  V30 5 2 5 6
M  V30 6 1 6 7
M  V30 7 1 7 8
M  V30 8 2 8 9
M  V30 9 1 9 10
M  V30 10 1 10 11
M  V30 11 1 11 12
M  V30 12 2 12 13
M  V30 13 1 13 14
M  V30 14 2 14 15
M  V30 15 1 15 16
M  V30 16 1 16 17
M  V30 17 1 17 18
M  V30 18 1 18 19
M  V30 19 1 19 20
M  V30 20 1 19 21
M  V30 21 1 19 22
M  V30 22 2 18 23
M  V30 23 1 23 24
M  V30 24 2 24 25
M  V30 25 1 25 26
M  V30 26 2 26 27
M  V30 27 1 27 28
M  V30 28 2 28 29
M  V30 29 1 15 30
M  V30 30 1 9 31
M  V30 31 2 31 32
M  V30 32 1 6 33
M  V30 33 2 33 34
M  V30 34 1 34 3
M  V30 35 1 32 7
M  V30 36 1 30 12
M  V30 37 1 29 17
M  V30 38 1 29 24
M  V30 39 1 1 35
M  V30 40 1 1 36
M  V30 41 1 1 37
M  V30 42 1 2 38
M  V30 43 1 2 39
M  V30 44 1 4 40
M  V30 45 1 5 41
M  V30 46 1 8 42
M  V30 47 1 10 43
M  V30 48 1 10 44
M  V30 49 1 16 45
M  V30 50 1 16 46
M  V30 51 1 25 47
M  V30 52 1 26 48
M  V30 53 1 27 49
M  V30 54 1 28 50
M  V30 55 1 33 51
M  V30 56 1 34 52
M  V30 END BOND
M  V30 END CTAB
M  END
>  <Dataset>  (419) 
ChEMBL_Kinases

>  <Ligand_Instance>  (419) 
nan

>  <PDB_ID>  (419) 
nan

>  <Standardized_SMILES>  (419) 
CCc1ccc(-n2cc(CSc3nnc(Cn4c(C(F)(F)F)nc5ccccc54)o3)nn2)cc1

>  <Name>  (419) 
nan

>  <Pocket>  (419) 
nan

>  <ATP_Site>  (419) 
nan

>  <Peripheral>  (419) 
nan

>  <Num_H_Atoms_ProtBoundConf>  (419) 
nan

>  <Num_Resolved_Atoms>  (419) 
nan

>  <Num_Not_Resolved_Atoms>  (419) 
nan

$$$$
CHEMBL4527984
     RDKit          3D

  0  0  0  0  0  0  0  0  0  0999 V3000
M  V30 BEGIN CTAB
M  V30 COUNTS 44 47 0 0 0
M  V30 BEGIN ATOM
M  V30 1 O -0.975990 -2.954620 3.020799 0
M  V30 2 C -1.015075 -1.782449 2.566650 0
M  V30 3 C 0.144098 -1.293788 1.811275 0
M  V30 4 C 1.192687 -2.048963 1.612211 0
M  V30 5 C 2.402204 -1.685395 0.883557 0
M  V30 6 C 3.459051 -2.588179 0.745128 0
M  V30 7 N 4.576080 -2.255610 0.074221 0
M  V30 8 C 4.727790 -1.044886 -0.492031 0
M  V30 9 N 5.754070 -0.543724 -1.186879 0
M  V30 10 C 5.431791 0.710993 -1.543351 0
M  V30 11 C 4.158944 1.035538 -1.066653 0
M  V30 12 C 3.421105 2.282919 -1.226071 0
M  V30 13 C 3.886776 3.573588 -1.045099 0
M  V30 14 C 3.041051 4.645908 -1.245590 0
M  V30 15 C 1.722276 4.495446 -1.626485 0
M  V30 16 N 1.302786 3.228340 -1.793418 0
M  V30 17 C 2.094368 2.156099 -1.608387 0
M  V30 18 C 3.731707 -0.096582 -0.401354 0
M  V30 19 C 2.590305 -0.452752 0.290888 0
M  V30 20 N -2.145630 -0.937688 2.770048 0
M  V30 21 C -3.326205 -1.305475 3.487006 0
M  V30 22 C -4.248919 -2.200033 2.762553 0
M  V30 23 C -5.243913 -1.623189 1.964884 0
M  V30 24 C -6.192287 -2.318145 1.218702 0
M  V30 25 N -6.100697 -3.674120 1.306973 0
M  V30 26 C -5.150805 -4.245630 2.068770 0
M  V30 27 C -4.208298 -3.577675 2.810613 0
M  V30 28 H 0.167539 -0.295813 1.396272 0
M  V30 29 H 1.143573 -3.042243 2.037759 0
M  V30 30 H 3.326363 -3.562470 1.205755 0
M  V30 31 H 6.647843 -1.048915 -1.408583 0
M  V30 32 H 6.070038 1.386283 -2.123496 0
M  V30 33 H 4.924127 3.637145 -0.747201 0
M  V30 34 H 3.442925 5.648484 -1.093555 0
M  V30 35 H 1.085643 5.367593 -1.774670 0
M  V30 36 H 1.531386 1.254135 -1.804564 0
M  V30 37 H 1.816590 0.287859 0.361399 0
M  V30 38 H -2.062859 0.031918 2.338463 0
M  V30 39 H -3.888166 -0.383030 3.736158 0
M  V30 40 H -3.091002 -1.759003 4.492049 0
M  V30 41 H -5.284615 -0.530349 1.919939 0
M  V30 42 H -6.909608 -1.766324 0.642019 0
M  V30 43 H -5.088442 -5.344592 2.130745 0
M  V30 44 H -3.462718 -4.051429 3.410135 0
M  V30 END ATOM
M  V30 BEGIN BOND
M  V30 1 2 1 2
M  V30 2 1 2 3
M  V30 3 2 3 4
M  V30 4 1 4 5
M  V30 5 2 5 6
M  V30 6 1 6 7
M  V30 7 2 7 8
M  V30 8 1 8 9
M  V30 9 1 9 10
M  V30 10 2 10 11
M  V30 11 1 11 12
M  V30 12 2 12 13
M  V30 13 1 13 14
M  V30 14 2 14 15
M  V30 15 1 15 16
M  V30 16 2 16 17
M  V30 17 1 11 18
M  V30 18 2 18 19
M  V30 19 1 2 20
M  V30 20 1 20 21
M  V30 21 1 21 22
M  V30 22 2 22 23
M  V30 23 1 23 24
M  V30 24 2 24 25
M  V30 25 1 25 26
M  V30 26 2 26 27
M  V30 27 1 19 5
M  V30 28 1 27 22
M  V30 29 1 18 8
M  V30 30 1 17 12
M  V30 31 1 3 28
M  V30 32 1 4 29
M  V30 33 1 6 30
M  V30 34 1 9 31
M  V30 35 1 10 32
M  V30 36 1 13 33
M  V30 37 1 14 34
M  V30 38 1 15 35
M  V30 39 1 17 36
M  V30 40 1 19 37
M  V30 41 1 20 38
M  V30 42 1 21 39
M  V30 43 1 21 40
M  V30 44 1 23 41
M  V30 45 1 24 42
M  V30 46 1 26 43
M  V30 47 1 27 44
M  V30 END BOND
M  V30 END CTAB
M  END
>  <Dataset>  (420) 
ChEMBL_Kinases

>  <Ligand_Instance>  (420) 
nan

>  <PDB_ID>  (420) 
nan

>  <Standardized_SMILES>  (420) 
O=C(/C=C/c1cnc2[nH]cc(-c3cccnc3)c2c1)NCc1ccncc1

>  <Name>  (420) 
nan

>  <Pocket>  (420) 
nan

>  <ATP_Site>  (420) 
nan

>  <Peripheral>  (420) 
nan

>  <Num_H_Atoms_ProtBoundConf>  (420) 
nan

>  <Num_Resolved_Atoms>  (420) 
nan

>  <Num_Not_Resolved_Atoms>  (420) 
nan

$$$$
CHEMBL4527978
     RDKit          3D

  0  0  0  0  0  0  0  0  0  0999 V3000
M  V30 BEGIN CTAB
M  V30 COUNTS 41 43 0 0 0
M  V30 BEGIN ATOM
M  V30 1 C -0.097064 -5.028799 -0.882610 0
M  V30 2 C 0.943231 -3.984160 -1.253722 0
M  V30 3 C 1.064449 -3.001608 -0.145091 0
M  V30 4 N 1.964279 -2.101398 -0.144725 0
M  V30 5 C 2.069249 -1.154465 0.938974 0
M  V30 6 C 3.157389 -1.269188 1.811976 0
M  V30 7 C 4.236636 -2.218334 1.806259 0
M  V30 8 N 5.093457 -2.990334 1.792937 0
M  V30 9 C 2.954624 -0.238021 2.702874 0
M  V30 10 N 1.845794 0.475474 2.435969 0
M  V30 11 C 1.287173 -0.073759 1.352987 0
M  V30 12 C 0.110840 0.212291 0.576635 0
M  V30 13 O -0.219087 -0.478439 -0.420215 0
M  V30 14 N -0.796194 1.272811 0.826350 0
M  V30 15 C -1.874230 1.316192 -0.105312 0
M  V30 16 C -1.852628 2.009960 -1.269922 0
M  V30 17 C -2.917925 2.030414 -2.152461 0
M  V30 18 C -4.053623 1.311735 -1.831941 0
M  V30 19 C -4.125906 0.590104 -0.660196 0
M  V30 20 C -3.025100 0.609366 0.182946 0
M  V30 21 C 1.650249 1.547320 3.378247 0
M  V30 22 C 2.467791 1.090397 4.570768 0
M  V30 23 C 3.603955 0.348323 3.904338 0
M  V30 24 H -0.885866 -5.147477 -1.659761 0
M  V30 25 H 0.373421 -6.012258 -0.624706 0
M  V30 26 H -0.626644 -4.708518 0.054782 0
M  V30 27 H 0.588400 -3.525455 -2.200480 0
M  V30 28 H 1.894441 -4.505503 -1.475219 0
M  V30 29 H 0.397048 -3.008035 0.705758 0
M  V30 30 H -0.630045 1.918596 1.626779 0
M  V30 31 H -0.972512 2.577811 -1.536882 0
M  V30 32 H -2.882373 2.594304 -3.084720 0
M  V30 33 H -4.928667 1.282610 -2.478638 0
M  V30 34 H -5.034184 0.026373 -0.422661 0
M  V30 35 H -3.116062 0.040227 1.080065 0
M  V30 36 H 0.592350 1.727175 3.655900 0
M  V30 37 H 2.119563 2.491860 3.016445 0
M  V30 38 H 1.882805 0.352910 5.158358 0
M  V30 39 H 2.858427 1.927580 5.182057 0
M  V30 40 H 4.029346 -0.438553 4.580072 0
M  V30 41 H 4.406027 1.034420 3.562867 0
M  V30 END ATOM
M  V30 BEGIN BOND
M  V30 1 1 1 2
M  V30 2 1 2 3
M  V30 3 2 3 4
M  V30 4 1 4 5
M  V30 5 1 5 6
M  V30 6 1 6 7
M  V30 7 3 7 8
M  V30 8 2 6 9
M  V30 9 1 9 10
M  V30 10 1 10 11
M  V30 11 1 11 12
M  V30 12 2 12 13
M  V30 13 1 12 14
M  V30 14 1 14 15
M  V30 15 2 15 16
M  V30 16 1 16 17
M  V30 17 2 17 18
M  V30 18 1 18 19
M  V30 19 2 19 20
M  V30 20 1 10 21
M  V30 21 1 21 22
M  V30 22 1 22 23
M  V30 23 2 11 5
M  V30 24 1 20 15
M  V30 25 1 23 9
M  V30 26 1 1 24
M  V30 27 1 1 25
M  V30 28 1 1 26
M  V30 29 1 2 27
M  V30 30 1 2 28
M  V30 31 1 3 29
M  V30 32 1 14 30
M  V30 33 1 16 31
M  V30 34 1 17 32
M  V30 35 1 18 33
M  V30 36 1 19 34
M  V30 37 1 20 35
M  V30 38 1 21 36
M  V30 39 1 21 37
M  V30 40 1 22 38
M  V30 41 1 22 39
M  V30 42 1 23 40
M  V30 43 1 23 41
M  V30 END BOND
M  V30 END CTAB
M  END
>  <Dataset>  (421) 
ChEMBL_Kinases

>  <Ligand_Instance>  (421) 
nan

>  <PDB_ID>  (421) 
nan

>  <Standardized_SMILES>  (421) 
CC/C=N/c1c(C#N)c2n(c1C(=O)Nc1ccccc1)CCC2

>  <Name>  (421) 
nan

>  <Pocket>  (421) 
nan

>  <ATP_Site>  (421) 
nan

>  <Peripheral>  (421) 
nan

>  <Num_H_Atoms_ProtBoundConf>  (421) 
nan

>  <Num_Resolved_Atoms>  (421) 
nan

>  <Num_Not_Resolved_Atoms>  (421) 
nan

$$$$
CHEMBL4527920
     RDKit          3D

  0  0  0  0  0  0  0  0  0  0999 V3000
M  V30 BEGIN CTAB
M  V30 COUNTS 46 49 0 0 0
M  V30 BEGIN ATOM
M  V30 1 C 0.926268 -5.764115 1.190293 0
M  V30 2 C 0.857870 -4.297848 1.115153 0
M  V30 3 C 1.797153 -3.420309 1.657964 0
M  V30 4 C 1.675282 -2.037195 1.552595 0
M  V30 5 O 2.761055 -1.454495 2.190148 0
M  V30 6 C 0.572031 -1.476349 0.877879 0
M  V30 7 C 0.790746 -0.088729 0.974456 0
M  V30 8 C 1.506416 0.780574 0.095239 0
M  V30 9 C 1.693280 2.113105 0.400184 0
M  V30 10 C 1.168582 2.589626 1.583318 0
M  V30 11 C 1.423932 4.041346 1.821529 0 CFG=1
M  V30 12 C 2.847399 4.276847 2.279788 0
M  V30 13 N 1.169668 4.812546 0.630827 0
M  V30 14 C 0.466597 1.813096 2.482546 0
M  V30 15 C 0.284016 0.481182 2.170128 0
M  V30 16 C -0.317770 -2.370018 0.365325 0
M  V30 17 C -0.214871 -3.731511 0.458721 0
M  V30 18 N -1.142881 -4.516173 -0.079413 0
M  V30 19 C -2.210674 -4.030853 -0.730764 0
M  V30 20 O -3.081781 -4.781825 -1.235672 0
M  V30 21 C -2.309163 -2.655008 -0.821561 0
M  V30 22 C -3.408386 -2.169976 -1.490071 0
M  V30 23 C -3.520431 -0.800230 -1.587117 0
M  V30 24 C -2.598407 0.111705 -1.055201 0
M  V30 25 C -1.551040 -0.504577 -0.414907 0
M  V30 26 C -1.381094 -1.836978 -0.284186 0
M  V30 27 H 0.988415 -6.265066 0.192532 0
M  V30 28 H 1.895587 -6.027559 1.696155 0
M  V30 29 H 0.117310 -6.178408 1.813107 0
M  V30 30 H 2.588125 -3.976151 2.145309 0
M  V30 31 H 2.782554 -1.209260 3.166151 0
M  V30 32 H 1.848955 0.249515 -0.783494 0
M  V30 33 H 2.242199 2.693656 -0.315870 0
M  V30 34 H 0.747331 4.366960 2.632633 0
M  V30 35 H 2.981209 5.378957 2.311379 0
M  V30 36 H 3.590864 3.885506 1.565723 0
M  V30 37 H 3.039355 3.846225 3.277745 0
M  V30 38 H 0.267605 4.532807 0.231919 0
M  V30 39 H 1.259727 5.821387 0.884343 0
M  V30 40 H 0.077366 2.240710 3.396056 0
M  V30 41 H -0.272151 -0.081312 2.907992 0
M  V30 42 H -1.056739 -5.555095 -0.003705 0
M  V30 43 H -4.135805 -2.837950 -1.910821 0
M  V30 44 H -4.405995 -0.464885 -2.124542 0
M  V30 45 H -2.877828 1.136562 -1.244812 0
M  V30 46 H -0.993588 0.313095 -0.097102 0
M  V30 END ATOM
M  V30 BEGIN BOND
M  V30 1 1 1 2
M  V30 2 2 2 3
M  V30 3 1 3 4
M  V30 4 1 4 5
M  V30 5 2 4 6
M  V30 6 1 6 7
M  V30 7 2 7 8
M  V30 8 1 8 9
M  V30 9 2 9 10
M  V30 10 1 10 11
M  V30 11 1 11 12
M  V30 12 1 11 13
M  V30 13 1 10 14
M  V30 14 2 14 15
M  V30 15 1 6 16
M  V30 16 2 16 17
M  V30 17 1 17 18
M  V30 18 1 18 19
M  V30 19 2 19 20
M  V30 20 1 19 21
M  V30 21 2 21 22
M  V30 22 1 22 23
M  V30 23 2 23 24
M  V30 24 1 24 25
M  V30 25 2 25 26
M  V30 26 1 17 2
M  V30 27 1 26 21
M  V30 28 1 15 7
M  V30 29 1 26 16
M  V30 30 1 1 27
M  V30 31 1 1 28
M  V30 32 1 1 29
M  V30 33 1 3 30
M  V30 34 1 5 31
M  V30 35 1 8 32
M  V30 36 1 9 33
M  V30 37 1 11 34 CFG=1
M  V30 38 1 12 35
M  V30 39 1 12 36
M  V30 40 1 12 37
M  V30 41 1 13 38
M  V30 42 1 13 39
M  V30 43 1 14 40
M  V30 44 1 15 41
M  V30 45 1 18 42
M  V30 46 1 22 43
M  V30 47 1 23 44
M  V30 48 1 24 45
M  V30 49 1 25 46
M  V30 END BOND
M  V30 END CTAB
M  END
>  <Dataset>  (422) 
ChEMBL_Kinases

>  <Ligand_Instance>  (422) 
nan

>  <PDB_ID>  (422) 
nan

>  <Standardized_SMILES>  (422) 
Cc1cc(O)c(-c2ccc([C@@H](C)N)cc2)c2c1[nH]c(=O)c1ccccc12

>  <Name>  (422) 
nan

>  <Pocket>  (422) 
nan

>  <ATP_Site>  (422) 
nan

>  <Peripheral>  (422) 
nan

>  <Num_H_Atoms_ProtBoundConf>  (422) 
nan

>  <Num_Resolved_Atoms>  (422) 
nan

>  <Num_Not_Resolved_Atoms>  (422) 
nan

$$$$
CHEMBL4643900
     RDKit          3D

  0  0  0  0  0  0  0  0  0  0999 V3000
M  V30 BEGIN CTAB
M  V30 COUNTS 49 52 0 0 0
M  V30 BEGIN ATOM
M  V30 1 C -3.410427 -1.948764 -0.228996 0
M  V30 2 C -2.346772 -2.094534 0.808185 0
M  V30 3 C -1.291618 -1.182501 0.762118 0
M  V30 4 C -0.227378 -1.139439 1.688626 0
M  V30 5 C 0.756466 -0.121152 1.415085 0
M  V30 6 C 0.768733 1.034398 2.177251 0
M  V30 7 N 1.766630 1.813885 1.746764 0
M  V30 8 C 2.430886 1.231802 0.724631 0
M  V30 9 C 3.542956 1.484244 -0.124702 0
M  V30 10 N 3.968086 2.790140 0.274851 0
M  V30 11 C 4.734648 3.976486 0.310269 0
M  V30 12 C 4.129242 4.933248 1.394507 0
M  V30 13 C 4.972750 6.186394 1.396774 0
M  V30 14 F 6.281878 5.809917 1.711557 0
M  V30 15 F 4.496155 7.015842 2.387630 0
M  V30 16 F 4.905549 6.774534 0.172829 0
M  V30 17 N 3.903314 0.565806 -1.036377 0
M  V30 18 C 3.256252 -0.594956 -1.190786 0
M  V30 19 C 2.196253 -0.773640 -0.347020 0
M  V30 20 N 1.775715 0.081873 0.580242 0
M  V30 21 C -0.280331 -2.084814 2.685567 0
M  V30 22 C -1.296249 -3.007640 2.775105 0
M  V30 23 C -2.327927 -3.027727 1.853747 0
M  V30 24 C -3.442361 -3.958774 1.840212 0
M  V30 25 O -3.980967 -4.105684 2.984670 0
M  V30 26 N -3.865474 -4.626573 0.657943 0
M  V30 27 C -4.953557 -5.569159 0.516663 0
M  V30 28 C -5.793332 -5.521066 -0.733252 0
M  V30 29 C -4.795249 -6.581131 -0.567774 0
M  V30 30 H -4.364707 -2.333822 0.122517 0
M  V30 31 H -3.051727 -2.278748 -1.202524 0
M  V30 32 H -3.585911 -0.830659 -0.335402 0
M  V30 33 H -1.316309 -0.449777 -0.062584 0
M  V30 34 H 0.120559 1.349142 3.011940 0
M  V30 35 H 4.705278 2.627419 -0.482749 0
M  V30 36 H 5.748853 3.780307 0.769213 0
M  V30 37 H 4.791406 4.589554 -0.602291 0
M  V30 38 H 3.095293 5.201365 1.124748 0
M  V30 39 H 4.210617 4.479665 2.393910 0
M  V30 40 H 3.688284 -1.188706 -1.963356 0
M  V30 41 H 1.722128 -1.715889 -0.519362 0
M  V30 42 H 0.538457 -2.027681 3.373255 0
M  V30 43 H -1.313703 -3.736909 3.556866 0
M  V30 44 H -3.330624 -4.423490 -0.212037 0
M  V30 45 H -5.523945 -5.888262 1.402629 0
M  V30 46 H -5.581061 -4.705661 -1.482437 0
M  V30 47 H -6.869930 -5.727918 -0.679077 0
M  V30 48 H -5.090484 -7.644648 -0.380148 0
M  V30 49 H -3.873448 -6.543744 -1.223832 0
M  V30 END ATOM
M  V30 BEGIN BOND
M  V30 1 1 1 2
M  V30 2 2 2 3
M  V30 3 1 3 4
M  V30 4 1 4 5
M  V30 5 2 5 6
M  V30 6 1 6 7
M  V30 7 2 7 8
M  V30 8 1 8 9
M  V30 9 1 9 10
M  V30 10 1 10 11
M  V30 11 1 11 12
M  V30 12 1 12 13
M  V30 13 1 13 14
M  V30 14 1 13 15
M  V30 15 1 13 16
M  V30 16 2 9 17
M  V30 17 1 17 18
M  V30 18 2 18 19
M  V30 19 1 19 20
M  V30 20 2 4 21
M  V30 21 1 21 22
M  V30 22 2 22 23
M  V30 23 1 23 24
M  V30 24 2 24 25
M  V30 25 1 24 26
M  V30 26 1 26 27
M  V30 27 1 27 28
M  V30 28 1 28 29
M  V30 29 1 23 2
M  V30 30 1 29 27
M  V30 31 1 20 5
M  V30 32 1 20 8
M  V30 33 1 1 30
M  V30 34 1 1 31
M  V30 35 1 1 32
M  V30 36 1 3 33
M  V30 37 1 6 34
M  V30 38 1 10 35
M  V30 39 1 11 36
M  V30 40 1 11 37
M  V30 41 1 12 38
M  V30 42 1 12 39
M  V30 43 1 18 40
M  V30 44 1 19 41
M  V30 45 1 21 42
M  V30 46 1 22 43
M  V30 47 1 26 44
M  V30 48 1 27 45
M  V30 49 1 28 46
M  V30 50 1 28 47
M  V30 51 1 29 48
M  V30 52 1 29 49
M  V30 END BOND
M  V30 END CTAB
M  END
>  <Dataset>  (423) 
ChEMBL_Kinases

>  <Ligand_Instance>  (423) 
nan

>  <PDB_ID>  (423) 
nan

>  <Standardized_SMILES>  (423) 
Cc1cc(-c2cnc3c(NCCC(F)(F)F)nccn23)ccc1C(=O)NC1CC1

>  <Name>  (423) 
nan

>  <Pocket>  (423) 
nan

>  <ATP_Site>  (423) 
nan

>  <Peripheral>  (423) 
nan

>  <Num_H_Atoms_ProtBoundConf>  (423) 
nan

>  <Num_Resolved_Atoms>  (423) 
nan

>  <Num_Not_Resolved_Atoms>  (423) 
nan

$$$$
CHEMBL4527745
     RDKit          3D

  0  0  0  0  0  0  0  0  0  0999 V3000
M  V30 BEGIN CTAB
M  V30 COUNTS 36 39 0 0 0
M  V30 BEGIN ATOM
M  V30 1 C -0.635203 -4.267739 0.878626 0
M  V30 2 C -0.350612 -3.404691 -0.363762 0
M  V30 3 N 0.219421 -2.125324 -0.082673 0
M  V30 4 C 0.073741 -0.828315 0.422795 0
M  V30 5 N 1.137143 0.030154 0.452855 0
M  V30 6 C 1.066501 1.273807 0.915492 0
M  V30 7 C 2.300703 2.049373 0.871751 0
M  V30 8 C 3.444172 1.469753 0.367362 0
M  V30 9 C 4.561716 2.314230 0.378612 0
M  V30 10 N 4.566094 3.585443 0.831737 0
M  V30 11 C 3.394426 4.077073 1.312014 0
M  V30 12 F 3.358732 5.349419 1.775965 0
M  V30 13 C 2.207379 3.336924 1.356114 0
M  V30 14 F 1.066496 3.868980 1.842831 0
M  V30 15 N -0.100092 1.731511 1.382259 0
M  V30 16 C -1.229559 1.005560 1.416098 0
M  V30 17 C -2.430247 1.489401 1.893551 0
M  V30 18 N -3.537310 0.689744 1.886747 0
M  V30 19 C -3.438276 -0.583164 1.404706 0
M  V30 20 C -2.220002 -1.023602 0.938601 0
M  V30 21 C -1.075250 -0.271752 0.919543 0
M  V30 22 C -1.221249 -3.606332 -1.557040 0
M  V30 23 C 0.130199 -4.210288 -1.571319 0
M  V30 24 H 0.004253 -3.898355 1.705554 0
M  V30 25 H -1.686858 -4.275190 1.157873 0
M  V30 26 H -0.278171 -5.326094 0.711403 0
M  V30 27 H 1.211064 -2.304358 -0.426748 0
M  V30 28 H 3.504868 0.469834 -0.005738 0
M  V30 29 H 5.524785 1.960904 0.001986 0
M  V30 30 H -2.390864 2.505253 2.248110 0
M  V30 31 H -4.339293 -1.185321 1.416291 0
M  V30 32 H -2.233034 -2.013477 0.577141 0
M  V30 33 H -2.111211 -4.256203 -1.426446 0
M  V30 34 H -1.430395 -2.727607 -2.199543 0
M  V30 35 H 0.920201 -3.722202 -2.195817 0
M  V30 36 H 0.229399 -5.304219 -1.441949 0
M  V30 END ATOM
M  V30 BEGIN BOND
M  V30 1 1 1 2
M  V30 2 1 2 3
M  V30 3 1 3 4
M  V30 4 2 4 5
M  V30 5 1 5 6
M  V30 6 1 6 7
M  V30 7 2 7 8
M  V30 8 1 8 9
M  V30 9 2 9 10
M  V30 10 1 10 11
M  V30 11 1 11 12
M  V30 12 2 11 13
M  V30 13 1 13 14
M  V30 14 2 6 15
M  V30 15 1 15 16
M  V30 16 2 16 17
M  V30 17 1 17 18
M  V30 18 2 18 19
M  V30 19 1 19 20
M  V30 20 2 20 21
M  V30 21 1 2 22
M  V30 22 1 22 23
M  V30 23 1 23 2
M  V30 24 1 21 4
M  V30 25 1 13 7
M  V30 26 1 21 16
M  V30 27 1 1 24
M  V30 28 1 1 25
M  V30 29 1 1 26
M  V30 30 1 3 27
M  V30 31 1 8 28
M  V30 32 1 9 29
M  V30 33 1 17 30
M  V30 34 1 19 31
M  V30 35 1 20 32
M  V30 36 1 22 33
M  V30 37 1 22 34
M  V30 38 1 23 35
M  V30 39 1 23 36
M  V30 END BOND
M  V30 END CTAB
M  END
>  <Dataset>  (424) 
ChEMBL_Kinases

>  <Ligand_Instance>  (424) 
nan

>  <PDB_ID>  (424) 
nan

>  <Standardized_SMILES>  (424) 
CC1(Nc2nc(-c3ccnc(F)c3F)nc3cnccc23)CC1

>  <Name>  (424) 
nan

>  <Pocket>  (424) 
nan

>  <ATP_Site>  (424) 
nan

>  <Peripheral>  (424) 
nan

>  <Num_H_Atoms_ProtBoundConf>  (424) 
nan

>  <Num_Resolved_Atoms>  (424) 
nan

>  <Num_Not_Resolved_Atoms>  (424) 
nan

$$$$
CHEMBL4528363
     RDKit          3D

  0  0  0  0  0  0  0  0  0  0999 V3000
M  V30 BEGIN CTAB
M  V30 COUNTS 56 60 0 0 0
M  V30 BEGIN ATOM
M  V30 1 C 3.144728 0.429378 4.400737 0
M  V30 2 C 2.706522 -0.806653 3.643282 0
M  V30 3 C 2.101879 -1.755979 4.680817 0
M  V30 4 N 3.898277 -1.447865 3.124165 0
M  V30 5 C 1.734124 -0.488403 2.577909 0
M  V30 6 C 0.365094 -0.477043 2.793002 0
M  V30 7 C -0.450889 -0.165168 1.721527 0
M  V30 8 C 0.044842 0.137462 0.437545 0
M  V30 9 N -0.903219 0.381763 -0.549802 0
M  V30 10 C -1.499397 1.460235 -1.000838 0
M  V30 11 C -1.428940 2.853369 -0.668574 0
M  V30 12 C -2.223168 3.729618 -1.379255 0
M  V30 13 C -2.227456 5.080899 -1.139457 0
M  V30 14 C -1.447498 5.671970 -0.178908 0
M  V30 15 N -0.671612 4.830258 0.518091 0
M  V30 16 C -0.696858 3.533329 0.255840 0
M  V30 17 N 0.187622 2.838871 1.100048 0
M  V30 18 N -2.300723 0.985112 -1.962380 0
M  V30 19 C -2.211854 -0.335345 -2.109106 0
M  V30 20 C -2.914817 -1.102757 -3.017431 0
M  V30 21 C -2.636321 -2.473132 -2.966659 0
M  V30 22 C -1.716488 -2.921629 -2.046403 0
M  V30 23 C -1.383595 -4.335205 -1.943318 0
M  V30 24 C -1.935772 -5.317400 -2.727486 0
M  V30 25 C -1.614531 -6.658287 -2.622372 0
M  V30 26 C -0.675704 -7.067125 -1.670759 0
M  V30 27 C -0.096217 -6.113892 -0.861995 0
M  V30 28 C -0.465736 -4.797332 -1.024425 0
M  V30 29 N -1.096364 -2.073967 -1.213722 0
M  V30 30 C -1.286545 -0.744467 -1.175576 0
M  V30 31 C 1.437917 0.124053 0.225741 0
M  V30 32 C 2.221000 -0.191674 1.318607 0
M  V30 33 H 3.721119 0.091135 5.289174 0
M  V30 34 H 2.190619 0.869965 4.803401 0
M  V30 35 H 3.691341 1.149833 3.784300 0
M  V30 36 H 1.314132 -1.177855 5.205611 0
M  V30 37 H 1.591513 -2.604462 4.190849 0
M  V30 38 H 2.839894 -2.067068 5.421436 0
M  V30 39 H 3.866724 -2.484419 3.292753 0
M  V30 40 H 4.780852 -1.029289 3.477487 0
M  V30 41 H -0.036671 -0.702479 3.755929 0
M  V30 42 H -1.528998 -0.164531 1.922280 0
M  V30 43 H -2.899582 3.390046 -2.180622 0
M  V30 44 H -2.879938 5.691005 -1.743238 0
M  V30 45 H -1.523187 6.731116 -0.070271 0
M  V30 46 H -0.214018 2.754398 2.079848 0
M  V30 47 H -0.098215 2.690428 2.098303 0
M  V30 48 H -3.614462 -0.671382 -3.700920 0
M  V30 49 H -3.157820 -3.119878 -3.654960 0
M  V30 50 H -2.662943 -5.065982 -3.476381 0
M  V30 51 H -2.063772 -7.414613 -3.252515 0
M  V30 52 H -0.389771 -8.101351 -1.547929 0
M  V30 53 H 0.627450 -6.428891 -0.128441 0
M  V30 54 H 0.025400 -4.085763 -0.356503 0
M  V30 55 H 1.796794 0.353894 -0.746024 0
M  V30 56 H 3.288741 -0.192711 1.120430 0
M  V30 END ATOM
M  V30 BEGIN BOND
M  V30 1 1 1 2
M  V30 2 1 2 3
M  V30 3 1 2 4
M  V30 4 1 2 5
M  V30 5 2 5 6
M  V30 6 1 6 7
M  V30 7 2 7 8
M  V30 8 1 8 9
M  V30 9 1 9 10
M  V30 10 1 10 11
M  V30 11 2 11 12
M  V30 12 1 12 13
M  V30 13 2 13 14
M  V30 14 1 14 15
M  V30 15 2 15 16
M  V30 16 1 16 17
M  V30 17 2 10 18
M  V30 18 1 18 19
M  V30 19 2 19 20
M  V30 20 1 20 21
M  V30 21 2 21 22
M  V30 22 1 22 23
M  V30 23 2 23 24
M  V30 24 1 24 25
M  V30 25 2 25 26
M  V30 26 1 26 27
M  V30 27 2 27 28
M  V30 28 1 22 29
M  V30 29 2 29 30
M  V30 30 1 8 31
M  V30 31 2 31 32
M  V30 32 1 32 5
M  V30 33 1 30 9
M  V30 34 1 16 11
M  V30 35 1 30 19
M  V30 36 1 28 23
M  V30 37 1 1 33
M  V30 38 1 1 34
M  V30 39 1 1 35
M  V30 40 1 3 36
M  V30 41 1 3 37
M  V30 42 1 3 38
M  V30 43 1 4 39
M  V30 44 1 4 40
M  V30 45 1 6 41
M  V30 46 1 7 42
M  V30 47 1 12 43
M  V30 48 1 13 44
M  V30 49 1 14 45
M  V30 50 1 17 46
M  V30 51 1 17 47
M  V30 52 1 20 48
M  V30 53 1 21 49
M  V30 54 1 24 50
M  V30 55 1 25 51
M  V30 56 1 26 52
M  V30 57 1 27 53
M  V30 58 1 28 54
M  V30 59 1 31 55
M  V30 60 1 32 56
M  V30 END BOND
M  V30 END CTAB
M  END
>  <Dataset>  (425) 
ChEMBL_Kinases

>  <Ligand_Instance>  (425) 
nan

>  <PDB_ID>  (425) 
nan

>  <Standardized_SMILES>  (425) 
CC(C)(N)c1ccc(-n2c(-c3cccnc3N)nc3ccc(-c4ccccc4)nc32)cc1

>  <Name>  (425) 
nan

>  <Pocket>  (425) 
nan

>  <ATP_Site>  (425) 
nan

>  <Peripheral>  (425) 
nan

>  <Num_H_Atoms_ProtBoundConf>  (425) 
nan

>  <Num_Resolved_Atoms>  (425) 
nan

>  <Num_Not_Resolved_Atoms>  (425) 
nan

$$$$
CHEMBL4530961
     RDKit          3D

  0  0  0  0  0  0  0  0  0  0999 V3000
M  V30 BEGIN CTAB
M  V30 COUNTS 74 77 0 0 0
M  V30 BEGIN ATOM
M  V30 1 C 0.918399 -2.169827 4.267722 0
M  V30 2 N 1.649464 -3.322990 3.818443 0
M  V30 3 C 1.369258 -4.509738 4.544794 0
M  V30 4 C 3.003572 -3.064801 3.489815 0
M  V30 5 C 3.157658 -2.267994 2.272469 0
M  V30 6 C 2.109269 -1.917629 1.599061 0
M  V30 7 C 2.017676 -1.122077 0.351031 0
M  V30 8 O 1.236477 -0.641477 -0.485510 0
M  V30 9 N 3.283718 -0.671489 -0.198789 0
M  V30 10 C 2.774930 0.021402 -1.353627 0
M  V30 11 C 2.459207 1.348113 -1.460598 0
M  V30 12 C 1.939826 1.951793 -2.582375 0
M  V30 13 C 1.737393 1.120649 -3.667678 0
M  V30 14 C 2.024829 -0.231510 -3.663038 0
M  V30 15 S 1.754664 -1.360946 -4.965986 0
M  V30 16 O 1.747493 -0.554505 -6.236427 0
M  V30 17 O 2.713457 -2.480558 -4.976980 0
M  V30 18 N 0.135588 -2.033757 -4.766983 0
M  V30 19 C -0.769875 -0.936321 -4.880383 0
M  V30 20 C -2.156206 -1.194750 -4.293312 0
M  V30 21 C -1.963454 -1.712311 -2.887673 0
M  V30 22 N -3.063043 -1.673915 -2.017028 0
M  V30 23 C -2.981735 -0.894514 -0.826111 0
M  V30 24 O -1.905944 -0.282521 -0.636547 0
M  V30 25 C -4.076094 -0.815787 0.113621 0
M  V30 26 N -5.273139 -1.394241 0.066382 0
M  V30 27 N -6.035384 -1.113133 1.099358 0
M  V30 28 C -5.283558 -0.298084 1.869445 0
M  V30 29 C -4.064241 -0.112224 1.259804 0
M  V30 30 N -3.168401 0.695728 1.930867 0
M  V30 31 C -2.687032 1.470929 2.943471 0
M  V30 32 O -3.654269 1.413907 3.801627 0
M  V30 33 C -1.528887 2.238463 3.269380 0
M  V30 34 C -1.532255 2.889983 4.469003 0
M  V30 35 C -0.382274 3.633313 4.759046 0
M  V30 36 C 0.706185 3.731234 3.921970 0
M  V30 37 C 0.685604 3.061135 2.712591 0
M  V30 38 C -0.440331 2.326853 2.416132 0
M  V30 39 C -1.310358 -3.078989 -3.076958 0
M  V30 40 C 0.087223 -2.775480 -3.535387 0
M  V30 41 C 2.551320 -0.771127 -2.483238 0
M  V30 42 H 0.892838 -2.103309 5.378730 0
M  V30 43 H 1.466422 -1.264017 3.946044 0
M  V30 44 H -0.076699 -2.154993 3.823250 0
M  V30 45 H 2.183466 -5.228694 4.391378 0
M  V30 46 H 0.453138 -4.970614 4.060413 0
M  V30 47 H 1.085108 -4.374870 5.607009 0
M  V30 48 H 3.486092 -4.055877 3.287987 0
M  V30 49 H 3.580148 -2.587132 4.315126 0
M  V30 50 H 4.092535 -1.928329 1.867887 0
M  V30 51 H 1.065876 -2.139232 1.776710 0
M  V30 52 H 4.267292 -0.837207 0.184790 0
M  V30 53 H 2.649513 1.929814 -0.548735 0
M  V30 54 H 1.713941 2.990877 -2.618602 0
M  V30 55 H 1.347427 1.508044 -4.588396 0
M  V30 56 H -0.354670 -0.107631 -4.258849 0
M  V30 57 H -0.840040 -0.560147 -5.898746 0
M  V30 58 H -2.650034 -1.899668 -4.965218 0
M  V30 59 H -2.693924 -0.238756 -4.322479 0
M  V30 60 H -1.139534 -1.058055 -2.463815 0
M  V30 61 H -3.960863 -2.188250 -2.180941 0
M  V30 62 H -7.004301 -1.518688 1.162967 0
M  V30 63 H -5.747726 0.065325 2.798742 0
M  V30 64 H -2.304950 0.803590 1.285031 0
M  V30 65 H -2.336205 2.865077 5.185853 0
M  V30 66 H -0.363689 4.158011 5.708711 0
M  V30 67 H 1.524331 4.338704 4.286031 0
M  V30 68 H 1.561651 3.190062 2.128537 0
M  V30 69 H -0.441562 1.807985 1.459470 0
M  V30 70 H -1.806146 -3.709364 -3.813313 0
M  V30 71 H -1.248604 -3.552273 -2.073295 0
M  V30 72 H 0.766804 -3.641646 -3.523383 0
M  V30 73 H 0.481994 -2.049435 -2.754464 0
M  V30 74 H 2.799851 -1.805312 -2.434367 0
M  V30 END ATOM
M  V30 BEGIN BOND
M  V30 1 1 1 2
M  V30 2 1 2 3
M  V30 3 1 2 4
M  V30 4 1 4 5
M  V30 5 2 5 6
M  V30 6 1 6 7
M  V30 7 2 7 8
M  V30 8 1 7 9
M  V30 9 1 9 10
M  V30 10 2 10 11
M  V30 11 1 11 12
M  V30 12 2 12 13
M  V30 13 1 13 14
M  V30 14 1 14 15
M  V30 15 2 15 16
M  V30 16 2 15 17
M  V30 17 1 15 18
M  V30 18 1 18 19
M  V30 19 1 19 20
M  V30 20 1 20 21
M  V30 21 1 21 22
M  V30 22 1 22 23
M  V30 23 2 23 24
M  V30 24 1 23 25
M  V30 25 2 25 26
M  V30 26 1 26 27
M  V30 27 1 27 28
M  V30 28 2 28 29
M  V30 29 1 29 30
M  V30 30 1 30 31
M  V30 31 2 31 32
M  V30 32 1 31 33
M  V30 33 2 33 34
M  V30 34 1 34 35
M  V30 35 2 35 36
M  V30 36 1 36 37
M  V30 37 2 37 38
M  V30 38 1 21 39
M  V30 39 1 39 40
M  V30 40 2 14 41
M  V30 41 1 41 10
M  V30 42 1 40 18
M  V30 43 1 29 25
M  V30 44 1 38 33
M  V30 45 1 1 42
M  V30 46 1 1 43
M  V30 47 1 1 44
M  V30 48 1 3 45
M  V30 49 1 3 46
M  V30 50 1 3 47
M  V30 51 1 4 48
M  V30 52 1 4 49
M  V30 53 1 5 50
M  V30 54 1 6 51
M  V30 55 1 9 52
M  V30 56 1 11 53
M  V30 57 1 12 54
M  V30 58 1 13 55
M  V30 59 1 19 56
M  V30 60 1 19 57
M  V30 61 1 20 58
M  V30 62 1 20 59
M  V30 63 1 21 60
M  V30 64 1 22 61
M  V30 65 1 27 62
M  V30 66 1 28 63
M  V30 67 1 30 64
M  V30 68 1 34 65
M  V30 69 1 35 66
M  V30 70 1 36 67
M  V30 71 1 37 68
M  V30 72 1 38 69
M  V30 73 1 39 70
M  V30 74 1 39 71
M  V30 75 1 40 72
M  V30 76 1 40 73
M  V30 77 1 41 74
M  V30 END BOND
M  V30 END CTAB
M  END
>  <Dataset>  (426) 
ChEMBL_Kinases

>  <Ligand_Instance>  (426) 
nan

>  <PDB_ID>  (426) 
nan

>  <Standardized_SMILES>  (426) 
CN(C)C/C=C/C(=O)Nc1cccc(S(=O)(=O)N2CCC(NC(=O)c3n[nH]cc3NC(=O)c3ccccc3)CC2)c1

>  <Name>  (426) 
nan

>  <Pocket>  (426) 
nan

>  <ATP_Site>  (426) 
nan

>  <Peripheral>  (426) 
nan

>  <Num_H_Atoms_ProtBoundConf>  (426) 
nan

>  <Num_Resolved_Atoms>  (426) 
nan

>  <Num_Not_Resolved_Atoms>  (426) 
nan

$$$$
CHEMBL4643443
     RDKit          3D

  0  0  0  0  0  0  0  0  0  0999 V3000
M  V30 BEGIN CTAB
M  V30 COUNTS 59 62 0 0 0
M  V30 BEGIN ATOM
M  V30 1 O -1.018468 -2.884859 -0.584557 0
M  V30 2 C -2.055721 -3.259331 0.033640 0
M  V30 3 N -2.822364 -2.273898 0.656552 0
M  V30 4 C -2.629282 -0.873956 0.709005 0
M  V30 5 C -1.616810 -0.160829 0.113632 0
M  V30 6 C -1.453369 1.202240 0.195668 0
M  V30 7 C -2.340315 1.946891 0.913122 0
M  V30 8 N -2.191421 3.353839 1.052954 0
M  V30 9 C -1.024943 3.902941 0.443001 0
M  V30 10 N -0.830173 4.654708 -0.676591 0
M  V30 11 C 0.388819 5.039965 -1.060604 0
M  V30 12 C 1.460653 4.648173 -0.278492 0
M  V30 13 C 1.322962 3.889572 0.860982 0
M  V30 14 N 2.446064 3.487123 1.637777 0
M  V30 15 C 2.211054 2.679004 2.817112 0
M  V30 16 C 3.551175 2.354769 3.420058 0
M  V30 17 C 3.656005 0.845677 3.442414 0
M  V30 18 C 2.815630 0.437966 2.256942 0
M  V30 19 C 1.601837 1.332715 2.443984 0
M  V30 20 N 0.073871 3.551445 1.168840 0
M  V30 21 C -3.392079 1.265911 1.538673 0
M  V30 22 C -3.512279 -0.100792 1.425675 0
M  V30 23 N -2.302305 -4.635908 0.009622 0
M  V30 24 C -1.443421 -5.598199 -0.676737 0
M  V30 25 C -1.556391 -5.295169 -2.140731 0
M  V30 26 C -0.496218 -5.833627 -3.024498 0
M  V30 27 C 0.860168 -5.739975 -2.410629 0
M  V30 28 C 0.774150 -6.506898 -1.081553 0
M  V30 29 C -0.044628 -5.573463 -0.197176 0
M  V30 30 H -3.645733 -2.689084 1.141418 0
M  V30 31 H -0.875169 -0.661175 -0.466338 0
M  V30 32 H -0.629973 1.703614 -0.301247 0
M  V30 33 H -2.915268 3.904100 1.575602 0
M  V30 34 H 0.441638 5.633061 -1.957863 0
M  V30 35 H 2.453071 4.959096 -0.587879 0
M  V30 36 H 3.395226 3.793519 1.325642 0
M  V30 37 H 1.600926 3.155359 3.584023 0
M  V30 38 H 4.393616 2.714527 2.773690 0
M  V30 39 H 3.699686 2.793746 4.410968 0
M  V30 40 H 4.698665 0.554834 3.333465 0
M  V30 41 H 3.274816 0.444187 4.386639 0
M  V30 42 H 3.329721 0.757846 1.333668 0
M  V30 43 H 2.562444 -0.626952 2.289441 0
M  V30 44 H 1.088202 1.383832 1.468898 0
M  V30 45 H 0.897762 0.945968 3.182980 0
M  V30 46 H -4.079579 1.887696 2.096089 0
M  V30 47 H -4.363156 -0.561346 1.944502 0
M  V30 48 H -3.171002 -4.951680 0.530201 0
M  V30 49 H -1.838964 -6.633675 -0.527632 0
M  V30 50 H -2.526968 -5.782533 -2.494465 0
M  V30 51 H -1.742571 -4.194470 -2.304710 0
M  V30 52 H -0.736565 -6.863559 -3.321583 0
M  V30 53 H -0.473264 -5.174226 -3.933934 0
M  V30 54 H 1.694463 -6.081472 -3.042852 0
M  V30 55 H 1.056948 -4.677377 -2.126675 0
M  V30 56 H 1.819153 -6.556288 -0.666058 0
M  V30 57 H 0.329094 -7.498981 -1.208775 0
M  V30 58 H 0.485291 -4.601349 -0.297297 0
M  V30 59 H 0.014161 -5.948191 0.861543 0
M  V30 END ATOM
M  V30 BEGIN BOND
M  V30 1 2 1 2
M  V30 2 1 2 3
M  V30 3 1 3 4
M  V30 4 2 4 5
M  V30 5 1 5 6
M  V30 6 2 6 7
M  V30 7 1 7 8
M  V30 8 1 8 9
M  V30 9 2 9 10
M  V30 10 1 10 11
M  V30 11 2 11 12
M  V30 12 1 12 13
M  V30 13 1 13 14
M  V30 14 1 14 15
M  V30 15 1 15 16
M  V30 16 1 16 17
M  V30 17 1 17 18
M  V30 18 1 18 19
M  V30 19 2 13 20
M  V30 20 1 7 21
M  V30 21 2 21 22
M  V30 22 1 2 23
M  V30 23 1 23 24
M  V30 24 1 24 25
M  V30 25 1 25 26
M  V30 26 1 26 27
M  V30 27 1 27 28
M  V30 28 1 28 29
M  V30 29 1 22 4
M  V30 30 1 29 24
M  V30 31 1 20 9
M  V30 32 1 19 15
M  V30 33 1 3 30
M  V30 34 1 5 31
M  V30 35 1 6 32
M  V30 36 1 8 33
M  V30 37 1 11 34
M  V30 38 1 12 35
M  V30 39 1 14 36
M  V30 40 1 15 37
M  V30 41 1 16 38
M  V30 42 1 16 39
M  V30 43 1 17 40
M  V30 44 1 17 41
M  V30 45 1 18 42
M  V30 46 1 18 43
M  V30 47 1 19 44
M  V30 48 1 19 45
M  V30 49 1 21 46
M  V30 50 1 22 47
M  V30 51 1 23 48
M  V30 52 1 24 49
M  V30 53 1 25 50
M  V30 54 1 25 51
M  V30 55 1 26 52
M  V30 56 1 26 53
M  V30 57 1 27 54
M  V30 58 1 27 55
M  V30 59 1 28 56
M  V30 60 1 28 57
M  V30 61 1 29 58
M  V30 62 1 29 59
M  V30 END BOND
M  V30 END CTAB
M  END
>  <Dataset>  (427) 
ChEMBL_Kinases

>  <Ligand_Instance>  (427) 
nan

>  <PDB_ID>  (427) 
nan

>  <Standardized_SMILES>  (427) 
O=C(Nc1ccc(Nc2nccc(NC3CCCC3)n2)cc1)NC1CCCCC1

>  <Name>  (427) 
nan

>  <Pocket>  (427) 
nan

>  <ATP_Site>  (427) 
nan

>  <Peripheral>  (427) 
nan

>  <Num_H_Atoms_ProtBoundConf>  (427) 
nan

>  <Num_Resolved_Atoms>  (427) 
nan

>  <Num_Not_Resolved_Atoms>  (427) 
nan

$$$$
CHEMBL4530888
     RDKit          3D

  0  0  0  0  0  0  0  0  0  0999 V3000
M  V30 BEGIN CTAB
M  V30 COUNTS 49 53 0 0 0
M  V30 BEGIN ATOM
M  V30 1 C 2.812224 -4.548977 -0.328652 0
M  V30 2 C 2.797682 -3.685997 0.905884 0
M  V30 3 C 3.708172 -3.920533 1.924089 0
M  V30 4 C 3.616024 -3.077289 3.015340 0
M  V30 5 C 2.658650 -2.083472 3.033304 0
M  V30 6 C 1.757831 -1.871419 1.996693 0
M  V30 7 C 0.796386 -0.786089 2.141146 0
M  V30 8 N 1.091203 0.522469 2.270459 0
M  V30 9 N 0.002018 1.247722 2.381423 0
M  V30 10 C -0.174818 2.681659 2.539905 0
M  V30 11 C -0.281556 3.363195 1.219948 0
M  V30 12 O -0.442425 4.588597 0.898502 0
M  V30 13 N -0.197482 2.565848 0.043663 0
M  V30 14 C -0.267655 2.957206 -1.321298 0
M  V30 15 C 0.775736 3.327758 -2.146795 0
M  V30 16 C 0.522223 3.682599 -3.461983 0
M  V30 17 C -0.787748 3.665706 -3.953040 0
M  V30 18 C -1.833013 3.293291 -3.122024 0
M  V30 19 C -1.575911 2.935392 -1.795063 0
M  V30 20 F -2.675366 2.589901 -1.077042 0
M  V30 21 C -1.076554 0.434635 2.329274 0
M  V30 22 C -0.581727 -0.839309 2.178908 0
M  V30 23 C -1.397596 -2.043535 2.077221 0
M  V30 24 C -2.214750 -2.493574 3.091099 0
M  V30 25 C -2.958655 -3.639965 2.920382 0
M  V30 26 C -2.871027 -4.321936 1.726952 0
M  V30 27 N -3.714828 -5.501354 1.713316 0
M  V30 28 S -3.257893 -6.018175 0.004926 0
M  V30 29 N -2.205054 -4.815976 -0.377487 0
M  V30 30 C -2.076565 -3.873322 0.757556 0
M  V30 31 C -1.333800 -2.745092 0.904010 0
M  V30 32 N 1.877033 -2.707334 0.956716 0
M  V30 33 H 1.771199 -4.597964 -0.715239 0
M  V30 34 H 3.385214 -3.938386 -1.079923 0
M  V30 35 H 3.252512 -5.536293 -0.145739 0
M  V30 36 H 4.414683 -4.731268 1.798294 0
M  V30 37 H 4.316866 -3.244523 3.818548 0
M  V30 38 H 2.659927 -1.469958 3.930075 0
M  V30 39 H 0.694583 3.059618 3.121615 0
M  V30 40 H -1.088355 2.926759 3.127691 0
M  V30 41 H -0.064017 1.521908 0.084949 0
M  V30 42 H 1.747092 3.312846 -1.689039 0
M  V30 43 H 1.360085 3.965792 -4.076152 0
M  V30 44 H -0.935249 3.955103 -5.002012 0
M  V30 45 H -2.817233 3.307057 -3.581661 0
M  V30 46 H -2.131647 0.688048 2.389313 0
M  V30 47 H -2.180922 -1.854106 3.970773 0
M  V30 48 H -3.529095 -3.829655 3.813259 0
M  V30 49 H -0.753501 -2.525057 0.033520 0
M  V30 END ATOM
M  V30 BEGIN BOND
M  V30 1 1 1 2
M  V30 2 2 2 3
M  V30 3 1 3 4
M  V30 4 2 4 5
M  V30 5 1 5 6
M  V30 6 1 6 7
M  V30 7 2 7 8
M  V30 8 1 8 9
M  V30 9 1 9 10
M  V30 10 1 10 11
M  V30 11 2 11 12
M  V30 12 1 11 13
M  V30 13 1 13 14
M  V30 14 2 14 15
M  V30 15 1 15 16
M  V30 16 2 16 17
M  V30 17 1 17 18
M  V30 18 2 18 19
M  V30 19 1 19 20
M  V30 20 1 9 21
M  V30 21 2 21 22
M  V30 22 1 22 23
M  V30 23 1 23 24
M  V30 24 2 24 25
M  V30 25 1 25 26
M  V30 26 2 26 27
M  V30 27 1 27 28
M  V30 28 1 28 29
M  V30 29 2 29 30
M  V30 30 1 30 31
M  V30 31 2 6 32
M  V30 32 1 32 2
M  V30 33 1 22 7
M  V30 34 2 31 23
M  V30 35 1 19 14
M  V30 36 1 30 26
M  V30 37 1 1 33
M  V30 38 1 1 34
M  V30 39 1 1 35
M  V30 40 1 3 36
M  V30 41 1 4 37
M  V30 42 1 5 38
M  V30 43 1 10 39
M  V30 44 1 10 40
M  V30 45 1 13 41
M  V30 46 1 15 42
M  V30 47 1 16 43
M  V30 48 1 17 44
M  V30 49 1 18 45
M  V30 50 1 21 46
M  V30 51 1 24 47
M  V30 52 1 25 48
M  V30 53 1 31 49
M  V30 END BOND
M  V30 END CTAB
M  END
>  <Dataset>  (428) 
ChEMBL_Kinases

>  <Ligand_Instance>  (428) 
nan

>  <PDB_ID>  (428) 
nan

>  <Standardized_SMILES>  (428) 
Cc1cccc(-c2nn(CC(=O)Nc3ccccc3F)cc2-c2ccc3nsnc3c2)n1

>  <Name>  (428) 
nan

>  <Pocket>  (428) 
nan

>  <ATP_Site>  (428) 
nan

>  <Peripheral>  (428) 
nan

>  <Num_H_Atoms_ProtBoundConf>  (428) 
nan

>  <Num_Resolved_Atoms>  (428) 
nan

>  <Num_Not_Resolved_Atoms>  (428) 
nan

$$$$
CHEMBL4643512
     RDKit          3D

  0  0  0  0  0  0  0  0  0  0999 V3000
M  V30 BEGIN CTAB
M  V30 COUNTS 41 44 0 0 0
M  V30 BEGIN ATOM
M  V30 1 C 2.933910 -3.609835 2.276958 0
M  V30 2 C 1.480956 -3.387227 1.972493 0
M  V30 3 O 0.903136 -2.938062 3.189309 0
M  V30 4 C 1.381646 -2.328923 0.967665 0
M  V30 5 C 1.282013 -1.445431 0.144420 0
M  V30 6 C 1.149633 -0.375570 -0.831759 0
M  V30 7 C 1.268076 -0.586346 -2.192468 0
M  V30 8 C 1.120209 0.530856 -2.984297 0
M  V30 9 C 0.870572 1.780155 -2.457270 0
M  V30 10 C 0.755045 1.977730 -1.102762 0
M  V30 11 N 0.483059 3.276613 -0.569622 0
M  V30 12 C 0.252470 3.424889 0.828645 0
M  V30 13 N 0.992182 4.084626 1.735653 0
M  V30 14 C 0.685904 4.157299 3.030237 0
M  V30 15 N -0.439477 3.527005 3.458089 0
M  V30 16 C -1.234651 2.839964 2.595418 0
M  V30 17 N -2.377856 2.169601 2.891107 0
M  V30 18 C -2.804080 1.651996 1.717181 0
M  V30 19 C -1.945054 1.990446 0.695594 0
M  V30 20 C -0.911788 2.765533 1.239408 0
M  V30 21 C 0.896160 0.887597 -0.284143 0
M  V30 22 C 0.801976 -4.625898 1.551905 0
M  V30 23 N 0.628402 -5.225703 0.182607 0
M  V30 24 C -0.071561 -6.323728 0.382838 0
M  V30 25 C -0.638831 -6.979067 1.566695 0
M  V30 26 S -0.049589 -5.729711 2.814023 0
M  V30 27 H 3.516245 -3.832854 1.374715 0
M  V30 28 H 3.094554 -4.362224 3.077079 0
M  V30 29 H 3.315646 -2.642926 2.694983 0
M  V30 30 H -0.008079 -3.318546 3.241790 0
M  V30 31 H 1.464021 -1.599832 -2.519891 0
M  V30 32 H 1.213102 0.364152 -4.058664 0
M  V30 33 H 0.757099 2.650836 -3.087824 0
M  V30 34 H 0.463919 4.097604 -1.213474 0
M  V30 35 H 1.360879 4.720132 3.666838 0
M  V30 36 H -2.905113 2.016137 3.774433 0
M  V30 37 H -3.686295 1.031209 1.476808 0
M  V30 38 H -1.933064 1.775062 -0.358824 0
M  V30 39 H 0.803277 1.044734 0.781182 0
M  V30 40 H -0.183003 -6.743606 -0.625825 0
M  V30 41 H -1.132816 -7.804735 1.513830 0
M  V30 END ATOM
M  V30 BEGIN BOND
M  V30 1 1 1 2
M  V30 2 1 2 3
M  V30 3 1 2 4
M  V30 4 3 4 5
M  V30 5 1 5 6
M  V30 6 2 6 7
M  V30 7 1 7 8
M  V30 8 2 8 9
M  V30 9 1 9 10
M  V30 10 1 10 11
M  V30 11 1 11 12
M  V30 12 2 12 13
M  V30 13 1 13 14
M  V30 14 2 14 15
M  V30 15 1 15 16
M  V30 16 1 16 17
M  V30 17 1 17 18
M  V30 18 2 18 19
M  V30 19 1 19 20
M  V30 20 2 10 21
M  V30 21 1 2 22
M  V30 22 2 22 23
M  V30 23 1 23 24
M  V30 24 2 24 25
M  V30 25 1 25 26
M  V30 26 1 21 6
M  V30 27 1 26 22
M  V30 28 1 20 12
M  V30 29 2 20 16
M  V30 30 1 1 27
M  V30 31 1 1 28
M  V30 32 1 1 29
M  V30 33 1 3 30
M  V30 34 1 7 31
M  V30 35 1 8 32
M  V30 36 1 9 33
M  V30 37 1 11 34
M  V30 38 1 14 35
M  V30 39 1 17 36
M  V30 40 1 18 37
M  V30 41 1 19 38
M  V30 42 1 21 39
M  V30 43 1 24 40
M  V30 44 1 25 41
M  V30 END BOND
M  V30 END CTAB
M  END
>  <Dataset>  (429) 
ChEMBL_Kinases

>  <Ligand_Instance>  (429) 
nan

>  <PDB_ID>  (429) 
nan

>  <Standardized_SMILES>  (429) 
CC(O)(C#Cc1cccc(Nc2ncnc3[nH]ccc23)c1)c1nccs1

>  <Name>  (429) 
nan

>  <Pocket>  (429) 
nan

>  <ATP_Site>  (429) 
nan

>  <Peripheral>  (429) 
nan

>  <Num_H_Atoms_ProtBoundConf>  (429) 
nan

>  <Num_Resolved_Atoms>  (429) 
nan

>  <Num_Not_Resolved_Atoms>  (429) 
nan

$$$$
CHEMBL4643515
     RDKit          3D

  0  0  0  0  0  0  0  0  0  0999 V3000
M  V30 BEGIN CTAB
M  V30 COUNTS 38 41 0 0 0
M  V30 BEGIN ATOM
M  V30 1 C -0.421820 -5.598178 -1.049793 0
M  V30 2 O -0.257940 -4.197331 -1.091584 0
M  V30 3 C 0.626319 -3.611790 -0.204211 0
M  V30 4 C 1.374806 -4.274391 0.734945 0
M  V30 5 C 2.251681 -3.644722 1.606040 0
M  V30 6 C 2.388338 -2.273590 1.533971 0
M  V30 7 C 1.625233 -1.631320 0.582299 0
M  V30 8 C 0.743722 -2.216917 -0.300526 0
M  V30 9 N 0.003499 -1.397375 -1.215133 0
M  V30 10 C 0.305301 -0.006183 -1.289889 0
M  V30 11 N 0.919676 0.583224 -2.363179 0
M  V30 12 C 1.195494 1.900316 -2.363416 0
M  V30 13 C 0.854972 2.686832 -1.256712 0
M  V30 14 C 0.228300 2.098509 -0.156943 0
M  V30 15 C -0.151084 2.822972 1.045421 0
M  V30 16 C 0.000453 4.158031 1.380790 0
M  V30 17 N -0.502990 4.324799 2.611232 0
M  V30 18 N -0.966278 3.182387 3.080644 0
M  V30 19 N -1.542953 2.893721 4.244767 0
M  V30 20 C -1.943810 1.643030 4.514585 0
M  V30 21 C -1.782031 0.587637 3.607633 0
M  V30 22 C -1.170651 0.933670 2.396341 0
M  V30 23 C -0.758639 2.247966 2.132792 0
M  V30 24 N 0.015653 0.798059 -0.288212 0
M  V30 25 H -0.440778 -6.021320 -0.017012 0
M  V30 26 H -1.410437 -5.870695 -1.526169 0
M  V30 27 H 0.431425 -6.108006 -1.578092 0
M  V30 28 H 1.285276 -5.354930 0.810178 0
M  V30 29 H 2.825626 -4.230731 2.332187 0
M  V30 30 H 3.073825 -1.792635 2.212085 0
M  V30 31 H 1.783849 -0.542208 0.583680 0
M  V30 32 H -0.743780 -1.829850 -1.804781 0
M  V30 33 H 1.680348 2.317658 -3.230840 0
M  V30 34 H 1.070517 3.748133 -1.234631 0
M  V30 35 H 0.447743 4.906600 0.741730 0
M  V30 36 H -2.429379 1.291811 5.437977 0
M  V30 37 H -2.088672 -0.445699 3.777893 0
M  V30 38 H -1.046091 0.101382 1.686111 0
M  V30 END ATOM
M  V30 BEGIN BOND
M  V30 1 1 1 2
M  V30 2 1 2 3
M  V30 3 2 3 4
M  V30 4 1 4 5
M  V30 5 2 5 6
M  V30 6 1 6 7
M  V30 7 2 7 8
M  V30 8 1 8 9
M  V30 9 1 9 10
M  V30 10 2 10 11
M  V30 11 1 11 12
M  V30 12 2 12 13
M  V30 13 1 13 14
M  V30 14 1 14 15
M  V30 15 1 15 16
M  V30 16 2 16 17
M  V30 17 1 17 18
M  V30 18 1 18 19
M  V30 19 2 19 20
M  V30 20 1 20 21
M  V30 21 2 21 22
M  V30 22 1 22 23
M  V30 23 2 14 24
M  V30 24 1 8 3
M  V30 25 1 24 10
M  V30 26 2 23 15
M  V30 27 1 23 18
M  V30 28 1 1 25
M  V30 29 1 1 26
M  V30 30 1 1 27
M  V30 31 1 4 28
M  V30 32 1 5 29
M  V30 33 1 6 30
M  V30 34 1 7 31
M  V30 35 1 9 32
M  V30 36 1 12 33
M  V30 37 1 13 34
M  V30 38 1 16 35
M  V30 39 1 20 36
M  V30 40 1 21 37
M  V30 41 1 22 38
M  V30 END BOND
M  V30 END CTAB
M  END
>  <Dataset>  (430) 
ChEMBL_Kinases

>  <Ligand_Instance>  (430) 
nan

>  <PDB_ID>  (430) 
nan

>  <Standardized_SMILES>  (430) 
COc1ccccc1Nc1nccc(-c2cnn3ncccc23)n1

>  <Name>  (430) 
nan

>  <Pocket>  (430) 
nan

>  <ATP_Site>  (430) 
nan

>  <Peripheral>  (430) 
nan

>  <Num_H_Atoms_ProtBoundConf>  (430) 
nan

>  <Num_Resolved_Atoms>  (430) 
nan

>  <Num_Not_Resolved_Atoms>  (430) 
nan

$$$$
CHEMBL4530813
     RDKit          3D

  0  0  0  0  0  0  0  0  0  0999 V3000
M  V30 BEGIN CTAB
M  V30 COUNTS 50 53 0 0 0
M  V30 BEGIN ATOM
M  V30 1 C 6.259961 -1.926217 4.086269 0
M  V30 2 C 6.130395 -3.080531 3.129214 0
M  V30 3 C 4.994318 -4.005567 3.510011 0
M  V30 4 S 5.976999 -2.530332 1.447030 0
M  V30 5 O 7.203067 -1.787273 1.019957 0
M  V30 6 O 5.804841 -3.790600 0.616455 0
M  V30 7 C 4.572559 -1.559223 1.183309 0
M  V30 8 C 4.676662 -0.186208 1.351413 0
M  V30 9 C 3.570593 0.619482 1.148194 0
M  V30 10 C 2.341073 0.120640 0.778920 0
M  V30 11 C 1.158689 0.943325 0.557940 0
M  V30 12 C 1.202872 2.311248 0.710419 0
M  V30 13 N 0.050929 2.995253 0.483157 0
M  V30 14 C -1.078226 2.345688 0.124270 0
M  V30 15 N -2.249555 3.114738 -0.099127 0
M  V30 16 C -1.139188 0.991086 -0.031189 0
M  V30 17 C -2.316971 0.226775 -0.414602 0
M  V30 18 C -3.599864 0.626343 -0.705259 0
M  V30 19 C -4.388567 -0.460130 -1.021337 0
M  V30 20 C -5.789351 -0.455356 -1.383220 0
M  V30 21 C -6.500471 0.734160 -1.444570 0
M  V30 22 C -7.853746 0.760035 -1.792106 0
M  V30 23 C -8.477049 -0.435757 -2.076732 0
M  V30 24 C -7.755740 -1.626223 -2.012834 0
M  V30 25 C -6.410254 -1.650263 -1.667121 0
M  V30 26 O -3.572190 -1.480828 -0.915413 0
M  V30 27 N -2.378374 -1.108754 -0.568220 0
M  V30 28 N 0.013860 0.338330 0.199584 0
M  V30 29 C 2.296906 -1.248673 0.626676 0
M  V30 30 C 3.362874 -2.111078 0.813686 0
M  V30 31 H 5.241310 -1.562023 4.315896 0
M  V30 32 H 6.726982 -2.229684 5.038661 0
M  V30 33 H 6.876221 -1.148680 3.588573 0
M  V30 34 H 7.053529 -3.694685 3.216406 0
M  V30 35 H 5.284154 -4.591624 4.405017 0
M  V30 36 H 4.071094 -3.438618 3.765004 0
M  V30 37 H 4.814987 -4.716015 2.688233 0
M  V30 38 H 5.634402 0.249068 1.643865 0
M  V30 39 H 3.700915 1.670250 1.289995 0
M  V30 40 H 2.076346 2.843098 0.991023 0
M  V30 41 H -2.319686 3.347313 -1.115645 0
M  V30 42 H -2.952333 3.414012 0.639072 0
M  V30 43 H -3.966313 1.638231 -0.695638 0
M  V30 44 H -5.954998 1.634087 -1.210585 0
M  V30 45 H -8.388055 1.705166 -1.832884 0
M  V30 46 H -9.535066 -0.432305 -2.350190 0
M  V30 47 H -8.310547 -2.530910 -2.249690 0
M  V30 48 H -5.870312 -2.590843 -1.624376 0
M  V30 49 H 1.354800 -1.712874 0.335230 0
M  V30 50 H 3.257043 -3.178492 0.676523 0
M  V30 END ATOM
M  V30 BEGIN BOND
M  V30 1 1 1 2
M  V30 2 1 2 3
M  V30 3 1 2 4
M  V30 4 2 4 5
M  V30 5 2 4 6
M  V30 6 1 4 7
M  V30 7 2 7 8
M  V30 8 1 8 9
M  V30 9 2 9 10
M  V30 10 1 10 11
M  V30 11 2 11 12
M  V30 12 1 12 13
M  V30 13 2 13 14
M  V30 14 1 14 15
M  V30 15 1 14 16
M  V30 16 1 16 17
M  V30 17 1 17 18
M  V30 18 2 18 19
M  V30 19 1 19 20
M  V30 20 2 20 21
M  V30 21 1 21 22
M  V30 22 2 22 23
M  V30 23 1 23 24
M  V30 24 2 24 25
M  V30 25 1 19 26
M  V30 26 1 26 27
M  V30 27 2 16 28
M  V30 28 1 10 29
M  V30 29 2 29 30
M  V30 30 1 30 7
M  V30 31 1 28 11
M  V30 32 2 27 17
M  V30 33 1 25 20
M  V30 34 1 1 31
M  V30 35 1 1 32
M  V30 36 1 1 33
M  V30 37 1 2 34
M  V30 38 1 3 35
M  V30 39 1 3 36
M  V30 40 1 3 37
M  V30 41 1 8 38
M  V30 42 1 9 39
M  V30 43 1 12 40
M  V30 44 1 15 41
M  V30 45 1 15 42
M  V30 46 1 18 43
M  V30 47 1 21 44
M  V30 48 1 22 45
M  V30 49 1 23 46
M  V30 50 1 24 47
M  V30 51 1 25 48
M  V30 52 1 29 49
M  V30 53 1 30 50
M  V30 END BOND
M  V30 END CTAB
M  END
>  <Dataset>  (431) 
ChEMBL_Kinases

>  <Ligand_Instance>  (431) 
nan

>  <PDB_ID>  (431) 
nan

>  <Standardized_SMILES>  (431) 
CC(C)S(=O)(=O)c1ccc(-c2cnc(N)c(-c3cc(-c4ccccc4)on3)n2)cc1

>  <Name>  (431) 
nan

>  <Pocket>  (431) 
nan

>  <ATP_Site>  (431) 
nan

>  <Peripheral>  (431) 
nan

>  <Num_H_Atoms_ProtBoundConf>  (431) 
nan

>  <Num_Resolved_Atoms>  (431) 
nan

>  <Num_Not_Resolved_Atoms>  (431) 
nan

$$$$
CHEMBL4530560
     RDKit          3D

  0  0  0  0  0  0  0  0  0  0999 V3000
M  V30 BEGIN CTAB
M  V30 COUNTS 39 40 0 0 0
M  V30 BEGIN ATOM
M  V30 1 O 0.527229 -1.348414 0.769762 0
M  V30 2 C 1.505113 -0.593602 0.542028 0
M  V30 3 N 2.673919 -1.361023 0.294817 0
M  V30 4 O 2.357010 -2.692956 0.384516 0
M  V30 5 C 1.979458 -3.062659 -0.924034 0
M  V30 6 C 1.568733 -4.501991 -1.028806 0
M  V30 7 C 1.169385 -4.851227 -2.465221 0
M  V30 8 O 0.101006 -4.055137 -2.866323 0
M  V30 9 C 1.471634 0.859703 0.527660 0
M  V30 10 C 2.593281 1.591756 0.206539 0
M  V30 11 C 2.504846 2.988419 0.179067 0
M  V30 12 C 1.299917 3.623492 0.472431 0
M  V30 13 F 1.234680 4.989599 0.439532 0
M  V30 14 C 0.172905 2.873710 0.796119 0
M  V30 15 F -0.952976 3.556476 1.067055 0
M  V30 16 C 0.282761 1.489490 0.818022 0
M  V30 17 N -0.930325 0.852017 1.191111 0
M  V30 18 C -1.597870 0.660612 2.436277 0
M  V30 19 C -2.866554 1.250319 2.329878 0
M  V30 20 C -3.763882 1.233779 3.394523 0
M  V30 21 C -3.402780 0.628991 4.573391 0
M  V30 22 Br -4.517002 0.524050 6.116573 0
M  V30 23 C -2.155862 0.051163 4.673730 0
M  V30 24 C -1.263487 0.062022 3.630035 0
M  V30 25 F -0.015394 -0.453374 3.586346 0
M  V30 26 H 3.593458 -0.878138 0.084463 0
M  V30 27 H 1.178034 -2.363191 -1.233370 0
M  V30 28 H 2.869957 -2.917840 -1.586513 0
M  V30 29 H 0.692594 -4.756160 -0.418556 0
M  V30 30 H 2.420609 -5.125648 -0.696548 0
M  V30 31 H 0.790744 -5.911442 -2.428194 0
M  V30 32 H 2.010676 -4.711868 -3.159174 0
M  V30 33 H -0.750491 -4.449220 -2.569940 0
M  V30 34 H 3.546726 1.142707 -0.027674 0
M  V30 35 H 3.415635 3.544680 -0.080257 0
M  V30 36 H -1.320054 0.490774 0.290615 0
M  V30 37 H -3.320881 1.772921 1.473176 0
M  V30 38 H -4.754051 1.664775 3.388569 0
M  V30 39 H -1.761735 -0.458370 5.564487 0
M  V30 END ATOM
M  V30 BEGIN BOND
M  V30 1 2 1 2
M  V30 2 1 2 3
M  V30 3 1 3 4
M  V30 4 1 4 5
M  V30 5 1 5 6
M  V30 6 1 6 7
M  V30 7 1 7 8
M  V30 8 1 2 9
M  V30 9 2 9 10
M  V30 10 1 10 11
M  V30 11 2 11 12
M  V30 12 1 12 13
M  V30 13 1 12 14
M  V30 14 1 14 15
M  V30 15 2 14 16
M  V30 16 1 16 17
M  V30 17 1 17 18
M  V30 18 2 18 19
M  V30 19 1 19 20
M  V30 20 2 20 21
M  V30 21 1 21 22
M  V30 22 1 21 23
M  V30 23 2 23 24
M  V30 24 1 24 25
M  V30 25 1 16 9
M  V30 26 1 24 18
M  V30 27 1 3 26
M  V30 28 1 5 27
M  V30 29 1 5 28
M  V30 30 1 6 29
M  V30 31 1 6 30
M  V30 32 1 7 31
M  V30 33 1 7 32
M  V30 34 1 8 33
M  V30 35 1 10 34
M  V30 36 1 11 35
M  V30 37 1 17 36
M  V30 38 1 19 37
M  V30 39 1 20 38
M  V30 40 1 23 39
M  V30 END BOND
M  V30 END CTAB
M  END
>  <Dataset>  (432) 
ChEMBL_Kinases

>  <Ligand_Instance>  (432) 
nan

>  <PDB_ID>  (432) 
nan

>  <Standardized_SMILES>  (432) 
O=C(NOCCCO)c1ccc(F)c(F)c1Nc1ccc(Br)cc1F

>  <Name>  (432) 
nan

>  <Pocket>  (432) 
nan

>  <ATP_Site>  (432) 
nan

>  <Peripheral>  (432) 
nan

>  <Num_H_Atoms_ProtBoundConf>  (432) 
nan

>  <Num_Resolved_Atoms>  (432) 
nan

>  <Num_Not_Resolved_Atoms>  (432) 
nan

$$$$
CHEMBL4530506
     RDKit          3D

  0  0  0  0  0  0  0  0  0  0999 V3000
M  V30 BEGIN CTAB
M  V30 COUNTS 48 51 0 0 0
M  V30 BEGIN ATOM
M  V30 1 C 0.948580 -3.929794 2.963004 0
M  V30 2 N 1.644793 -4.902824 2.149128 0
M  V30 3 N 1.854406 -6.168958 2.540183 0
M  V30 4 C 2.510717 -6.795205 1.582808 0
M  V30 5 C 2.706729 -5.861155 0.564131 0
M  V30 6 C 2.155341 -4.668100 0.932544 0
M  V30 7 C 2.192356 -3.494267 0.088242 0
M  V30 8 C 2.828329 -3.583287 -1.177828 0
M  V30 9 S 2.633944 -1.891120 -1.879231 0
M  V30 10 C 1.738519 -1.194887 -0.469837 0
M  V30 11 C 1.327738 0.157537 -0.498523 0
M  V30 12 O 1.602990 0.838210 -1.516607 0
M  V30 13 N 0.626286 0.666881 0.629147 0
M  V30 14 C 0.181566 2.039727 0.657782 0 CFG=2
M  V30 15 C 0.882969 2.835773 1.761761 0
M  V30 16 N 0.068950 4.011121 2.001624 0
M  V30 17 C -0.566109 4.496177 0.785729 0
M  V30 18 C -1.678561 3.550329 0.373053 0
M  V30 19 C -1.299310 2.190239 0.928844 0 CFG=1
M  V30 20 C -2.106346 1.082312 0.396495 0
M  V30 21 C -2.878030 0.368846 1.294640 0
M  V30 22 C -3.695362 -0.708075 0.939065 0
M  V30 23 C -3.699491 -1.041139 -0.395503 0
M  V30 24 Cl -4.713515 -2.390745 -0.891716 0
M  V30 25 C -2.936028 -0.338054 -1.295374 0
M  V30 26 C -2.131163 0.726305 -0.929501 0
M  V30 27 C 1.653772 -2.294756 0.425603 0
M  V30 28 H 1.582093 -3.068040 3.262902 0
M  V30 29 H 0.012937 -3.553439 2.523721 0
M  V30 30 H 0.648731 -4.440673 3.928624 0
M  V30 31 H 2.794383 -7.819435 1.661548 0
M  V30 32 H 3.239162 -6.219398 -0.310448 0
M  V30 33 H 3.314493 -4.317564 -1.710155 0
M  V30 34 H 0.411143 0.076919 1.462764 0
M  V30 35 H 0.471382 2.558335 -0.285019 0
M  V30 36 H 0.954733 2.245116 2.699483 0
M  V30 37 H 1.907077 3.127406 1.393241 0
M  V30 38 H 0.530644 4.737433 2.551592 0
M  V30 39 H 0.248509 4.563180 0.018927 0
M  V30 40 H -0.925010 5.522532 0.952459 0
M  V30 41 H -2.666414 3.889144 0.729846 0
M  V30 42 H -1.626583 3.463938 -0.733564 0
M  V30 43 H -1.480157 2.242984 2.031718 0
M  V30 44 H -2.905162 0.600089 2.368948 0
M  V30 45 H -4.282903 -1.238980 1.672986 0
M  V30 46 H -2.946325 -0.607590 -2.341133 0
M  V30 47 H -1.521831 1.294363 -1.619570 0
M  V30 48 H 1.129054 -1.924624 1.276195 0
M  V30 END ATOM
M  V30 BEGIN BOND
M  V30 1 1 1 2
M  V30 2 1 2 3
M  V30 3 2 3 4
M  V30 4 1 4 5
M  V30 5 2 5 6
M  V30 6 1 6 7
M  V30 7 2 7 8
M  V30 8 1 8 9
M  V30 9 1 9 10
M  V30 10 1 10 11
M  V30 11 2 11 12
M  V30 12 1 11 13
M  V30 13 1 13 14
M  V30 14 1 14 15
M  V30 15 1 15 16
M  V30 16 1 16 17
M  V30 17 1 17 18
M  V30 18 1 18 19
M  V30 19 1 19 20
M  V30 20 2 20 21
M  V30 21 1 21 22
M  V30 22 2 22 23
M  V30 23 1 23 24
M  V30 24 1 23 25
M  V30 25 2 25 26
M  V30 26 2 10 27
M  V30 27 1 6 2
M  V30 28 1 27 7
M  V30 29 1 19 14
M  V30 30 1 26 20
M  V30 31 1 1 28
M  V30 32 1 1 29
M  V30 33 1 1 30
M  V30 34 1 4 31
M  V30 35 1 5 32
M  V30 36 1 8 33
M  V30 37 1 13 34
M  V30 38 1 14 35 CFG=3
M  V30 39 1 15 36
M  V30 40 1 15 37
M  V30 41 1 16 38
M  V30 42 1 17 39
M  V30 43 1 17 40
M  V30 44 1 18 41
M  V30 45 1 18 42
M  V30 46 1 19 43 CFG=1
M  V30 47 1 21 44
M  V30 48 1 22 45
M  V30 49 1 25 46
M  V30 50 1 26 47
M  V30 51 1 27 48
M  V30 END BOND
M  V30 END CTAB
M  END
>  <Dataset>  (433) 
ChEMBL_Kinases

>  <Ligand_Instance>  (433) 
nan

>  <PDB_ID>  (433) 
nan

>  <Standardized_SMILES>  (433) 
Cn1nccc1-c1csc(C(=O)N[C@@H]2CNCC[C@H]2c2ccc(Cl)cc2)c1

>  <Name>  (433) 
nan

>  <Pocket>  (433) 
nan

>  <ATP_Site>  (433) 
nan

>  <Peripheral>  (433) 
nan

>  <Num_H_Atoms_ProtBoundConf>  (433) 
nan

>  <Num_Resolved_Atoms>  (433) 
nan

>  <Num_Not_Resolved_Atoms>  (433) 
nan

$$$$
CHEMBL4530475
     RDKit          3D

  0  0  0  0  0  0  0  0  0  0999 V3000
M  V30 BEGIN CTAB
M  V30 COUNTS 57 60 0 0 0
M  V30 BEGIN ATOM
M  V30 1 C 1.380215 3.464706 -1.234855 0
M  V30 2 O 1.058429 2.442242 -0.342791 0
M  V30 3 C 1.811827 1.320295 -0.053987 0
M  V30 4 C 3.033935 0.978604 -0.575510 0
M  V30 5 C 3.665423 -0.177790 -0.186279 0
M  V30 6 C 4.977963 -0.496524 -0.780064 0
M  V30 7 O 4.814308 -1.661855 -1.261992 0
M  V30 8 N 6.086226 0.408654 -0.738649 0
M  V30 9 C 6.312027 1.759338 -0.201377 0
M  V30 10 C 7.204549 -0.218857 -1.396267 0
M  V30 11 C 3.028221 -0.997080 0.753361 0
M  V30 12 C 1.786739 -0.651490 1.281087 0
M  V30 13 C 1.162278 0.538425 0.868606 0
M  V30 14 N -0.113654 0.826398 1.483239 0
M  V30 15 C -0.857793 -0.040090 2.329686 0
M  V30 16 N -1.791527 -0.625767 1.553631 0
M  V30 17 C -2.701088 -1.542185 2.004543 0
M  V30 18 O -3.629499 -2.075518 1.077951 0
M  V30 19 C -3.672900 -1.623535 -0.251073 0
M  V30 20 C -4.995348 -1.304201 -0.808494 0
M  V30 21 C -5.863391 -2.481881 -1.075283 0
M  V30 22 C -5.132151 -3.711743 -1.501539 0
M  V30 23 C -3.761478 -3.438601 -2.017482 0
M  V30 24 C -2.927578 -2.597843 -1.121001 0
M  V30 25 C -2.627210 -1.861442 3.340980 0
M  V30 26 C -3.427974 -2.760343 4.058041 0
M  V30 27 C -2.904210 -2.672674 5.337758 0
M  V30 28 N -1.895017 -1.805473 5.361839 0
M  V30 29 C -1.683569 -1.277396 4.153036 0
M  V30 30 N -0.824604 -0.383700 3.629687 0
M  V30 31 H 2.298188 3.260456 -1.805681 0
M  V30 32 H 0.532797 3.644250 -1.945236 0
M  V30 33 H 1.480430 4.424160 -0.679917 0
M  V30 34 H 3.449947 1.678442 -1.305238 0
M  V30 35 H 5.376826 2.292845 -0.044681 0
M  V30 36 H 6.988090 2.263678 -0.945218 0
M  V30 37 H 6.912561 1.636399 0.736295 0
M  V30 38 H 7.063657 -0.226096 -2.489936 0
M  V30 39 H 8.141575 0.339081 -1.148011 0
M  V30 40 H 7.374710 -1.269644 -1.055762 0
M  V30 41 H 3.541848 -1.922004 1.058556 0
M  V30 42 H 1.373518 -1.352180 2.003842 0
M  V30 43 H -0.518010 1.762447 1.275050 0
M  V30 44 H -3.048861 -0.667909 -0.312356 0
M  V30 45 H -4.807903 -0.783294 -1.798267 0
M  V30 46 H -5.556861 -0.525034 -0.226899 0
M  V30 47 H -6.596976 -2.256254 -1.903458 0
M  V30 48 H -6.498081 -2.656955 -0.156900 0
M  V30 49 H -5.671536 -4.265509 -2.297925 0
M  V30 50 H -4.997182 -4.421519 -0.634744 0
M  V30 51 H -3.240739 -4.438460 -2.080354 0
M  V30 52 H -3.815075 -3.048742 -3.050832 0
M  V30 53 H -2.243058 -3.202379 -0.464902 0
M  V30 54 H -2.223567 -2.029312 -1.810353 0
M  V30 55 H -4.241624 -3.364608 3.706681 0
M  V30 56 H -3.234118 -3.209175 6.218237 0
M  V30 57 H -1.291695 -1.509112 6.162294 0
M  V30 END ATOM
M  V30 BEGIN BOND
M  V30 1 1 1 2
M  V30 2 1 2 3
M  V30 3 2 3 4
M  V30 4 1 4 5
M  V30 5 1 5 6
M  V30 6 2 6 7
M  V30 7 1 6 8
M  V30 8 1 8 9
M  V30 9 1 8 10
M  V30 10 2 5 11
M  V30 11 1 11 12
M  V30 12 2 12 13
M  V30 13 1 13 14
M  V30 14 1 14 15
M  V30 15 2 15 16
M  V30 16 1 16 17
M  V30 17 1 17 18
M  V30 18 1 18 19
M  V30 19 1 19 20
M  V30 20 1 20 21
M  V30 21 1 21 22
M  V30 22 1 22 23
M  V30 23 1 23 24
M  V30 24 2 17 25
M  V30 25 1 25 26
M  V30 26 2 26 27
M  V30 27 1 27 28
M  V30 28 1 28 29
M  V30 29 2 29 30
M  V30 30 1 13 3
M  V30 31 1 30 15
M  V30 32 1 24 19
M  V30 33 1 29 25
M  V30 34 1 1 31
M  V30 35 1 1 32
M  V30 36 1 1 33
M  V30 37 1 4 34
M  V30 38 1 9 35
M  V30 39 1 9 36
M  V30 40 1 9 37
M  V30 41 1 10 38
M  V30 42 1 10 39
M  V30 43 1 10 40
M  V30 44 1 11 41
M  V30 45 1 12 42
M  V30 46 1 14 43
M  V30 47 1 19 44
M  V30 48 1 20 45
M  V30 49 1 20 46
M  V30 50 1 21 47
M  V30 51 1 21 48
M  V30 52 1 22 49
M  V30 53 1 22 50
M  V30 54 1 23 51
M  V30 55 1 23 52
M  V30 56 1 24 53
M  V30 57 1 24 54
M  V30 58 1 26 55
M  V30 59 1 27 56
M  V30 60 1 28 57
M  V30 END BOND
M  V30 END CTAB
M  END
>  <Dataset>  (434) 
ChEMBL_Kinases

>  <Ligand_Instance>  (434) 
nan

>  <PDB_ID>  (434) 
nan

>  <Standardized_SMILES>  (434) 
COc1cc(C(=O)N(C)C)ccc1Nc1nc(OC2CCCCC2)c2cc[nH]c2n1

>  <Name>  (434) 
nan

>  <Pocket>  (434) 
nan

>  <ATP_Site>  (434) 
nan

>  <Peripheral>  (434) 
nan

>  <Num_H_Atoms_ProtBoundConf>  (434) 
nan

>  <Num_Resolved_Atoms>  (434) 
nan

>  <Num_Not_Resolved_Atoms>  (434) 
nan

$$$$
CHEMBL4643553
     RDKit          3D

  0  0  0  0  0  0  0  0  0  0999 V3000
M  V30 BEGIN CTAB
M  V30 COUNTS 48 51 0 0 0
M  V30 BEGIN ATOM
M  V30 1 N 0.922271 -6.855047 2.618574 0
M  V30 2 C 0.360103 -5.645753 2.134161 0
M  V30 3 C 0.716921 -4.474706 2.767296 0
M  V30 4 C 0.136706 -3.339417 2.249184 0
M  V30 5 C -0.723847 -3.459081 1.177886 0
M  V30 6 C -1.329123 -2.243912 0.643379 0
M  V30 7 C -0.600972 -1.095740 0.412060 0
M  V30 8 C -1.149775 0.053635 -0.086824 0
M  V30 9 N -0.386587 1.231185 -0.313397 0
M  V30 10 C 1.025373 1.290499 0.002347 0 CFG=1
M  V30 11 C 1.685289 2.574716 -0.440736 0
M  V30 12 C 3.183263 2.260554 -0.485228 0
M  V30 13 C 3.751280 2.199479 0.920397 0
M  V30 14 C 2.866250 2.900822 1.911063 0
M  V30 15 N 1.590731 2.342037 2.127517 0
M  V30 16 C 1.268720 1.114685 1.494454 0
M  V30 17 C -2.493116 -0.015127 -0.345701 0
M  V30 18 C -3.186170 1.056000 -0.849471 0
M  V30 19 C -4.532343 1.076656 -1.139188 0
M  V30 20 N -5.247096 -0.054764 -0.911130 0
M  V30 21 C -4.624190 -1.160533 -0.410650 0
M  V30 22 C -3.272325 -1.130535 -0.136570 0
M  V30 23 C -2.680704 -2.280277 0.372299 0
M  V30 24 C -1.067281 -4.641692 0.559756 0
M  V30 25 F -1.919289 -4.690254 -0.488828 0
M  V30 26 N -0.482916 -5.761079 1.085099 0
M  V30 27 H 1.391011 -7.782098 2.629348 0
M  V30 28 H 0.969250 -7.173767 3.629952 0
M  V30 29 H 1.403278 -4.503497 3.599267 0
M  V30 30 H 0.379489 -2.389252 2.705942 0
M  V30 31 H 0.428886 -1.190430 0.651391 0
M  V30 32 H -0.744439 2.103894 -0.700891 0
M  V30 33 H 1.526810 0.452484 -0.506771 0
M  V30 34 H 1.446011 3.443585 0.166996 0
M  V30 35 H 1.355045 2.783462 -1.470354 0
M  V30 36 H 3.719763 2.943753 -1.152885 0
M  V30 37 H 3.268042 1.230718 -0.898159 0
M  V30 38 H 4.701447 2.778278 0.894182 0
M  V30 39 H 4.053549 1.178525 1.228376 0
M  V30 40 H 3.439842 2.908161 2.877815 0
M  V30 41 H 2.817046 3.962526 1.596904 0
M  V30 42 H 0.808455 3.008281 2.033718 0
M  V30 43 H 1.968883 0.289093 1.720093 0
M  V30 44 H 0.275147 0.792856 1.930887 0
M  V30 45 H -2.691716 1.989468 -1.060240 0
M  V30 46 H -5.038863 1.942639 -1.534739 0
M  V30 47 H -5.257960 -2.022264 -0.255875 0
M  V30 48 H -3.286121 -3.165977 0.542016 0
M  V30 END ATOM
M  V30 BEGIN BOND
M  V30 1 1 1 2
M  V30 2 2 2 3
M  V30 3 1 3 4
M  V30 4 2 4 5
M  V30 5 1 5 6
M  V30 6 2 6 7
M  V30 7 1 7 8
M  V30 8 1 8 9
M  V30 9 1 9 10
M  V30 10 1 10 11
M  V30 11 1 11 12
M  V30 12 1 12 13
M  V30 13 1 13 14
M  V30 14 1 14 15
M  V30 15 1 15 16
M  V30 16 2 8 17
M  V30 17 1 17 18
M  V30 18 2 18 19
M  V30 19 1 19 20
M  V30 20 2 20 21
M  V30 21 1 21 22
M  V30 22 2 22 23
M  V30 23 1 5 24
M  V30 24 1 24 25
M  V30 25 2 24 26
M  V30 26 1 26 2
M  V30 27 1 23 6
M  V30 28 1 16 10
M  V30 29 1 22 17
M  V30 30 1 1 27
M  V30 31 1 1 28
M  V30 32 1 3 29
M  V30 33 1 4 30
M  V30 34 1 7 31
M  V30 35 1 9 32
M  V30 36 1 10 33 CFG=3
M  V30 37 1 11 34
M  V30 38 1 11 35
M  V30 39 1 12 36
M  V30 40 1 12 37
M  V30 41 1 13 38
M  V30 42 1 13 39
M  V30 43 1 14 40
M  V30 44 1 14 41
M  V30 45 1 15 42
M  V30 46 1 16 43
M  V30 47 1 16 44
M  V30 48 1 18 45
M  V30 49 1 19 46
M  V30 50 1 21 47
M  V30 51 1 23 48
M  V30 END BOND
M  V30 END CTAB
M  END
>  <Dataset>  (435) 
ChEMBL_Kinases

>  <Ligand_Instance>  (435) 
nan

>  <PDB_ID>  (435) 
nan

>  <Standardized_SMILES>  (435) 
Nc1ccc(-c2cc(N[C@H]3CCCCNC3)c3ccncc3c2)c(F)n1

>  <Name>  (435) 
nan

>  <Pocket>  (435) 
nan

>  <ATP_Site>  (435) 
nan

>  <Peripheral>  (435) 
nan

>  <Num_H_Atoms_ProtBoundConf>  (435) 
nan

>  <Num_Resolved_Atoms>  (435) 
nan

>  <Num_Not_Resolved_Atoms>  (435) 
nan

$$$$
CHEMBL4530280
     RDKit          3D

  0  0  0  0  0  0  0  0  0  0999 V3000
M  V30 BEGIN CTAB
M  V30 COUNTS 27 29 0 0 0
M  V30 BEGIN ATOM
M  V30 1 N -0.746596 -3.433753 2.533341 0
M  V30 2 C -0.408907 -2.390769 2.172971 0
M  V30 3 C 0.005812 -1.107956 1.755789 0
M  V30 4 C 0.172502 -0.676843 0.468033 0
M  V30 5 C -0.008144 -1.344467 -0.793150 0
M  V30 6 C -0.411158 -2.637100 -0.997873 0
M  V30 7 C -0.573765 -3.244672 -2.220708 0
M  V30 8 C -0.319508 -2.525474 -3.368120 0
M  V30 9 C 0.091082 -1.214988 -3.245011 0
M  V30 10 C 0.229198 -0.681994 -1.981939 0
M  V30 11 N 0.573788 0.603253 0.579103 0
M  V30 12 C 0.661068 0.976742 1.863481 0
M  V30 13 C 1.016341 2.150163 2.493437 0
M  V30 14 I 1.569106 3.817004 1.367701 0
M  V30 15 C 1.018886 2.262609 3.877122 0
M  V30 16 C 0.659779 1.183230 4.654850 0
M  V30 17 C 0.301464 0.001685 4.044979 0
M  V30 18 C 0.305420 -0.090539 2.656262 0
M  V30 19 H -0.625047 -3.252048 -0.164282 0
M  V30 20 H -0.893403 -4.264776 -2.315354 0
M  V30 21 H -0.419162 -2.916889 -4.370249 0
M  V30 22 H 0.294676 -0.636933 -4.135169 0
M  V30 23 H 0.560589 0.368516 -1.977996 0
M  V30 24 H 0.811685 1.299348 -0.187430 0
M  V30 25 H 1.296555 3.181242 4.389722 0
M  V30 26 H 0.666282 1.285778 5.740994 0
M  V30 27 H 0.017116 -0.854729 4.637729 0
M  V30 END ATOM
M  V30 BEGIN BOND
M  V30 1 3 1 2
M  V30 2 1 2 3
M  V30 3 2 3 4
M  V30 4 1 4 5
M  V30 5 2 5 6
M  V30 6 1 6 7
M  V30 7 2 7 8
M  V30 8 1 8 9
M  V30 9 2 9 10
M  V30 10 1 4 11
M  V30 11 1 11 12
M  V30 12 2 12 13
M  V30 13 1 13 14
M  V30 14 1 13 15
M  V30 15 2 15 16
M  V30 16 1 16 17
M  V30 17 2 17 18
M  V30 18 1 18 3
M  V30 19 1 10 5
M  V30 20 1 18 12
M  V30 21 1 6 19
M  V30 22 1 7 20
M  V30 23 1 8 21
M  V30 24 1 9 22
M  V30 25 1 10 23
M  V30 26 1 11 24
M  V30 27 1 15 25
M  V30 28 1 16 26
M  V30 29 1 17 27
M  V30 END BOND
M  V30 END CTAB
M  END
>  <Dataset>  (436) 
ChEMBL_Kinases

>  <Ligand_Instance>  (436) 
nan

>  <PDB_ID>  (436) 
nan

>  <Standardized_SMILES>  (436) 
N#Cc1c(-c2ccccc2)[nH]c2c(I)cccc12

>  <Name>  (436) 
nan

>  <Pocket>  (436) 
nan

>  <ATP_Site>  (436) 
nan

>  <Peripheral>  (436) 
nan

>  <Num_H_Atoms_ProtBoundConf>  (436) 
nan

>  <Num_Resolved_Atoms>  (436) 
nan

>  <Num_Not_Resolved_Atoms>  (436) 
nan

$$$$
CHEMBL4529234
     RDKit          3D

  0  0  0  0  0  0  0  0  0  0999 V3000
M  V30 BEGIN CTAB
M  V30 COUNTS 47 50 0 0 0
M  V30 BEGIN ATOM
M  V30 1 C 0.186152 -7.081542 2.627016 0
M  V30 2 O 1.170490 -6.090466 2.710068 0
M  V30 3 C 1.660892 -5.330760 1.682772 0
M  V30 4 C 1.225581 -5.455852 0.387480 0
M  V30 5 C 1.687722 -4.712159 -0.692190 0
M  V30 6 C 2.670405 -3.785320 -0.357826 0
M  V30 7 C 3.252866 -2.919361 -1.431899 0
M  V30 8 N 2.445157 -1.716447 -1.507943 0
M  V30 9 C 2.597590 -0.556652 -0.842883 0
M  V30 10 C 1.586439 0.271572 -1.256062 0
M  V30 11 C 1.372557 1.644608 -0.781400 0
M  V30 12 O 2.146020 2.151240 0.069701 0
M  V30 13 N 0.256563 2.387917 -1.317621 0
M  V30 14 N 0.188143 3.673689 -0.768545 0
M  V30 15 C -0.595260 4.006527 0.200182 0
M  V30 16 C -0.764097 5.316168 0.866482 0
M  V30 17 O -0.113349 6.361390 0.550284 0
M  V30 18 N -1.754384 5.158406 1.877228 0
M  V30 19 C -2.202328 3.809552 1.862270 0
M  V30 20 C -3.161427 3.178725 2.664499 0
M  V30 21 C -3.885943 3.941492 3.728565 0
M  V30 22 C -3.445159 1.821574 2.469197 0
M  V30 23 C -2.782900 1.112526 1.492203 0
M  V30 24 C -1.833083 1.780789 0.713831 0
M  V30 25 C -1.527706 3.115640 0.877524 0
M  V30 26 N 0.860445 -0.392970 -2.143549 0
M  V30 27 N 1.381815 -1.599040 -2.296031 0
M  V30 28 C 3.154629 -3.610039 0.937817 0
M  V30 29 C 2.628109 -4.403190 1.950331 0
M  V30 30 H -0.786803 -6.742935 3.068191 0
M  V30 31 H 0.063034 -7.547637 1.643907 0
M  V30 32 H 0.526667 -7.914105 3.307204 0
M  V30 33 H 0.459163 -6.190134 0.172588 0
M  V30 34 H 1.333666 -4.828604 -1.686629 0
M  V30 35 H 4.289513 -2.651797 -1.217105 0
M  V30 36 H 3.231994 -3.489652 -2.381006 0
M  V30 37 H 3.373610 -0.326368 -0.119493 0
M  V30 38 H -0.413734 2.005599 -2.031342 0
M  V30 39 H -2.076741 5.908146 2.502323 0
M  V30 40 H -3.296763 3.964815 4.680886 0
M  V30 41 H -4.796437 3.376760 3.972415 0
M  V30 42 H -4.064570 4.991266 3.436790 0
M  V30 43 H -4.185531 1.365054 3.099725 0
M  V30 44 H -3.014346 0.062562 1.353992 0
M  V30 45 H -1.369944 1.141997 -0.022241 0
M  V30 46 H 3.914441 -2.875635 1.124926 0
M  V30 47 H 2.996929 -4.271622 2.944966 0
M  V30 END ATOM
M  V30 BEGIN BOND
M  V30 1 1 1 2
M  V30 2 1 2 3
M  V30 3 2 3 4
M  V30 4 1 4 5
M  V30 5 2 5 6
M  V30 6 1 6 7
M  V30 7 1 7 8
M  V30 8 1 8 9
M  V30 9 2 9 10
M  V30 10 1 10 11
M  V30 11 2 11 12
M  V30 12 1 11 13
M  V30 13 1 13 14
M  V30 14 2 14 15
M  V30 15 1 15 16
M  V30 16 2 16 17
M  V30 17 1 16 18
M  V30 18 1 18 19
M  V30 19 2 19 20
M  V30 20 1 20 21
M  V30 21 1 20 22
M  V30 22 2 22 23
M  V30 23 1 23 24
M  V30 24 2 24 25
M  V30 25 1 10 26
M  V30 26 2 26 27
M  V30 27 1 6 28
M  V30 28 2 28 29
M  V30 29 1 29 3
M  V30 30 1 27 8
M  V30 31 1 25 15
M  V30 32 1 25 19
M  V30 33 1 1 30
M  V30 34 1 1 31
M  V30 35 1 1 32
M  V30 36 1 4 33
M  V30 37 1 5 34
M  V30 38 1 7 35
M  V30 39 1 7 36
M  V30 40 1 9 37
M  V30 41 1 13 38
M  V30 42 1 18 39
M  V30 43 1 21 40
M  V30 44 1 21 41
M  V30 45 1 21 42
M  V30 46 1 22 43
M  V30 47 1 23 44
M  V30 48 1 24 45
M  V30 49 1 28 46
M  V30 50 1 29 47
M  V30 END BOND
M  V30 END CTAB
M  END
>  <Dataset>  (437) 
ChEMBL_Kinases

>  <Ligand_Instance>  (437) 
nan

>  <PDB_ID>  (437) 
nan

>  <Standardized_SMILES>  (437) 
COc1ccc(Cn2cc(C(=O)N/N=C3/C(=O)Nc4c(C)cccc43)nn2)cc1

>  <Name>  (437) 
nan

>  <Pocket>  (437) 
nan

>  <ATP_Site>  (437) 
nan

>  <Peripheral>  (437) 
nan

>  <Num_H_Atoms_ProtBoundConf>  (437) 
nan

>  <Num_Resolved_Atoms>  (437) 
nan

>  <Num_Not_Resolved_Atoms>  (437) 
nan

$$$$
CHEMBL4529993
     RDKit          3D

  0  0  0  0  0  0  0  0  0  0999 V3000
M  V30 BEGIN CTAB
M  V30 COUNTS 44 47 0 0 0
M  V30 BEGIN ATOM
M  V30 1 C 2.616490 -7.008433 2.679017 0
M  V30 2 O 1.794505 -6.589961 1.624353 0
M  V30 3 C 1.523747 -5.280676 1.314582 0
M  V30 4 C 2.039302 -4.211242 2.018068 0
M  V30 5 C 1.744357 -2.906676 1.676619 0
M  V30 6 C 0.916337 -2.611663 0.610638 0
M  V30 7 C 0.589816 -1.239624 0.230510 0
M  V30 8 C 0.523984 -0.300169 1.239671 0
M  V30 9 N 0.225848 0.965421 0.903545 0
M  V30 10 C -0.016261 1.402173 -0.340558 0
M  V30 11 C -0.327812 2.657172 -0.803544 0
M  V30 12 C -0.482063 3.916783 0.021409 0
M  V30 13 C -0.798047 5.072618 -0.654460 0
M  V30 14 C -0.962500 6.288144 0.016314 0
M  V30 15 C -0.806168 6.336704 1.385097 0
M  V30 16 C -0.489444 5.169916 2.048437 0
M  V30 17 C -0.316083 5.200276 3.524534 0
M  V30 18 C -0.329241 3.978076 1.381614 0
M  V30 19 S -0.525586 2.638743 -2.437201 0
M  V30 20 N -0.185107 0.811330 -2.680392 0
M  V30 21 C 0.039901 0.495984 -1.373944 0
M  V30 22 C 0.346580 -0.834148 -1.073598 0
M  V30 23 C 0.396771 -3.688655 -0.098305 0
M  V30 24 C 0.696110 -4.989387 0.249225 0
M  V30 25 O 0.167407 -6.073743 -0.470958 0
M  V30 26 C -0.678255 -5.740279 -1.555943 0
M  V30 27 H 2.756056 -8.105792 2.631878 0
M  V30 28 H 3.599123 -6.515351 2.575004 0
M  V30 29 H 2.165969 -6.725545 3.651469 0
M  V30 30 H 2.692342 -4.386347 2.860511 0
M  V30 31 H 2.160332 -2.057837 2.243735 0
M  V30 32 H 0.699748 -0.520395 2.297544 0
M  V30 33 H -0.941711 5.143327 -1.717443 0
M  V30 34 H -1.211284 7.204335 -0.501869 0
M  V30 35 H -0.935797 7.282474 1.894851 0
M  V30 36 H 0.491598 4.469884 3.773251 0
M  V30 37 H 0.035627 6.177828 3.905791 0
M  V30 38 H -1.218457 4.836475 4.065540 0
M  V30 39 H -0.081128 3.069550 1.907821 0
M  V30 40 H 0.427742 -1.648904 -1.753691 0
M  V30 41 H -0.246380 -3.464313 -0.926321 0
M  V30 42 H -1.129813 -6.638810 -2.022656 0
M  V30 43 H -1.486269 -5.068128 -1.144206 0
M  V30 44 H -0.084401 -5.181956 -2.298352 0
M  V30 END ATOM
M  V30 BEGIN BOND
M  V30 1 1 1 2
M  V30 2 1 2 3
M  V30 3 2 3 4
M  V30 4 1 4 5
M  V30 5 2 5 6
M  V30 6 1 6 7
M  V30 7 1 7 8
M  V30 8 2 8 9
M  V30 9 1 9 10
M  V30 10 2 10 11
M  V30 11 1 11 12
M  V30 12 2 12 13
M  V30 13 1 13 14
M  V30 14 2 14 15
M  V30 15 1 15 16
M  V30 16 1 16 17
M  V30 17 2 16 18
M  V30 18 1 11 19
M  V30 19 1 19 20
M  V30 20 2 20 21
M  V30 21 1 21 22
M  V30 22 1 6 23
M  V30 23 2 23 24
M  V30 24 1 24 25
M  V30 25 1 25 26
M  V30 26 1 24 3
M  V30 27 2 22 7
M  V30 28 1 21 10
M  V30 29 1 18 12
M  V30 30 1 1 27
M  V30 31 1 1 28
M  V30 32 1 1 29
M  V30 33 1 4 30
M  V30 34 1 5 31
M  V30 35 1 8 32
M  V30 36 1 13 33
M  V30 37 1 14 34
M  V30 38 1 15 35
M  V30 39 1 17 36
M  V30 40 1 17 37
M  V30 41 1 17 38
M  V30 42 1 18 39
M  V30 43 1 22 40
M  V30 44 1 23 41
M  V30 45 1 26 42
M  V30 46 1 26 43
M  V30 47 1 26 44
M  V30 END BOND
M  V30 END CTAB
M  END
>  <Dataset>  (438) 
ChEMBL_Kinases

>  <Ligand_Instance>  (438) 
nan

>  <PDB_ID>  (438) 
nan

>  <Standardized_SMILES>  (438) 
COc1ccc(-c2cnc3c(-c4cccc(C)c4)snc3c2)cc1OC

>  <Name>  (438) 
nan

>  <Pocket>  (438) 
nan

>  <ATP_Site>  (438) 
nan

>  <Peripheral>  (438) 
nan

>  <Num_H_Atoms_ProtBoundConf>  (438) 
nan

>  <Num_Resolved_Atoms>  (438) 
nan

>  <Num_Not_Resolved_Atoms>  (438) 
nan

$$$$
CHEMBL4529796
     RDKit          3D

  0  0  0  0  0  0  0  0  0  0999 V3000
M  V30 BEGIN CTAB
M  V30 COUNTS 40 44 0 0 0
M  V30 BEGIN ATOM
M  V30 1 C 1.223530 -4.451922 2.587145 0
M  V30 2 C 1.135414 -2.991043 3.077085 0
M  V30 3 N 0.993758 -2.024152 2.062601 0
M  V30 4 C 0.298360 -1.358821 1.038909 0
M  V30 5 N 0.855561 -0.342394 0.312556 0
M  V30 6 C 0.187562 0.286068 -0.655525 0
M  V30 7 N 0.910901 1.320626 -1.314949 0
M  V30 8 C 1.872763 0.996953 -2.228651 0
M  V30 9 C 2.404079 2.194588 -2.703536 0
M  V30 10 C 1.758840 3.241356 -2.072627 0
M  V30 11 N 1.856033 4.589128 -2.135039 0
M  V30 12 C 1.029966 5.313098 -1.340670 0
M  V30 13 C 0.096060 4.802121 -0.471408 0
M  V30 14 C 0.011864 3.426809 -0.421841 0
M  V30 15 C 0.839047 2.655578 -1.218286 0
M  V30 16 N -1.070592 -0.075383 -0.940385 0
M  V30 17 C -1.737540 -1.053761 -0.307592 0
M  V30 18 C -3.034148 -1.396271 -0.623885 0
M  V30 19 N -3.644348 -2.385719 0.057088 0
M  V30 20 C -2.995369 -3.049900 1.052809 0
M  V30 21 C -1.698563 -2.664510 1.326038 0
M  V30 22 C -0.997639 -1.667003 0.682334 0
M  V30 23 C 0.431929 -2.836599 4.392871 0
M  V30 24 C 1.927614 -2.759150 4.343154 0
M  V30 25 H 0.764052 -5.147825 3.310277 0
M  V30 26 H 0.723258 -4.502814 1.605423 0
M  V30 27 H 2.305675 -4.699915 2.422406 0
M  V30 28 H 1.968489 -1.606573 2.154381 0
M  V30 29 H 2.245378 0.052582 -2.600357 0
M  V30 30 H 3.188125 2.354394 -3.439142 0
M  V30 31 H 1.172966 6.389913 -1.452134 0
M  V30 32 H -0.499169 5.491058 0.104606 0
M  V30 33 H -0.718758 2.988711 0.257389 0
M  V30 34 H -3.557800 -0.864328 -1.423163 0
M  V30 35 H -3.495880 -3.842378 1.592544 0
M  V30 36 H -1.241972 -3.219548 2.124081 0
M  V30 37 H -0.054714 -3.735231 4.842940 0
M  V30 38 H -0.173808 -1.895003 4.474532 0
M  V30 39 H 2.492181 -3.604467 4.776260 0
M  V30 40 H 2.430372 -1.776720 4.457585 0
M  V30 END ATOM
M  V30 BEGIN BOND
M  V30 1 1 1 2
M  V30 2 1 2 3
M  V30 3 1 3 4
M  V30 4 2 4 5
M  V30 5 1 5 6
M  V30 6 1 6 7
M  V30 7 1 7 8
M  V30 8 2 8 9
M  V30 9 1 9 10
M  V30 10 2 10 11
M  V30 11 1 11 12
M  V30 12 2 12 13
M  V30 13 1 13 14
M  V30 14 2 14 15
M  V30 15 2 6 16
M  V30 16 1 16 17
M  V30 17 2 17 18
M  V30 18 1 18 19
M  V30 19 2 19 20
M  V30 20 1 20 21
M  V30 21 2 21 22
M  V30 22 1 2 23
M  V30 23 1 23 24
M  V30 24 1 24 2
M  V30 25 1 22 4
M  V30 26 1 15 7
M  V30 27 1 22 17
M  V30 28 1 15 10
M  V30 29 1 1 25
M  V30 30 1 1 26
M  V30 31 1 1 27
M  V30 32 1 3 28
M  V30 33 1 8 29
M  V30 34 1 9 30
M  V30 35 1 12 31
M  V30 36 1 13 32
M  V30 37 1 14 33
M  V30 38 1 18 34
M  V30 39 1 20 35
M  V30 40 1 21 36
M  V30 41 1 23 37
M  V30 42 1 23 38
M  V30 43 1 24 39
M  V30 44 1 24 40
M  V30 END BOND
M  V30 END CTAB
M  END
>  <Dataset>  (439) 
ChEMBL_Kinases

>  <Ligand_Instance>  (439) 
nan

>  <PDB_ID>  (439) 
nan

>  <Standardized_SMILES>  (439) 
CC1(Nc2nc(-n3ccc4ncccc43)nc3cnccc23)CC1

>  <Name>  (439) 
nan

>  <Pocket>  (439) 
nan

>  <ATP_Site>  (439) 
nan

>  <Peripheral>  (439) 
nan

>  <Num_H_Atoms_ProtBoundConf>  (439) 
nan

>  <Num_Resolved_Atoms>  (439) 
nan

>  <Num_Not_Resolved_Atoms>  (439) 
nan

$$$$
CHEMBL4529738
     RDKit          3D

  0  0  0  0  0  0  0  0  0  0999 V3000
M  V30 BEGIN CTAB
M  V30 COUNTS 48 51 0 0 0
M  V30 BEGIN ATOM
M  V30 1 C 1.073368 -6.271259 -2.402657 0
M  V30 2 N 1.835314 -5.825848 -1.252260 0
M  V30 3 N 2.700673 -6.628495 -0.610170 0
M  V30 4 C 3.254698 -5.945105 0.408709 0
M  V30 5 C 2.684913 -4.691373 0.354103 0
M  V30 6 Cl 3.163812 -3.499029 1.540223 0
M  V30 7 C 1.790180 -4.609644 -0.689585 0
M  V30 8 C 1.008564 -3.437829 -1.042669 0
M  V30 9 C 0.089355 -3.212737 -2.043169 0
M  V30 10 O -0.390071 -1.995219 -2.006641 0
M  V30 11 C 0.163754 -1.329636 -0.997195 0
M  V30 12 C -0.150259 0.060075 -0.672671 0
M  V30 13 O -0.993519 0.635380 -1.403261 0
M  V30 14 N 0.491085 0.690669 0.425088 0
M  V30 15 C 0.254378 2.052528 0.829231 0 CFG=2
M  V30 16 C 1.491482 2.880406 0.970611 0
M  V30 17 N 1.947387 2.939764 2.349430 0
M  V30 18 C 1.026997 3.660887 3.197414 0
M  V30 19 C -0.414741 3.300072 2.904953 0
M  V30 20 C -0.401955 1.959527 2.212029 0 CFG=1
M  V30 21 C -1.785404 1.402074 2.066528 0
M  V30 22 C -2.136803 0.195499 2.637507 0
M  V30 23 C -3.431966 -0.237809 2.450739 0
M  V30 24 C -4.337624 0.507269 1.721856 0
M  V30 25 F -5.636829 0.160293 1.484453 0
M  V30 26 C -3.985514 1.726195 1.144065 0
M  V30 27 F -4.842910 2.487792 0.421928 0
M  V30 28 C -2.676703 2.158733 1.335846 0
M  V30 29 C 1.031183 -2.219413 -0.396843 0
M  V30 30 H -0.035840 -6.223247 -2.227944 0
M  V30 31 H 1.267894 -5.687698 -3.322015 0
M  V30 32 H 1.317372 -7.322798 -2.672897 0
M  V30 33 H 3.986698 -6.378618 1.076447 0
M  V30 34 H -0.226748 -3.924384 -2.787699 0
M  V30 35 H 1.199502 0.163049 1.016356 0
M  V30 36 H -0.506908 2.489231 0.127825 0
M  V30 37 H 2.346671 2.435153 0.404943 0
M  V30 38 H 1.388102 3.917911 0.588969 0
M  V30 39 H 2.228444 2.025991 2.719810 0
M  V30 40 H 1.300605 3.442422 4.245193 0
M  V30 41 H 1.223006 4.743539 3.036572 0
M  V30 42 H -0.872237 4.087124 2.273815 0
M  V30 43 H -0.912583 3.165425 3.866052 0
M  V30 44 H 0.243165 1.286557 2.812473 0
M  V30 45 H -1.433741 -0.380554 3.201997 0
M  V30 46 H -3.785455 -1.161533 2.859558 0
M  V30 47 H -2.390630 3.112330 0.887381 0
M  V30 48 H 1.583864 -1.870878 0.450301 0
M  V30 END ATOM
M  V30 BEGIN BOND
M  V30 1 1 1 2
M  V30 2 1 2 3
M  V30 3 2 3 4
M  V30 4 1 4 5
M  V30 5 1 5 6
M  V30 6 2 5 7
M  V30 7 1 7 8
M  V30 8 2 8 9
M  V30 9 1 9 10
M  V30 10 1 10 11
M  V30 11 1 11 12
M  V30 12 2 12 13
M  V30 13 1 12 14
M  V30 14 1 14 15
M  V30 15 1 15 16
M  V30 16 1 16 17
M  V30 17 1 17 18
M  V30 18 1 18 19
M  V30 19 1 19 20
M  V30 20 1 20 21
M  V30 21 2 21 22
M  V30 22 1 22 23
M  V30 23 2 23 24
M  V30 24 1 24 25
M  V30 25 1 24 26
M  V30 26 1 26 27
M  V30 27 2 26 28
M  V30 28 2 11 29
M  V30 29 1 7 2
M  V30 30 1 29 8
M  V30 31 1 20 15
M  V30 32 1 28 21
M  V30 33 1 1 30
M  V30 34 1 1 31
M  V30 35 1 1 32
M  V30 36 1 4 33
M  V30 37 1 9 34
M  V30 38 1 14 35
M  V30 39 1 15 36 CFG=3
M  V30 40 1 16 37
M  V30 41 1 16 38
M  V30 42 1 17 39
M  V30 43 1 18 40
M  V30 44 1 18 41
M  V30 45 1 19 42
M  V30 46 1 19 43
M  V30 47 1 20 44 CFG=1
M  V30 48 1 22 45
M  V30 49 1 23 46
M  V30 50 1 28 47
M  V30 51 1 29 48
M  V30 END BOND
M  V30 END CTAB
M  END
>  <Dataset>  (440) 
ChEMBL_Kinases

>  <Ligand_Instance>  (440) 
nan

>  <PDB_ID>  (440) 
nan

>  <Standardized_SMILES>  (440) 
Cn1ncc(Cl)c1-c1coc(C(=O)N[C@@H]2CNCC[C@H]2c2ccc(F)c(F)c2)c1

>  <Name>  (440) 
nan

>  <Pocket>  (440) 
nan

>  <ATP_Site>  (440) 
nan

>  <Peripheral>  (440) 
nan

>  <Num_H_Atoms_ProtBoundConf>  (440) 
nan

>  <Num_Resolved_Atoms>  (440) 
nan

>  <Num_Not_Resolved_Atoms>  (440) 
nan

$$$$
CHEMBL4643565
     RDKit          3D

  0  0  0  0  0  0  0  0  0  0999 V3000
M  V30 BEGIN CTAB
M  V30 COUNTS 44 47 0 0 0
M  V30 BEGIN ATOM
M  V30 1 C 0.792240 -6.420343 -2.073580 0
M  V30 2 O 1.375366 -5.167919 -1.720366 0
M  V30 3 C 1.263255 -4.054615 -2.516987 0
M  V30 4 C 0.582693 -4.057953 -3.714048 0
M  V30 5 C 0.536397 -2.877355 -4.430944 0
M  V30 6 C 1.155239 -1.766824 -3.938425 0
M  V30 7 C 1.854826 -1.731254 -2.725177 0
M  V30 8 C 2.447343 -0.440432 -2.377044 0
M  V30 9 N 1.493502 0.373390 -1.606447 0
M  V30 10 C 0.703152 1.153960 -2.358648 0
M  V30 11 N -0.173439 1.901973 -1.664904 0
M  V30 12 C -0.227098 1.846363 -0.306369 0
M  V30 13 S -1.250850 2.686606 0.936380 0
M  V30 14 C -0.493866 1.887135 2.329982 0
M  V30 15 C -0.942092 2.190921 3.705907 0
M  V30 16 C -1.958986 3.106671 3.885696 0
M  V30 17 C -2.272037 3.289677 5.225997 0
M  V30 18 N -1.667212 2.658078 6.248385 0
M  V30 19 C -0.667123 1.762755 6.002779 0
M  V30 20 O -0.002776 1.077698 7.012797 0
M  V30 21 C -0.411025 1.348408 8.344340 0
M  V30 22 C -0.284954 1.512921 4.709830 0
M  V30 23 C 0.419635 1.092656 1.801544 0
M  V30 24 C 0.582765 1.048239 0.442271 0
M  V30 25 C 1.483400 0.279792 -0.271403 0
M  V30 26 O 2.285746 -0.495306 0.269133 0
M  V30 27 C 1.885724 -2.923122 -2.029380 0
M  V30 28 H 0.688170 -7.077099 -1.198820 0
M  V30 29 H -0.210005 -6.243269 -2.518222 0
M  V30 30 H 1.439526 -6.923519 -2.810446 0
M  V30 31 H 0.105791 -4.957034 -4.070300 0
M  V30 32 H 0.001845 -2.896317 -5.362400 0
M  V30 33 H 1.064221 -0.888461 -4.571452 0
M  V30 34 H 3.389955 -0.577620 -1.770562 0
M  V30 35 H 2.782242 0.083754 -3.286763 0
M  V30 36 H 0.675805 1.261346 -3.427828 0
M  V30 37 H -2.452257 3.619128 3.086260 0
M  V30 38 H -3.069231 3.997320 5.500206 0
M  V30 39 H -0.206850 2.407084 8.609308 0
M  V30 40 H 0.220495 0.753088 9.064017 0
M  V30 41 H -1.463231 1.037422 8.511761 0
M  V30 42 H 0.505345 0.806199 4.505494 0
M  V30 43 H 0.985485 0.518994 2.532484 0
M  V30 44 H 2.430754 -2.873956 -1.096469 0
M  V30 END ATOM
M  V30 BEGIN BOND
M  V30 1 1 1 2
M  V30 2 1 2 3
M  V30 3 2 3 4
M  V30 4 1 4 5
M  V30 5 2 5 6
M  V30 6 1 6 7
M  V30 7 1 7 8
M  V30 8 1 8 9
M  V30 9 1 9 10
M  V30 10 2 10 11
M  V30 11 1 11 12
M  V30 12 1 12 13
M  V30 13 1 13 14
M  V30 14 1 14 15
M  V30 15 2 15 16
M  V30 16 1 16 17
M  V30 17 2 17 18
M  V30 18 1 18 19
M  V30 19 1 19 20
M  V30 20 1 20 21
M  V30 21 2 19 22
M  V30 22 2 14 23
M  V30 23 1 23 24
M  V30 24 1 24 25
M  V30 25 2 25 26
M  V30 26 2 7 27
M  V30 27 1 27 3
M  V30 28 1 25 9
M  V30 29 2 24 12
M  V30 30 1 22 15
M  V30 31 1 1 28
M  V30 32 1 1 29
M  V30 33 1 1 30
M  V30 34 1 4 31
M  V30 35 1 5 32
M  V30 36 1 6 33
M  V30 37 1 8 34
M  V30 38 1 8 35
M  V30 39 1 10 36
M  V30 40 1 16 37
M  V30 41 1 17 38
M  V30 42 1 21 39
M  V30 43 1 21 40
M  V30 44 1 21 41
M  V30 45 1 22 42
M  V30 46 1 23 43
M  V30 47 1 27 44
M  V30 END BOND
M  V30 END CTAB
M  END
>  <Dataset>  (441) 
ChEMBL_Kinases

>  <Ligand_Instance>  (441) 
nan

>  <PDB_ID>  (441) 
nan

>  <Standardized_SMILES>  (441) 
COc1cccc(Cn2cnc3sc(-c4ccnc(OC)c4)cc3c2=O)c1

>  <Name>  (441) 
nan

>  <Pocket>  (441) 
nan

>  <ATP_Site>  (441) 
nan

>  <Peripheral>  (441) 
nan

>  <Num_H_Atoms_ProtBoundConf>  (441) 
nan

>  <Num_Resolved_Atoms>  (441) 
nan

>  <Num_Not_Resolved_Atoms>  (441) 
nan

$$$$
CHEMBL4529655
     RDKit          3D

  0  0  0  0  0  0  0  0  0  0999 V3000
M  V30 BEGIN CTAB
M  V30 COUNTS 45 48 0 0 0
M  V30 BEGIN ATOM
M  V30 1 C -0.588561 -6.327704 -1.946854 0
M  V30 2 C -0.397841 -4.860884 -1.786257 0
M  V30 3 C 0.133053 -4.194732 -2.868573 0
M  V30 4 C 0.365163 -2.818760 -2.844824 0
M  V30 5 C 0.070275 -2.066168 -1.727702 0
M  V30 6 C 0.341316 -0.628901 -1.726982 0
M  V30 7 O 0.852587 -0.213381 -2.798886 0
M  V30 8 C 0.058698 0.286502 -0.598086 0
M  V30 9 C 1.330651 0.992893 -0.207700 0
M  V30 10 O 2.299969 0.070809 0.173964 0
M  V30 11 C 1.871821 1.923261 -1.185127 0
M  V30 12 O 2.307894 1.906724 -2.382116 0
M  V30 13 N 1.934044 3.248517 -0.640880 0
M  V30 14 C 1.435579 3.211192 0.710441 0
M  V30 15 C 1.243890 4.134355 1.741389 0
M  V30 16 C 0.725381 3.746279 2.963080 0
M  V30 17 C 0.388325 2.423020 3.176306 0
M  V30 18 N -0.136870 2.087687 4.455801 0
M  V30 19 C -0.527436 0.759765 4.784464 0
M  V30 20 C -1.734613 0.105981 4.680593 0
M  V30 21 C -1.431601 -1.150868 5.167526 0
M  V30 22 C -0.102568 -1.232467 5.541866 0
M  V30 23 O 0.397372 -0.039707 5.285793 0
M  V30 24 C 0.563198 1.483672 2.182672 0
M  V30 25 C 1.083028 1.903441 0.974189 0
M  V30 26 C -0.455347 -2.765273 -0.675312 0
M  V30 27 C -0.697191 -4.115132 -0.662531 0
M  V30 28 H 0.349750 -6.883216 -1.700920 0
M  V30 29 H -0.939824 -6.591737 -2.955833 0
M  V30 30 H -1.317748 -6.642324 -1.174545 0
M  V30 31 H 0.385631 -4.748750 -3.787433 0
M  V30 32 H 0.788746 -2.390359 -3.758635 0
M  V30 33 H -0.398927 -0.272630 0.210538 0
M  V30 34 H -0.700720 1.029571 -0.985107 0
M  V30 35 H 3.185814 0.483655 0.208859 0
M  V30 36 H 2.239862 4.204186 -0.969653 0
M  V30 37 H 1.512353 5.165673 1.555023 0
M  V30 38 H 0.601401 4.514109 3.720237 0
M  V30 39 H -0.264757 2.788679 5.211906 0
M  V30 40 H -2.628111 0.554205 4.303035 0
M  V30 41 H -2.186602 -1.954737 5.230643 0
M  V30 42 H 0.429107 -2.083646 5.957314 0
M  V30 43 H 0.266057 0.495973 2.466274 0
M  V30 44 H -0.711641 -2.256031 0.228275 0
M  V30 45 H -1.111773 -4.655746 0.173915 0
M  V30 END ATOM
M  V30 BEGIN BOND
M  V30 1 1 1 2
M  V30 2 2 2 3
M  V30 3 1 3 4
M  V30 4 2 4 5
M  V30 5 1 5 6
M  V30 6 2 6 7
M  V30 7 1 6 8
M  V30 8 1 8 9
M  V30 9 1 9 10
M  V30 10 1 9 11
M  V30 11 2 11 12
M  V30 12 1 11 13
M  V30 13 1 13 14
M  V30 14 2 14 15
M  V30 15 1 15 16
M  V30 16 2 16 17
M  V30 17 1 17 18
M  V30 18 1 18 19
M  V30 19 2 19 20
M  V30 20 1 20 21
M  V30 21 2 21 22
M  V30 22 1 22 23
M  V30 23 1 17 24
M  V30 24 2 24 25
M  V30 25 1 5 26
M  V30 26 2 26 27
M  V30 27 1 27 2
M  V30 28 1 25 9
M  V30 29 1 25 14
M  V30 30 1 23 19
M  V30 31 1 1 28
M  V30 32 1 1 29
M  V30 33 1 1 30
M  V30 34 1 3 31
M  V30 35 1 4 32
M  V30 36 1 8 33
M  V30 37 1 8 34
M  V30 38 1 10 35
M  V30 39 1 13 36
M  V30 40 1 15 37
M  V30 41 1 16 38
M  V30 42 1 18 39
M  V30 43 1 20 40
M  V30 44 1 21 41
M  V30 45 1 22 42
M  V30 46 1 24 43
M  V30 47 1 26 44
M  V30 48 1 27 45
M  V30 END BOND
M  V30 END CTAB
M  END
>  <Dataset>  (442) 
ChEMBL_Kinases

>  <Ligand_Instance>  (442) 
nan

>  <PDB_ID>  (442) 
nan

>  <Standardized_SMILES>  (442) 
Cc1ccc(C(=O)CC2(O)C(=O)Nc3ccc(Nc4ccco4)cc32)cc1

>  <Name>  (442) 
nan

>  <Pocket>  (442) 
nan

>  <ATP_Site>  (442) 
nan

>  <Peripheral>  (442) 
nan

>  <Num_H_Atoms_ProtBoundConf>  (442) 
nan

>  <Num_Resolved_Atoms>  (442) 
nan

>  <Num_Not_Resolved_Atoms>  (442) 
nan

$$$$
CHEMBL4643569
     RDKit          3D

  0  0  0  0  0  0  0  0  0  0999 V3000
M  V30 BEGIN CTAB
M  V30 COUNTS 47 50 0 0 0
M  V30 BEGIN ATOM
M  V30 1 C 5.724769 -5.549777 -2.186296 0
M  V30 2 O 4.800238 -4.497232 -1.847736 0
M  V30 3 C 3.851175 -4.897320 -0.882496 0
M  V30 4 C 3.807178 -6.173391 -0.325828 0
M  V30 5 C 2.891995 -6.578238 0.611422 0
M  V30 6 C 1.952774 -5.624516 1.016347 0
M  V30 7 C 1.961702 -4.341789 0.485223 0
M  V30 8 C 2.911779 -3.987326 -0.460230 0
M  V30 9 N 2.900325 -2.626174 -0.953515 0
M  V30 10 C 1.948022 -1.684047 -0.479360 0
M  V30 11 N 2.464138 -0.452060 -0.299706 0
M  V30 12 C 1.534324 0.398335 0.153622 0
M  V30 13 C 1.644739 1.756852 0.482586 0
M  V30 14 C 0.527175 2.419353 0.948546 0
M  V30 15 C -0.619871 1.659750 1.046769 0
M  V30 16 C -1.849314 2.283024 1.543468 0
M  V30 17 C -1.657311 3.304643 2.488843 0
M  V30 18 C -2.771896 3.897287 2.985673 0
M  V30 19 C -2.777431 4.996534 3.994191 0
M  V30 20 C -4.026202 3.525978 2.590697 0
M  V30 21 O -5.213996 4.101630 3.070723 0
M  V30 22 C -4.248312 2.537655 1.671711 0
M  V30 23 C -5.524547 2.013909 1.129873 0
M  V30 24 C -3.129586 1.886584 1.122629 0
M  V30 25 C -0.691791 0.321996 0.713468 0
M  V30 26 N 0.398561 -0.320138 0.260862 0
M  V30 27 N 0.663866 -1.561548 -0.122139 0
M  V30 28 H 6.468581 -5.237550 -2.929979 0
M  V30 29 H 6.212649 -5.834663 -1.201047 0
M  V30 30 H 5.130731 -6.437551 -2.498126 0
M  V30 31 H 4.534957 -6.906691 -0.637166 0
M  V30 32 H 2.930314 -7.588392 0.994362 0
M  V30 33 H 1.232222 -5.947051 1.758109 0
M  V30 34 H 1.187864 -3.683160 0.864659 0
M  V30 35 H 3.615535 -2.424146 -1.661724 0
M  V30 36 H 2.597969 2.288647 0.375672 0
M  V30 37 H 0.578157 3.457742 1.213980 0
M  V30 38 H -0.683499 3.630967 2.826771 0
M  V30 39 H -3.570683 4.794895 4.739204 0
M  V30 40 H -1.820201 5.153728 4.493863 0
M  V30 41 H -3.057649 5.974960 3.505741 0
M  V30 42 H -6.000908 3.520649 3.360880 0
M  V30 43 H -5.419637 1.837806 0.031811 0
M  V30 44 H -5.771322 1.039643 1.612290 0
M  V30 45 H -6.284299 2.796480 1.342210 0
M  V30 46 H -3.178438 1.098629 0.392445 0
M  V30 47 H -1.584758 -0.289187 0.778294 0
M  V30 END ATOM
M  V30 BEGIN BOND
M  V30 1 1 1 2
M  V30 2 1 2 3
M  V30 3 2 3 4
M  V30 4 1 4 5
M  V30 5 2 5 6
M  V30 6 1 6 7
M  V30 7 2 7 8
M  V30 8 1 8 9
M  V30 9 1 9 10
M  V30 10 1 10 11
M  V30 11 2 11 12
M  V30 12 1 12 13
M  V30 13 2 13 14
M  V30 14 1 14 15
M  V30 15 1 15 16
M  V30 16 2 16 17
M  V30 17 1 17 18
M  V30 18 1 18 19
M  V30 19 2 18 20
M  V30 20 1 20 21
M  V30 21 1 20 22
M  V30 22 1 22 23
M  V30 23 2 22 24
M  V30 24 2 15 25
M  V30 25 1 25 26
M  V30 26 1 26 27
M  V30 27 1 8 3
M  V30 28 2 27 10
M  V30 29 1 26 12
M  V30 30 1 24 16
M  V30 31 1 1 28
M  V30 32 1 1 29
M  V30 33 1 1 30
M  V30 34 1 4 31
M  V30 35 1 5 32
M  V30 36 1 6 33
M  V30 37 1 7 34
M  V30 38 1 9 35
M  V30 39 1 13 36
M  V30 40 1 14 37
M  V30 41 1 17 38
M  V30 42 1 19 39
M  V30 43 1 19 40
M  V30 44 1 19 41
M  V30 45 1 21 42
M  V30 46 1 23 43
M  V30 47 1 23 44
M  V30 48 1 23 45
M  V30 49 1 24 46
M  V30 50 1 25 47
M  V30 END BOND
M  V30 END CTAB
M  END
>  <Dataset>  (443) 
ChEMBL_Kinases

>  <Ligand_Instance>  (443) 
nan

>  <PDB_ID>  (443) 
nan

>  <Standardized_SMILES>  (443) 
COc1ccccc1Nc1nc2ccc(-c3cc(C)c(O)c(C)c3)cn2n1

>  <Name>  (443) 
nan

>  <Pocket>  (443) 
nan

>  <ATP_Site>  (443) 
nan

>  <Peripheral>  (443) 
nan

>  <Num_H_Atoms_ProtBoundConf>  (443) 
nan

>  <Num_Resolved_Atoms>  (443) 
nan

>  <Num_Not_Resolved_Atoms>  (443) 
nan

$$$$
CHEMBL4643577
     RDKit          3D

  0  0  0  0  0  0  0  0  0  0999 V3000
M  V30 BEGIN CTAB
M  V30 COUNTS 44 46 0 0 0
M  V30 BEGIN ATOM
M  V30 1 C -0.949308 -5.774691 -1.549246 0
M  V30 2 O -0.329753 -4.495656 -1.423850 0
M  V30 3 C 0.780637 -4.108639 -2.131740 0
M  V30 4 N 1.608178 -4.658459 -3.072428 0
M  V30 5 N 2.551094 -3.805031 -3.415556 0
M  V30 6 C 3.582877 -4.099777 -4.396982 0
M  V30 7 C 2.388035 -2.669686 -2.725276 0
M  V30 8 C 1.280867 -2.845872 -1.916071 0
M  V30 9 C 0.835614 -1.757064 -1.040068 0
M  V30 10 O 1.442184 -0.651053 -0.979860 0
M  V30 11 N -0.287299 -1.757165 -0.161592 0
M  V30 12 C -0.254961 -0.445444 0.444879 0
M  V30 13 C -0.977833 0.453988 -0.349731 0
M  V30 14 C -1.021599 1.752123 0.114240 0
M  V30 15 C -0.404521 2.153135 1.273163 0
M  V30 16 C 0.303171 1.218333 2.031983 0
M  V30 17 C 1.021853 1.482123 3.284234 0
M  V30 18 N 2.279395 1.034721 3.427239 0
M  V30 19 N 2.677190 1.411695 4.627675 0
M  V30 20 C 1.645906 2.076619 5.177078 0
M  V30 21 N 0.563880 2.139516 4.336693 0
M  V30 22 C -0.686316 2.780414 4.632914 0
M  V30 23 C -0.657580 4.278764 4.325823 0
M  V30 24 C -1.886392 2.095201 4.080366 0
M  V30 25 N 0.341221 -0.064930 1.565386 0
M  V30 26 H -2.051598 -5.700018 -1.375914 0
M  V30 27 H -0.771834 -6.152115 -2.579169 0
M  V30 28 H -0.461381 -6.499426 -0.867528 0
M  V30 29 H 4.323593 -3.278071 -4.464250 0
M  V30 30 H 4.151138 -5.008568 -4.092238 0
M  V30 31 H 3.170133 -4.257449 -5.425723 0
M  V30 32 H 3.071384 -1.828024 -2.866996 0
M  V30 33 H -0.857035 -2.633012 -0.133842 0
M  V30 34 H -1.505681 0.260401 -1.277292 0
M  V30 35 H -1.541579 2.579045 -0.387520 0
M  V30 36 H -0.411746 3.157321 1.676711 0
M  V30 37 H 1.750756 2.485764 6.188754 0
M  V30 38 H -0.774116 2.749222 5.763327 0
M  V30 39 H -0.632341 4.908058 5.215137 0
M  V30 40 H 0.299409 4.441965 3.768931 0
M  V30 41 H -1.548605 4.552020 3.710787 0
M  V30 42 H -2.396930 2.662194 3.272664 0
M  V30 43 H -1.593877 1.109335 3.702748 0
M  V30 44 H -2.668343 2.037373 4.889727 0
M  V30 END ATOM
M  V30 BEGIN BOND
M  V30 1 1 1 2
M  V30 2 1 2 3
M  V30 3 2 3 4
M  V30 4 1 4 5
M  V30 5 1 5 6
M  V30 6 1 5 7
M  V30 7 2 7 8
M  V30 8 1 8 9
M  V30 9 2 9 10
M  V30 10 1 9 11
M  V30 11 1 11 12
M  V30 12 2 12 13
M  V30 13 1 13 14
M  V30 14 2 14 15
M  V30 15 1 15 16
M  V30 16 1 16 17
M  V30 17 2 17 18
M  V30 18 1 18 19
M  V30 19 2 19 20
M  V30 20 1 20 21
M  V30 21 1 21 22
M  V30 22 1 22 23
M  V30 23 1 22 24
M  V30 24 2 16 25
M  V30 25 1 8 3
M  V30 26 1 25 12
M  V30 27 1 21 17
M  V30 28 1 1 26
M  V30 29 1 1 27
M  V30 30 1 1 28
M  V30 31 1 6 29
M  V30 32 1 6 30
M  V30 33 1 6 31
M  V30 34 1 7 32
M  V30 35 1 11 33
M  V30 36 1 13 34
M  V30 37 1 14 35
M  V30 38 1 15 36
M  V30 39 1 20 37
M  V30 40 1 22 38
M  V30 41 1 23 39
M  V30 42 1 23 40
M  V30 43 1 23 41
M  V30 44 1 24 42
M  V30 45 1 24 43
M  V30 46 1 24 44
M  V30 END BOND
M  V30 END CTAB
M  END
>  <Dataset>  (444) 
ChEMBL_Kinases

>  <Ligand_Instance>  (444) 
nan

>  <PDB_ID>  (444) 
nan

>  <Standardized_SMILES>  (444) 
COc1nn(C)cc1C(=O)Nc1cccc(-c2nncn2C(C)C)n1

>  <Name>  (444) 
nan

>  <Pocket>  (444) 
nan

>  <ATP_Site>  (444) 
nan

>  <Peripheral>  (444) 
nan

>  <Num_H_Atoms_ProtBoundConf>  (444) 
nan

>  <Num_Resolved_Atoms>  (444) 
nan

>  <Num_Not_Resolved_Atoms>  (444) 
nan

$$$$
CHEMBL4643612
     RDKit          3D

  0  0  0  0  0  0  0  0  0  0999 V3000
M  V30 BEGIN CTAB
M  V30 COUNTS 65 69 0 0 0
M  V30 BEGIN ATOM
M  V30 1 C -1.406445 -0.664737 5.222580 0
M  V30 2 C -0.699360 -1.447528 4.183193 0
M  V30 3 C 0.245846 -0.824661 3.358330 0
M  V30 4 C 1.028668 -1.371827 2.327869 0
M  V30 5 C 1.899098 -0.435540 1.631308 0
M  V30 6 C 2.691641 0.519151 2.277446 0
M  V30 7 N 3.304333 1.207103 1.285542 0
M  V30 8 C 2.909408 0.700655 0.102999 0
M  V30 9 C 3.278867 1.096191 -1.190846 0
M  V30 10 N 4.175652 2.161550 -1.496182 0
M  V30 11 C 4.498744 2.502202 -2.869186 0
M  V30 12 C 3.299729 2.917388 -3.668598 0
M  V30 13 C 2.651395 4.118968 -3.056001 0
M  V30 14 F 1.532158 4.526878 -3.791307 0
M  V30 15 F 2.279876 3.831213 -1.751840 0
M  V30 16 F 3.564171 5.145858 -3.033970 0
M  V30 17 N 2.702741 0.382607 -2.171176 0
M  V30 18 C 1.842857 -0.628318 -2.004908 0
M  V30 19 C 1.369510 -1.233238 -3.274688 0
M  V30 20 C 0.131531 -0.618512 -3.829363 0
M  V30 21 C -1.049876 -0.714128 -2.937453 0
M  V30 22 C -1.396366 0.227685 -1.957847 0
M  V30 23 C -2.530473 0.008236 -1.208410 0
M  V30 24 C -3.349850 -1.096943 -1.371260 0
M  V30 25 C -3.050352 -2.036139 -2.310782 0
M  V30 26 C -1.901433 -1.820057 -3.074589 0
M  V30 27 C 1.497801 -0.992407 -0.720292 0
M  V30 28 N 2.048442 -0.307656 0.295763 0
M  V30 29 C 0.799890 -2.719991 2.141190 0
M  V30 30 C -0.104027 -3.435269 2.890988 0
M  V30 31 C -0.827812 -2.811550 3.877435 0
M  V30 32 C -1.873041 -3.430769 4.733303 0
M  V30 33 O -1.781960 -4.232566 5.684017 0
M  V30 34 N -3.221703 -3.037495 4.416898 0
M  V30 35 C -4.537954 -3.344900 4.952867 0
M  V30 36 C -5.693896 -3.166034 3.961184 0
M  V30 37 C -5.508026 -2.189196 5.073558 0
M  V30 38 H -2.485415 -0.859379 5.245331 0
M  V30 39 H -0.958905 -0.809144 6.228249 0
M  V30 40 H -1.274417 0.407861 4.958790 0
M  V30 41 H 0.386814 0.254147 3.560548 0
M  V30 42 H 2.800971 0.685900 3.353607 0
M  V30 43 H 4.549188 2.640783 -0.652672 0
M  V30 44 H 5.023550 1.648591 -3.394861 0
M  V30 45 H 5.234534 3.325731 -2.876576 0
M  V30 46 H 2.587221 2.079234 -3.833892 0
M  V30 47 H 3.631231 3.209328 -4.703636 0
M  V30 48 H 2.158541 -1.191143 -4.052689 0
M  V30 49 H 1.169436 -2.323990 -3.158413 0
M  V30 50 H 0.242960 0.457207 -4.123492 0
M  V30 51 H -0.117746 -1.135725 -4.777228 0
M  V30 52 H -0.741771 1.070998 -1.855595 0
M  V30 53 H -2.803436 0.746968 -0.439622 0
M  V30 54 H -4.242773 -1.214265 -0.741169 0
M  V30 55 H -3.642542 -2.920301 -2.492695 0
M  V30 56 H -1.656684 -2.564840 -3.825587 0
M  V30 57 H 0.813293 -1.796201 -0.621412 0
M  V30 58 H 1.394914 -3.153265 1.358776 0
M  V30 59 H -0.272174 -4.474046 2.736329 0
M  V30 60 H -3.293788 -2.357763 3.594060 0
M  V30 61 H -4.625348 -4.070255 5.754565 0
M  V30 62 H -5.459828 -2.793736 2.955998 0
M  V30 63 H -6.542086 -3.893655 4.012945 0
M  V30 64 H -5.125181 -1.160825 4.832465 0
M  V30 65 H -6.251407 -2.202247 5.864894 0
M  V30 END ATOM
M  V30 BEGIN BOND
M  V30 1 1 1 2
M  V30 2 2 2 3
M  V30 3 1 3 4
M  V30 4 1 4 5
M  V30 5 2 5 6
M  V30 6 1 6 7
M  V30 7 2 7 8
M  V30 8 1 8 9
M  V30 9 1 9 10
M  V30 10 1 10 11
M  V30 11 1 11 12
M  V30 12 1 12 13
M  V30 13 1 13 14
M  V30 14 1 13 15
M  V30 15 1 13 16
M  V30 16 2 9 17
M  V30 17 1 17 18
M  V30 18 1 18 19
M  V30 19 1 19 20
M  V30 20 1 20 21
M  V30 21 2 21 22
M  V30 22 1 22 23
M  V30 23 2 23 24
M  V30 24 1 24 25
M  V30 25 2 25 26
M  V30 26 2 18 27
M  V30 27 1 27 28
M  V30 28 2 4 29
M  V30 29 1 29 30
M  V30 30 2 30 31
M  V30 31 1 31 32
M  V30 32 2 32 33
M  V30 33 1 32 34
M  V30 34 1 34 35
M  V30 35 1 35 36
M  V30 36 1 36 37
M  V30 37 1 31 2
M  V30 38 1 37 35
M  V30 39 1 28 5
M  V30 40 1 28 8
M  V30 41 1 26 21
M  V30 42 1 1 38
M  V30 43 1 1 39
M  V30 44 1 1 40
M  V30 45 1 3 41
M  V30 46 1 6 42
M  V30 47 1 10 43
M  V30 48 1 11 44
M  V30 49 1 11 45
M  V30 50 1 12 46
M  V30 51 1 12 47
M  V30 52 1 19 48
M  V30 53 1 19 49
M  V30 54 1 20 50
M  V30 55 1 20 51
M  V30 56 1 22 52
M  V30 57 1 23 53
M  V30 58 1 24 54
M  V30 59 1 25 55
M  V30 60 1 26 56
M  V30 61 1 27 57
M  V30 62 1 29 58
M  V30 63 1 30 59
M  V30 64 1 34 60
M  V30 65 1 35 61
M  V30 66 1 36 62
M  V30 67 1 36 63
M  V30 68 1 37 64
M  V30 69 1 37 65
M  V30 END BOND
M  V30 END CTAB
M  END
>  <Dataset>  (445) 
ChEMBL_Kinases

>  <Ligand_Instance>  (445) 
nan

>  <PDB_ID>  (445) 
nan

>  <Standardized_SMILES>  (445) 
Cc1cc(-c2cnc3c(NCCC(F)(F)F)nc(CCc4ccccc4)cn23)ccc1C(=O)NC1CC1

>  <Name>  (445) 
nan

>  <Pocket>  (445) 
nan

>  <ATP_Site>  (445) 
nan

>  <Peripheral>  (445) 
nan

>  <Num_H_Atoms_ProtBoundConf>  (445) 
nan

>  <Num_Resolved_Atoms>  (445) 
nan

>  <Num_Not_Resolved_Atoms>  (445) 
nan

$$$$
CHEMBL4529539
     RDKit          3D

  0  0  0  0  0  0  0  0  0  0999 V3000
M  V30 BEGIN CTAB
M  V30 COUNTS 62 65 0 0 0
M  V30 BEGIN ATOM
M  V30 1 C 4.226138 3.376925 2.318118 0
M  V30 2 N 3.105246 3.449748 1.379276 0
M  V30 3 C 3.577207 2.871883 0.114835 0
M  V30 4 C 2.716981 4.836254 1.168073 0
M  V30 5 C 1.505388 4.961489 0.293321 0
M  V30 6 S 0.052987 4.199801 0.986306 0
M  V30 7 O -1.088193 4.449896 0.010714 0
M  V30 8 O -0.309772 5.007034 2.210608 0
M  V30 9 N 0.174110 2.560824 1.278237 0
M  V30 10 C 0.394185 1.695385 0.186649 0
M  V30 11 C -0.780290 0.734272 0.035425 0
M  V30 12 C -0.788227 -0.256520 1.211686 0
M  V30 13 C -0.048799 -1.483973 0.897120 0
M  V30 14 C 1.324043 -1.735501 0.989432 0
M  V30 15 N 1.621795 -2.970457 0.610039 0
M  V30 16 C 0.464442 -3.577649 0.254719 0
M  V30 17 C 0.174039 -4.843765 -0.206854 0
M  V30 18 C 1.258121 -5.778540 -0.379585 0
M  V30 19 N 1.098329 -7.108404 -0.860447 0
M  V30 20 O 2.480412 -5.619814 -0.155203 0
M  V30 21 C -1.091783 -5.284785 -0.514864 0
M  V30 22 C -2.110913 -4.374945 -0.337196 0
M  V30 23 C -3.528058 -4.596735 -0.576037 0
M  V30 24 C -4.467362 -3.652764 -0.992403 0
M  V30 25 C -5.789157 -3.972852 -1.176422 0
M  V30 26 C -6.268638 -5.245431 -0.960901 0
M  V30 27 C -5.397737 -6.253627 -0.541578 0
M  V30 28 C -4.079683 -5.868241 -0.374601 0
M  V30 29 C -1.885423 -3.083373 0.125182 0
M  V30 30 C -0.581451 -2.672996 0.426008 0
M  V30 31 C -0.228498 0.484878 2.397243 0
M  V30 32 C -0.593131 1.976898 2.310896 0
M  V30 33 H 4.148066 2.347377 2.760971 0
M  V30 34 H 4.063161 4.076165 3.136526 0
M  V30 35 H 5.160723 3.502644 1.766676 0
M  V30 36 H 2.841110 2.943574 -0.681900 0
M  V30 37 H 4.562086 3.309612 -0.147184 0
M  V30 38 H 3.747302 1.795011 0.341571 0
M  V30 39 H 3.558047 5.339495 0.656016 0
M  V30 40 H 2.538542 5.355405 2.130961 0
M  V30 41 H 1.700911 4.610486 -0.737675 0
M  V30 42 H 1.314728 6.074205 0.198543 0
M  V30 43 H 1.341133 1.112450 0.301234 0
M  V30 44 H 0.451105 2.285905 -0.747323 0
M  V30 45 H -0.653087 0.213478 -0.931663 0
M  V30 46 H -1.737118 1.251242 0.038879 0
M  V30 47 H -1.851948 -0.519802 1.391851 0
M  V30 48 H 2.042807 -1.011606 1.326736 0
M  V30 49 H 2.559150 -3.396381 0.587393 0
M  V30 50 H 0.965484 -8.060362 -0.417105 0
M  V30 51 H 1.066013 -7.526118 -1.822360 0
M  V30 52 H -1.370046 -6.250760 -0.874709 0
M  V30 53 H -4.060968 -2.650547 -1.155566 0
M  V30 54 H -6.430984 -3.170424 -1.499187 0
M  V30 55 H -7.307885 -5.505914 -1.103197 0
M  V30 56 H -5.670024 -7.267592 -0.346397 0
M  V30 57 H -3.377463 -6.632128 -0.049365 0
M  V30 58 H -2.622563 -2.313927 0.288767 0
M  V30 59 H -0.710180 0.099872 3.308267 0
M  V30 60 H 0.873576 0.385025 2.461863 0
M  V30 61 H -0.411219 2.454708 3.298821 0
M  V30 62 H -1.667949 2.101751 2.074468 0
M  V30 END ATOM
M  V30 BEGIN BOND
M  V30 1 1 1 2
M  V30 2 1 2 3
M  V30 3 1 2 4
M  V30 4 1 4 5
M  V30 5 1 5 6
M  V30 6 2 6 7
M  V30 7 2 6 8
M  V30 8 1 6 9
M  V30 9 1 9 10
M  V30 10 1 10 11
M  V30 11 1 11 12
M  V30 12 1 12 13
M  V30 13 2 13 14
M  V30 14 1 14 15
M  V30 15 1 15 16
M  V30 16 2 16 17
M  V30 17 1 17 18
M  V30 18 1 18 19
M  V30 19 2 18 20
M  V30 20 1 17 21
M  V30 21 2 21 22
M  V30 22 1 22 23
M  V30 23 2 23 24
M  V30 24 1 24 25
M  V30 25 2 25 26
M  V30 26 1 26 27
M  V30 27 2 27 28
M  V30 28 1 22 29
M  V30 29 2 29 30
M  V30 30 1 12 31
M  V30 31 1 31 32
M  V30 32 1 32 9
M  V30 33 1 30 13
M  V30 34 1 30 16
M  V30 35 1 28 23
M  V30 36 1 1 33
M  V30 37 1 1 34
M  V30 38 1 1 35
M  V30 39 1 3 36
M  V30 40 1 3 37
M  V30 41 1 3 38
M  V30 42 1 4 39
M  V30 43 1 4 40
M  V30 44 1 5 41
M  V30 45 1 5 42
M  V30 46 1 10 43
M  V30 47 1 10 44
M  V30 48 1 11 45
M  V30 49 1 11 46
M  V30 50 1 12 47
M  V30 51 1 14 48
M  V30 52 1 15 49
M  V30 53 1 19 50
M  V30 54 1 19 51
M  V30 55 1 21 52
M  V30 56 1 24 53
M  V30 57 1 25 54
M  V30 58 1 26 55
M  V30 59 1 27 56
M  V30 60 1 28 57
M  V30 61 1 29 58
M  V30 62 1 31 59
M  V30 63 1 31 60
M  V30 64 1 32 61
M  V30 65 1 32 62
M  V30 END BOND
M  V30 END CTAB
M  END
>  <Dataset>  (446) 
ChEMBL_Kinases

>  <Ligand_Instance>  (446) 
nan

>  <PDB_ID>  (446) 
nan

>  <Standardized_SMILES>  (446) 
CN(C)CCS(=O)(=O)N1CCC(c2c[nH]c3c(C(N)=O)cc(-c4ccccc4)cc23)CC1

>  <Name>  (446) 
nan

>  <Pocket>  (446) 
nan

>  <ATP_Site>  (446) 
nan

>  <Peripheral>  (446) 
nan

>  <Num_H_Atoms_ProtBoundConf>  (446) 
nan

>  <Num_Resolved_Atoms>  (446) 
nan

>  <Num_Not_Resolved_Atoms>  (446) 
nan

$$$$
CHEMBL4643621
     RDKit          3D

  0  0  0  0  0  0  0  0  0  0999 V3000
M  V30 BEGIN CTAB
M  V30 COUNTS 52 55 0 0 0
M  V30 BEGIN ATOM
M  V30 1 C 1.683401 -5.706473 -1.941945 0
M  V30 2 C 0.540648 -5.074737 -1.232985 0
M  V30 3 O -0.554297 -5.133397 -2.135722 0
M  V30 4 C 0.754245 -3.710076 -0.780045 0
M  V30 5 C 0.913665 -2.585388 -0.395824 0
M  V30 6 C 1.082340 -1.214341 0.069495 0
M  V30 7 C 2.319296 -0.653836 0.353078 0
M  V30 8 C 2.319710 0.675623 0.791752 0
M  V30 9 C 1.148402 1.397004 0.935650 0
M  V30 10 N 1.401951 2.710135 1.383309 0
M  V30 11 C 1.224083 4.049110 0.876583 0
M  V30 12 C 1.343486 5.007521 2.050174 0
M  V30 13 O 2.622581 5.025329 2.597236 0
M  V30 14 C 3.153045 3.727126 2.647347 0
M  V30 15 C 2.001476 2.732769 2.715805 0
M  V30 16 C -0.061597 0.818306 0.647502 0
M  V30 17 N -1.225646 1.606529 0.818174 0
M  V30 18 C -2.423522 0.910680 0.505617 0
M  V30 19 C -3.196357 0.367116 1.517957 0
M  V30 20 C -4.370246 -0.337869 1.287960 0
M  V30 21 N -4.780750 -0.504008 0.011517 0
M  V30 22 C -4.030496 0.023292 -0.973511 0
M  V30 23 N -4.488567 -0.177669 -2.304613 0
M  V30 24 N -2.896432 0.705869 -0.758494 0
M  V30 25 C -0.104078 -0.484932 0.214702 0
M  V30 26 C 0.123448 -5.865454 -0.009178 0
M  V30 27 N 0.673151 -5.871779 0.990875 0
M  V30 28 C 0.447097 -6.467535 2.124172 0
M  V30 29 C -0.760133 -7.277783 2.062199 0
M  V30 30 S -1.362279 -6.997835 0.260778 0
M  V30 31 H 1.421355 -6.222374 -2.887187 0
M  V30 32 H 2.484470 -4.957824 -2.108493 0
M  V30 33 H 2.048107 -6.542357 -1.277429 0
M  V30 34 H -1.351456 -4.927965 -1.585254 0
M  V30 35 H 3.191421 -1.274397 0.219006 0
M  V30 36 H 3.321991 1.032302 0.989018 0
M  V30 37 H 0.211372 4.254126 0.464887 0
M  V30 38 H 2.018232 4.349108 0.154478 0
M  V30 39 H 1.196696 6.033812 1.617090 0
M  V30 40 H 0.538166 4.865991 2.767365 0
M  V30 41 H 3.693428 3.574393 1.686914 0
M  V30 42 H 3.810991 3.667032 3.522503 0
M  V30 43 H 2.405306 1.777701 3.049904 0
M  V30 44 H 1.223153 3.065071 3.412536 0
M  V30 45 H -1.321276 2.586876 1.131482 0
M  V30 46 H -2.908854 0.472361 2.556977 0
M  V30 47 H -4.967138 -0.759792 2.083355 0
M  V30 48 H -3.854468 -0.951076 -2.640911 0
M  V30 49 H -5.156537 0.109407 -3.043268 0
M  V30 50 H -1.061447 -0.932336 -0.010877 0
M  V30 51 H 0.595886 -6.764249 3.150713 0
M  V30 52 H -1.672681 -8.045652 2.401316 0
M  V30 END ATOM
M  V30 BEGIN BOND
M  V30 1 1 1 2
M  V30 2 1 2 3
M  V30 3 1 2 4
M  V30 4 3 4 5
M  V30 5 1 5 6
M  V30 6 2 6 7
M  V30 7 1 7 8
M  V30 8 2 8 9
M  V30 9 1 9 10
M  V30 10 1 10 11
M  V30 11 1 11 12
M  V30 12 1 12 13
M  V30 13 1 13 14
M  V30 14 1 14 15
M  V30 15 1 9 16
M  V30 16 1 16 17
M  V30 17 1 17 18
M  V30 18 2 18 19
M  V30 19 1 19 20
M  V30 20 2 20 21
M  V30 21 1 21 22
M  V30 22 1 22 23
M  V30 23 2 22 24
M  V30 24 2 16 25
M  V30 25 1 2 26
M  V30 26 2 26 27
M  V30 27 1 27 28
M  V30 28 2 28 29
M  V30 29 1 29 30
M  V30 30 1 25 6
M  V30 31 1 30 26
M  V30 32 1 15 10
M  V30 33 1 24 18
M  V30 34 1 1 31
M  V30 35 1 1 32
M  V30 36 1 1 33
M  V30 37 1 3 34
M  V30 38 1 7 35
M  V30 39 1 8 36
M  V30 40 1 11 37
M  V30 41 1 11 38
M  V30 42 1 12 39
M  V30 43 1 12 40
M  V30 44 1 14 41
M  V30 45 1 14 42
M  V30 46 1 15 43
M  V30 47 1 15 44
M  V30 48 1 17 45
M  V30 49 1 19 46
M  V30 50 1 20 47
M  V30 51 1 23 48
M  V30 52 1 23 49
M  V30 53 1 25 50
M  V30 54 1 28 51
M  V30 55 1 29 52
M  V30 END BOND
M  V30 END CTAB
M  END
>  <Dataset>  (447) 
ChEMBL_Kinases

>  <Ligand_Instance>  (447) 
nan

>  <PDB_ID>  (447) 
nan

>  <Standardized_SMILES>  (447) 
CC(O)(C#Cc1ccc(N2CCOCC2)c(Nc2ccnc(N)n2)c1)c1nccs1

>  <Name>  (447) 
nan

>  <Pocket>  (447) 
nan

>  <ATP_Site>  (447) 
nan

>  <Peripheral>  (447) 
nan

>  <Num_H_Atoms_ProtBoundConf>  (447) 
nan

>  <Num_Resolved_Atoms>  (447) 
nan

>  <Num_Not_Resolved_Atoms>  (447) 
nan

$$$$
CHEMBL4529353
     RDKit          3D

  0  0  0  0  0  0  0  0  0  0999 V3000
M  V30 BEGIN CTAB
M  V30 COUNTS 58 63 0 0 0
M  V30 BEGIN ATOM
M  V30 1 C -2.730286 -4.031015 4.097411 0
M  V30 2 N -2.294185 -3.999123 2.717648 0
M  V30 3 C -1.233073 -3.083798 2.478554 0
M  V30 4 C -0.078004 -3.639894 1.730371 0
M  V30 5 C 0.768010 -2.714874 1.104632 0
M  V30 6 C 1.871364 -3.105325 0.382239 0
M  V30 7 N 2.712509 -2.145994 -0.246549 0
M  V30 8 C 2.412545 -0.762675 -0.122770 0
M  V30 9 N 2.859544 0.122204 0.812677 0
M  V30 10 C 2.491305 1.401927 0.810056 0
M  V30 11 C 1.636559 1.867746 -0.153849 0
M  V30 12 C 1.231413 3.185023 -0.191872 0
M  V30 13 O 1.644129 4.009349 0.674600 0
M  V30 14 N 0.392232 3.682380 -1.123388 0
M  V30 15 C -0.069788 5.000743 -1.236219 0
M  V30 16 C 0.685546 6.110392 -1.557637 0
M  V30 17 Cl 2.399207 5.837618 -1.853489 0
M  V30 18 C 0.191299 7.393410 -1.659799 0
M  V30 19 C -1.171259 7.611073 -1.425057 0
M  V30 20 C -1.948812 6.534704 -1.104320 0
M  V30 21 C -1.425327 5.263417 -1.009930 0
M  V30 22 Cl -2.475722 3.923377 -0.594238 0
M  V30 23 C -0.030136 2.775378 -2.034420 0
M  V30 24 C 0.311015 1.460796 -2.080567 0
M  V30 25 C -0.195486 0.530036 -3.112165 0
M  V30 26 O -1.187424 -0.309393 -2.619649 0
M  V30 27 C 1.170116 0.981150 -1.115952 0
M  V30 28 N 1.573851 -0.301572 -1.066987 0
M  V30 29 C 2.188295 -4.462544 0.248142 0
M  V30 30 C 1.350351 -5.364335 0.867148 0
M  V30 31 C 0.242503 -4.983937 1.592948 0
M  V30 32 C -0.721395 -5.856192 2.290942 0
M  V30 33 C -0.404636 -6.561255 3.539518 0
M  V30 34 C -0.553379 -7.328738 2.253354 0
M  V30 35 C -2.097201 -5.285849 2.140577 0
M  V30 36 H -3.488926 -4.808094 4.277219 0
M  V30 37 H -1.898012 -4.108287 4.812285 0
M  V30 38 H -3.225914 -3.045292 4.275375 0
M  V30 39 H -1.653642 -2.252865 1.846505 0
M  V30 40 H -0.882433 -2.608117 3.415431 0
M  V30 41 H 0.554825 -1.647350 1.185872 0
M  V30 42 H 3.542139 -2.430878 -0.793882 0
M  V30 43 H 2.875984 2.058880 1.575059 0
M  V30 44 H 0.832359 8.226115 -1.915918 0
M  V30 45 H -1.513511 8.624721 -1.515104 0
M  V30 46 H -3.010868 6.691382 -0.919388 0
M  V30 47 H -0.712738 3.090207 -2.825241 0
M  V30 48 H -0.603457 1.117040 -3.977205 0
M  V30 49 H 0.653842 -0.053448 -3.508341 0
M  V30 50 H -0.905618 -1.235071 -2.737207 0
M  V30 51 H 3.039146 -4.820943 -0.306077 0
M  V30 52 H 1.524188 -6.419967 0.811764 0
M  V30 53 H -1.228160 -6.768473 4.269192 0
M  V30 54 H 0.603698 -6.495271 3.982286 0
M  V30 55 H -1.445488 -7.971080 2.081209 0
M  V30 56 H 0.372780 -7.767106 1.826604 0
M  V30 57 H -2.884338 -5.954429 2.550814 0
M  V30 58 H -2.316927 -5.213734 1.044056 0
M  V30 END ATOM
M  V30 BEGIN BOND
M  V30 1 1 1 2
M  V30 2 1 2 3
M  V30 3 1 3 4
M  V30 4 2 4 5
M  V30 5 1 5 6
M  V30 6 1 6 7
M  V30 7 1 7 8
M  V30 8 2 8 9
M  V30 9 1 9 10
M  V30 10 2 10 11
M  V30 11 1 11 12
M  V30 12 2 12 13
M  V30 13 1 12 14
M  V30 14 1 14 15
M  V30 15 2 15 16
M  V30 16 1 16 17
M  V30 17 1 16 18
M  V30 18 2 18 19
M  V30 19 1 19 20
M  V30 20 2 20 21
M  V30 21 1 21 22
M  V30 22 1 14 23
M  V30 23 2 23 24
M  V30 24 1 24 25
M  V30 25 1 25 26
M  V30 26 1 24 27
M  V30 27 2 27 28
M  V30 28 2 6 29
M  V30 29 1 29 30
M  V30 30 2 30 31
M  V30 31 1 31 32
M  V30 32 1 32 33
M  V30 33 1 33 34
M  V30 34 1 32 35
M  V30 35 1 35 2
M  V30 36 1 31 4
M  V30 37 1 34 32
M  V30 38 1 28 8
M  V30 39 1 27 11
M  V30 40 1 21 15
M  V30 41 1 1 36
M  V30 42 1 1 37
M  V30 43 1 1 38
M  V30 44 1 3 39
M  V30 45 1 3 40
M  V30 46 1 5 41
M  V30 47 1 7 42
M  V30 48 1 10 43
M  V30 49 1 18 44
M  V30 50 1 19 45
M  V30 51 1 20 46
M  V30 52 1 23 47
M  V30 53 1 25 48
M  V30 54 1 25 49
M  V30 55 1 26 50
M  V30 56 1 29 51
M  V30 57 1 30 52
M  V30 58 1 33 53
M  V30 59 1 33 54
M  V30 60 1 34 55
M  V30 61 1 34 56
M  V30 62 1 35 57
M  V30 63 1 35 58
M  V30 END BOND
M  V30 END CTAB
M  END
>  <Dataset>  (448) 
ChEMBL_Kinases

>  <Ligand_Instance>  (448) 
nan

>  <PDB_ID>  (448) 
nan

>  <Standardized_SMILES>  (448) 
CN1Cc2cc(Nc3ncc4c(=O)n(-c5c(Cl)cccc5Cl)cc(CO)c4n3)ccc2C2(CC2)C1

>  <Name>  (448) 
nan

>  <Pocket>  (448) 
nan

>  <ATP_Site>  (448) 
nan

>  <Peripheral>  (448) 
nan

>  <Num_H_Atoms_ProtBoundConf>  (448) 
nan

>  <Num_Resolved_Atoms>  (448) 
nan

>  <Num_Not_Resolved_Atoms>  (448) 
nan

$$$$
CHEMBL452932
     RDKit          3D

  0  0  0  0  0  0  0  0  0  0999 V3000
M  V30 BEGIN CTAB
M  V30 COUNTS 41 44 0 0 0
M  V30 BEGIN ATOM
M  V30 1 C -0.207315 -4.702867 1.064985 0
M  V30 2 C 0.191281 -3.246094 0.790791 0 CFG=2
M  V30 3 N 1.604493 -3.101779 1.073087 0
M  V30 4 C 2.317896 -1.883187 0.909548 0
M  V30 5 C 1.713484 -0.732195 0.451017 0
M  V30 6 C 2.394755 0.459800 0.288728 0
M  V30 7 C 2.030151 1.720147 -0.142208 0
M  V30 8 C 0.707287 2.154024 -0.577145 0
M  V30 9 C -0.493054 1.879413 0.046046 0
M  V30 10 C -1.689660 2.346122 -0.461110 0
M  V30 11 C -1.653092 3.105864 -1.625114 0
M  V30 12 C -0.458008 3.388750 -2.259984 0
M  V30 13 C 0.746748 2.911436 -1.738061 0
M  V30 14 N 3.168842 2.470356 -0.074694 0
M  V30 15 O 4.147764 1.734891 0.359887 0
M  V30 16 C 3.738540 0.500690 0.598757 0
M  V30 17 C 4.339686 -0.653485 1.057267 0
M  V30 18 N 3.610439 -1.774005 1.188710 0
M  V30 19 C -0.663876 -2.434289 1.710800 0
M  V30 20 C -1.754393 -1.637736 1.429178 0
M  V30 21 C -2.386661 -0.979366 2.462357 0
M  V30 22 C -1.950783 -1.102311 3.764906 0
M  V30 23 C -0.862089 -1.895750 4.056854 0
M  V30 24 C -0.217923 -2.561997 3.031685 0
M  V30 25 H -1.227575 -4.764644 1.505978 0
M  V30 26 H -0.112484 -5.278004 0.129904 0
M  V30 27 H 0.521868 -5.106774 1.796456 0
M  V30 28 H -0.082304 -3.006696 -0.255056 0
M  V30 29 H 2.164647 -3.935469 1.422952 0
M  V30 30 H 0.684402 -0.703162 0.195734 0
M  V30 31 H -0.433987 1.282194 0.946319 0
M  V30 32 H -2.598121 2.104536 0.062158 0
M  V30 33 H -2.584064 3.469801 -2.020896 0
M  V30 34 H -0.471627 3.985385 -3.166981 0
M  V30 35 H 1.634516 3.184981 -2.306264 0
M  V30 36 H 5.383974 -0.655582 1.307418 0
M  V30 37 H -1.989602 -1.629299 0.373977 0
M  V30 38 H -3.223530 -0.384191 2.147811 0
M  V30 39 H -2.510987 -0.544221 4.526879 0
M  V30 40 H -0.598143 -1.927697 5.104140 0
M  V30 41 H 0.621339 -3.153639 3.378270 0
M  V30 END ATOM
M  V30 BEGIN BOND
M  V30 1 1 1 2
M  V30 2 1 2 3
M  V30 3 1 3 4
M  V30 4 2 4 5
M  V30 5 1 5 6
M  V30 6 1 6 7
M  V30 7 1 7 8
M  V30 8 2 8 9
M  V30 9 1 9 10
M  V30 10 2 10 11
M  V30 11 1 11 12
M  V30 12 2 12 13
M  V30 13 2 7 14
M  V30 14 1 14 15
M  V30 15 1 15 16
M  V30 16 1 16 17
M  V30 17 2 17 18
M  V30 18 1 2 19
M  V30 19 2 19 20
M  V30 20 1 20 21
M  V30 21 2 21 22
M  V30 22 1 22 23
M  V30 23 2 23 24
M  V30 24 1 18 4
M  V30 25 1 24 19
M  V30 26 2 16 6
M  V30 27 1 13 8
M  V30 28 1 1 25
M  V30 29 1 1 26
M  V30 30 1 1 27
M  V30 31 1 2 28 CFG=3
M  V30 32 1 3 29
M  V30 33 1 5 30
M  V30 34 1 9 31
M  V30 35 1 10 32
M  V30 36 1 11 33
M  V30 37 1 12 34
M  V30 38 1 13 35
M  V30 39 1 17 36
M  V30 40 1 20 37
M  V30 41 1 21 38
M  V30 42 1 22 39
M  V30 43 1 23 40
M  V30 44 1 24 41
M  V30 END BOND
M  V30 END CTAB
M  END
>  <Dataset>  (449) 
ChEMBL_Kinases

>  <Ligand_Instance>  (449) 
nan

>  <PDB_ID>  (449) 
nan

>  <Standardized_SMILES>  (449) 
C[C@H](Nc1cc2c(-c3ccccc3)noc2cn1)c1ccccc1

>  <Name>  (449) 
nan

>  <Pocket>  (449) 
nan

>  <ATP_Site>  (449) 
nan

>  <Peripheral>  (449) 
nan

>  <Num_H_Atoms_ProtBoundConf>  (449) 
nan

>  <Num_Resolved_Atoms>  (449) 
nan

>  <Num_Not_Resolved_Atoms>  (449) 
nan

$$$$
CHEMBL4530229
     RDKit          3D

  0  0  0  0  0  0  0  0  0  0999 V3000
M  V30 BEGIN CTAB
M  V30 COUNTS 91 97 0 0 0
M  V30 BEGIN ATOM
M  V30 1 O 11.298047 -1.512775 -2.924473 0
M  V30 2 C 10.313207 -0.793035 -2.601390 0
M  V30 3 C 9.211027 -1.460253 -1.863488 0
M  V30 4 C 7.935552 -0.632912 -1.916405 0
M  V30 5 C 8.275134 0.769996 -1.462630 0
M  V30 6 N 7.162020 1.536683 -1.037831 0
M  V30 7 C 7.094157 1.998101 0.335909 0
M  V30 8 O 7.928035 1.816825 1.278674 0
M  V30 9 C 5.868703 2.755523 0.539729 0
M  V30 10 C 5.319886 3.402768 1.643387 0
M  V30 11 C 4.110086 4.034937 1.484959 0
M  V30 12 C 3.470293 4.013426 0.240477 0
M  V30 13 C 4.063805 3.348350 -0.840642 0
M  V30 14 N 3.204255 3.483546 -1.958774 0
M  V30 15 C 2.312341 2.389471 -1.999255 0
M  V30 16 O 2.514333 1.547505 -1.049590 0
M  V30 17 C 1.222208 2.028736 -2.891389 0
M  V30 18 C 0.751123 0.583035 -2.761241 0
M  V30 19 C 1.816099 -0.352526 -3.157915 0
M  V30 20 C 1.523544 -1.787845 -3.069744 0
M  V30 21 C 1.361700 -2.504597 -1.807193 0
M  V30 22 C 0.317572 -2.066851 -0.873870 0
M  V30 23 C 0.254580 -3.028512 0.335874 0
M  V30 24 N -0.764151 -2.579981 1.231613 0
M  V30 25 C -2.076707 -2.822365 1.352035 0
M  V30 26 C -2.566017 -2.151277 2.446436 0
M  V30 27 C -3.903132 -2.061045 3.051960 0
M  V30 28 O -4.670556 -0.947908 2.637354 0
M  V30 29 C -5.957029 -0.733390 3.133207 0
M  V30 30 C -5.897573 0.008058 4.304763 0
M  V30 31 O -4.733005 0.489557 4.931079 0
M  V30 32 C -7.019678 0.388035 5.046022 0
M  V30 33 C -8.274378 -0.017428 4.555614 0
M  V30 34 O -9.455577 0.308282 5.219601 0
M  V30 35 C -8.323968 -0.751864 3.393051 0
M  V30 36 C -9.528431 -1.195714 2.828656 0
M  V30 37 O -10.600240 -0.916876 3.402221 0
M  V30 38 C -9.417709 -1.918625 1.660590 0
M  V30 39 C -8.246701 -2.239967 1.007737 0
M  V30 40 C -8.235708 -3.005500 -0.218342 0
M  V30 41 C -7.037306 -3.286336 -0.847205 0
M  V30 42 C -7.029844 -4.020112 -2.026256 0
M  V30 43 C -8.195978 -4.481115 -2.592997 0
M  V30 44 C -9.412970 -4.211292 -1.978255 0
M  V30 45 C -9.367762 -3.478294 -0.808595 0
M  V30 46 O -7.144628 -1.802516 1.574887 0
M  V30 47 C -7.200711 -1.109121 2.688146 0
M  V30 48 N -1.492738 -1.501383 2.966301 0
M  V30 49 N -0.427977 -1.769814 2.227698 0
M  V30 50 C 5.255653 2.723517 -0.690860 0
M  V30 51 C 5.999322 1.997090 -1.680894 0
M  V30 52 O 5.701289 1.802109 -2.861201 0
M  V30 53 C 9.077523 1.404897 -2.536729 0
M  V30 54 O 9.021151 2.462821 -3.212665 0
M  V30 55 N 10.227422 0.613536 -2.917036 0
M  V30 56 H 9.052035 -2.452241 -2.324780 0
M  V30 57 H 9.535205 -1.564204 -0.799029 0
M  V30 58 H 7.222789 -1.153142 -1.248008 0
M  V30 59 H 7.626310 -0.605255 -2.981289 0
M  V30 60 H 9.015580 0.608399 -0.617991 0
M  V30 61 H 5.885973 3.374090 2.580895 0
M  V30 62 H 3.727651 4.519011 2.367134 0
M  V30 63 H 2.525598 4.561225 0.291202 0
M  V30 64 H 3.037417 4.149216 -2.755382 0
M  V30 65 H 1.401780 2.218612 -3.955977 0
M  V30 66 H 0.338513 2.655089 -2.621353 0
M  V30 67 H 0.228017 0.405904 -1.845238 0
M  V30 68 H -0.057212 0.519719 -3.576127 0
M  V30 69 H 2.114068 -0.065302 -4.235098 0
M  V30 70 H 2.752375 -0.174961 -2.535402 0
M  V30 71 H 2.249561 -2.345003 -3.770842 0
M  V30 72 H 0.528436 -1.995540 -3.649464 0
M  V30 73 H 1.266566 -3.621334 -2.020392 0
M  V30 74 H 2.364150 -2.388162 -1.243920 0
M  V30 75 H 0.627800 -1.103830 -0.368219 0
M  V30 76 H -0.675814 -2.031550 -1.315292 0
M  V30 77 H 1.244227 -3.107686 0.794163 0
M  V30 78 H 0.014767 -4.041484 -0.089330 0
M  V30 79 H -2.634369 -3.443905 0.692275 0
M  V30 80 H -4.486253 -2.997774 2.897716 0
M  V30 81 H -3.817690 -1.939665 4.172431 0
M  V30 82 H -3.943416 0.653114 4.320943 0
M  V30 83 H -7.026551 0.957178 5.954455 0
M  V30 84 H -9.382811 0.523070 6.218551 0
M  V30 85 H -10.390836 -2.218999 1.297194 0
M  V30 86 H -6.072380 -2.968414 -0.479812 0
M  V30 87 H -6.127478 -4.276920 -2.575207 0
M  V30 88 H -8.200720 -5.052452 -3.507515 0
M  V30 89 H -10.349397 -4.573672 -2.419261 0
M  V30 90 H -10.348826 -3.305934 -0.384866 0
M  V30 91 H 11.078260 0.942210 -3.432066 0
M  V30 END ATOM
M  V30 BEGIN BOND
M  V30 1 2 1 2
M  V30 2 1 2 3
M  V30 3 1 3 4
M  V30 4 1 4 5
M  V30 5 1 5 6
M  V30 6 1 6 7
M  V30 7 2 7 8
M  V30 8 1 7 9
M  V30 9 2 9 10
M  V30 10 1 10 11
M  V30 11 2 11 12
M  V30 12 1 12 13
M  V30 13 1 13 14
M  V30 14 1 14 15
M  V30 15 2 15 16
M  V30 16 1 15 17
M  V30 17 1 17 18
M  V30 18 1 18 19
M  V30 19 1 19 20
M  V30 20 1 20 21
M  V30 21 1 21 22
M  V30 22 1 22 23
M  V30 23 1 23 24
M  V30 24 1 24 25
M  V30 25 2 25 26
M  V30 26 1 26 27
M  V30 27 1 27 28
M  V30 28 1 28 29
M  V30 29 2 29 30
M  V30 30 1 30 31
M  V30 31 1 30 32
M  V30 32 2 32 33
M  V30 33 1 33 34
M  V30 34 1 33 35
M  V30 35 1 35 36
M  V30 36 2 36 37
M  V30 37 1 36 38
M  V30 38 2 38 39
M  V30 39 1 39 40
M  V30 40 2 40 41
M  V30 41 1 41 42
M  V30 42 2 42 43
M  V30 43 1 43 44
M  V30 44 2 44 45
M  V30 45 1 39 46
M  V30 46 1 46 47
M  V30 47 1 26 48
M  V30 48 2 48 49
M  V30 49 2 13 50
M  V30 50 1 50 51
M  V30 51 2 51 52
M  V30 52 1 5 53
M  V30 53 2 53 54
M  V30 54 1 53 55
M  V30 55 1 55 2
M  V30 56 1 51 6
M  V30 57 1 50 9
M  V30 58 1 49 24
M  V30 59 1 47 29
M  V30 60 2 47 35
M  V30 61 1 45 40
M  V30 62 1 3 56
M  V30 63 1 3 57
M  V30 64 1 4 58
M  V30 65 1 4 59
M  V30 66 1 5 60
M  V30 67 1 10 61
M  V30 68 1 11 62
M  V30 69 1 12 63
M  V30 70 1 14 64
M  V30 71 1 17 65
M  V30 72 1 17 66
M  V30 73 1 18 67
M  V30 74 1 18 68
M  V30 75 1 19 69
M  V30 76 1 19 70
M  V30 77 1 20 71
M  V30 78 1 20 72
M  V30 79 1 21 73
M  V30 80 1 21 74
M  V30 81 1 22 75
M  V30 82 1 22 76
M  V30 83 1 23 77
M  V30 84 1 23 78
M  V30 85 1 25 79
M  V30 86 1 27 80
M  V30 87 1 27 81
M  V30 88 1 31 82
M  V30 89 1 32 83
M  V30 90 1 34 84
M  V30 91 1 38 85
M  V30 92 1 41 86
M  V30 93 1 42 87
M  V30 94 1 43 88
M  V30 95 1 44 89
M  V30 96 1 45 90
M  V30 97 1 55 91
M  V30 END BOND
M  V30 END CTAB
M  END
>  <Dataset>  (450) 
ChEMBL_Kinases

>  <Ligand_Instance>  (450) 
nan

>  <PDB_ID>  (450) 
nan

>  <Standardized_SMILES>  (450) 
O=C1CCC(N2C(=O)c3cccc(NC(=O)CCCCCCCn4cc(COc5c(O)cc(O)c6c(=O)cc(-c7ccccc7)oc56)nn4)c3C2=O)C(=O)N1

>  <Name>  (450) 
nan

>  <Pocket>  (450) 
nan

>  <ATP_Site>  (450) 
nan

>  <Peripheral>  (450) 
nan

>  <Num_H_Atoms_ProtBoundConf>  (450) 
nan

>  <Num_Resolved_Atoms>  (450) 
nan

>  <Num_Not_Resolved_Atoms>  (450) 
nan

$$$$
CHEMBL4537851
     RDKit          3D

  0  0  0  0  0  0  0  0  0  0999 V3000
M  V30 BEGIN CTAB
M  V30 COUNTS 30 32 0 0 0
M  V30 BEGIN ATOM
M  V30 1 C -0.849360 -3.134851 1.250313 0
M  V30 2 C 0.441318 -2.774005 1.909197 0
M  V30 3 N 1.171845 -3.552178 2.753036 0
M  V30 4 N 2.265980 -2.882504 3.140850 0
M  V30 5 C 2.298582 -1.655745 2.576309 0
M  V30 6 C 3.111082 -0.547161 2.574246 0
M  V30 7 C 2.800809 0.574958 1.839509 0
M  V30 8 N 1.666606 0.557834 1.113900 0
M  V30 9 C 0.825905 -0.509772 1.078089 0
M  V30 10 N -0.295597 -0.277425 0.233769 0
M  V30 11 C -0.855669 -0.864334 -0.995958 0
M  V30 12 C -1.070357 0.269067 -1.973593 0
M  V30 13 O -0.466339 1.441751 -1.564543 0
M  V30 14 C -0.907596 1.940477 -0.366557 0
M  V30 15 C -1.184720 0.822399 0.616161 0
M  V30 16 C 1.150911 -1.618169 1.816098 0
M  V30 17 H -1.245627 -4.035166 1.801955 0
M  V30 18 H -1.624968 -2.378781 1.337029 0
M  V30 19 H -0.648829 -3.471376 0.228778 0
M  V30 20 H 3.018617 -3.221998 3.789593 0
M  V30 21 H 4.005750 -0.593317 3.174900 0
M  V30 22 H 3.451317 1.455089 1.841490 0
M  V30 23 H -0.101280 -1.550159 -1.446403 0
M  V30 24 H -1.812162 -1.363924 -0.833987 0
M  V30 25 H -2.155114 0.436273 -2.146661 0
M  V30 26 H -0.638604 0.021115 -2.972106 0
M  V30 27 H -0.127535 2.603225 0.058934 0
M  V30 28 H -1.827845 2.551268 -0.487124 0
M  V30 29 H -2.253723 0.530369 0.606350 0
M  V30 30 H -0.940522 1.209896 1.629333 0
M  V30 END ATOM
M  V30 BEGIN BOND
M  V30 1 1 1 2
M  V30 2 2 2 3
M  V30 3 1 3 4
M  V30 4 1 4 5
M  V30 5 2 5 6
M  V30 6 1 6 7
M  V30 7 2 7 8
M  V30 8 1 8 9
M  V30 9 1 9 10
M  V30 10 1 10 11
M  V30 11 1 11 12
M  V30 12 1 12 13
M  V30 13 1 13 14
M  V30 14 1 14 15
M  V30 15 2 9 16
M  V30 16 1 16 2
M  V30 17 1 16 5
M  V30 18 1 15 10
M  V30 19 1 1 17
M  V30 20 1 1 18
M  V30 21 1 1 19
M  V30 22 1 4 20
M  V30 23 1 6 21
M  V30 24 1 7 22
M  V30 25 1 11 23
M  V30 26 1 11 24
M  V30 27 1 12 25
M  V30 28 1 12 26
M  V30 29 1 14 27
M  V30 30 1 14 28
M  V30 31 1 15 29
M  V30 32 1 15 30
M  V30 END BOND
M  V30 END CTAB
M  END
>  <Dataset>  (451) 
ChEMBL_Kinases

>  <Ligand_Instance>  (451) 
nan

>  <PDB_ID>  (451) 
nan

>  <Standardized_SMILES>  (451) 
Cc1n[nH]c2ccnc(N3CCOCC3)c12

>  <Name>  (451) 
nan

>  <Pocket>  (451) 
nan

>  <ATP_Site>  (451) 
nan

>  <Peripheral>  (451) 
nan

>  <Num_H_Atoms_ProtBoundConf>  (451) 
nan

>  <Num_Resolved_Atoms>  (451) 
nan

>  <Num_Not_Resolved_Atoms>  (451) 
nan

$$$$
CHEMBL4537838
     RDKit          3D

  0  0  0  0  0  0  0  0  0  0999 V3000
M  V30 BEGIN CTAB
M  V30 COUNTS 51 55 0 0 0
M  V30 BEGIN ATOM
M  V30 1 C 5.521731 -3.924624 3.488936 0
M  V30 2 O 4.138904 -3.572469 3.578716 0
M  V30 3 C 3.737701 -2.488083 2.810952 0
M  V30 4 C 4.646627 -1.808912 2.016076 0
M  V30 5 C 4.266716 -0.719833 1.238859 0
M  V30 6 C 2.957886 -0.283349 1.240384 0
M  V30 7 S 2.325498 1.061231 0.326360 0
M  V30 8 O 3.367876 2.127844 0.086920 0
M  V30 9 O 1.209414 1.701335 1.105384 0
M  V30 10 N 1.787292 0.539902 -1.249858 0
M  V30 11 C 0.727203 -0.423472 -1.176139 0
M  V30 12 C -0.595620 0.142940 -1.673569 0
M  V30 13 C -0.947602 1.389679 -0.962363 0
M  V30 14 C 0.187412 2.259171 -1.146105 0
M  V30 15 S -0.212272 3.711085 -0.331104 0
M  V30 16 C -1.854451 3.200050 0.253751 0
M  V30 17 N -2.867796 3.747688 0.980614 0
M  V30 18 C -3.990496 3.061604 1.235094 0
M  V30 19 N -4.074363 1.819892 0.747131 0
M  V30 20 C -3.123114 1.218507 0.027675 0
M  V30 21 N -3.580700 -0.077709 -0.296389 0
M  V30 22 C -3.581586 -1.429545 0.133754 0
M  V30 23 C -3.149550 -2.556925 -0.514488 0
M  V30 24 C -3.190813 -3.804386 0.045947 0
M  V30 25 C -3.688672 -3.949708 1.321691 0
M  V30 26 F -3.687659 -5.221462 1.787411 0
M  V30 27 C -4.136941 -2.836743 2.012467 0
M  V30 28 C -4.080767 -1.589322 1.416479 0
M  V30 29 Br -4.778524 -0.275955 2.637375 0
M  V30 30 C -1.966446 1.894923 -0.248151 0
M  V30 31 C 1.363008 1.774936 -1.925449 0
M  V30 32 C 2.041190 -0.967589 2.041453 0
M  V30 33 C 2.419056 -2.045268 2.810023 0
M  V30 34 H 5.729001 -4.264294 2.452005 0
M  V30 35 H 6.129613 -3.079418 3.808982 0
M  V30 36 H 5.674612 -4.826398 4.132296 0
M  V30 37 H 5.702300 -2.107211 1.971141 0
M  V30 38 H 4.936856 -0.154838 0.601098 0
M  V30 39 H 0.983625 -1.226564 -1.896797 0
M  V30 40 H 0.581966 -0.900175 -0.208562 0
M  V30 41 H -0.470831 0.370700 -2.773692 0
M  V30 42 H -1.350165 -0.623657 -1.622064 0
M  V30 43 H -4.688954 3.633573 1.818806 0
M  V30 44 H -4.144339 -0.150261 -1.182032 0
M  V30 45 H -2.776614 -2.429423 -1.514349 0
M  V30 46 H -2.827706 -4.637330 -0.538512 0
M  V30 47 H -4.493548 -3.127129 2.993705 0
M  V30 48 H 1.159469 1.566042 -2.973006 0
M  V30 49 H 2.171588 2.518919 -1.766001 0
M  V30 50 H 0.981962 -0.749932 2.152829 0
M  V30 51 H 1.758726 -2.614745 3.448974 0
M  V30 END ATOM
M  V30 BEGIN BOND
M  V30 1 1 1 2
M  V30 2 1 2 3
M  V30 3 2 3 4
M  V30 4 1 4 5
M  V30 5 2 5 6
M  V30 6 1 6 7
M  V30 7 2 7 8
M  V30 8 2 7 9
M  V30 9 1 7 10
M  V30 10 1 10 11
M  V30 11 1 11 12
M  V30 12 1 12 13
M  V30 13 2 13 14
M  V30 14 1 14 15
M  V30 15 1 15 16
M  V30 16 2 16 17
M  V30 17 1 17 18
M  V30 18 2 18 19
M  V30 19 1 19 20
M  V30 20 1 20 21
M  V30 21 1 21 22
M  V30 22 2 22 23
M  V30 23 1 23 24
M  V30 24 2 24 25
M  V30 25 1 25 26
M  V30 26 1 25 27
M  V30 27 2 27 28
M  V30 28 1 28 29
M  V30 29 2 20 30
M  V30 30 1 14 31
M  V30 31 1 6 32
M  V30 32 2 32 33
M  V30 33 1 33 3
M  V30 34 1 31 10
M  V30 35 1 30 13
M  V30 36 1 30 16
M  V30 37 1 28 22
M  V30 38 1 1 34
M  V30 39 1 1 35
M  V30 40 1 1 36
M  V30 41 1 4 37
M  V30 42 1 5 38
M  V30 43 1 11 39
M  V30 44 1 11 40
M  V30 45 1 12 41
M  V30 46 1 12 42
M  V30 47 1 18 43
M  V30 48 1 21 44
M  V30 49 1 23 45
M  V30 50 1 24 46
M  V30 51 1 27 47
M  V30 52 1 31 48
M  V30 53 1 31 49
M  V30 54 1 32 50
M  V30 55 1 33 51
M  V30 END BOND
M  V30 END CTAB
M  END
>  <Dataset>  (452) 
ChEMBL_Kinases

>  <Ligand_Instance>  (452) 
nan

>  <PDB_ID>  (452) 
nan

>  <Standardized_SMILES>  (452) 
COc1ccc(S(=O)(=O)N2CCc3c(sc4ncnc(Nc5ccc(F)cc5Br)c34)C2)cc1

>  <Name>  (452) 
nan

>  <Pocket>  (452) 
nan

>  <ATP_Site>  (452) 
nan

>  <Peripheral>  (452) 
nan

>  <Num_H_Atoms_ProtBoundConf>  (452) 
nan

>  <Num_Resolved_Atoms>  (452) 
nan

>  <Num_Not_Resolved_Atoms>  (452) 
nan

$$$$
CHEMBL4537788
     RDKit          3D

  0  0  0  0  0  0  0  0  0  0999 V3000
M  V30 BEGIN CTAB
M  V30 COUNTS 70 75 0 0 0
M  V30 BEGIN ATOM
M  V30 1 O -2.384097 0.455348 3.716913 0
M  V30 2 C -1.246645 0.732394 3.248000 0
M  V30 3 N -0.559409 1.733257 3.975965 0
M  V30 4 C -1.170482 2.342593 5.146913 0
M  V30 5 C -0.281898 3.367396 5.753402 0
M  V30 6 N 0.450659 3.237203 6.866333 0
M  V30 7 C 1.232345 4.214800 7.352146 0
M  V30 8 C 1.339529 5.450467 6.726361 0
M  V30 9 C 2.221571 6.460958 7.333284 0
M  V30 10 F 3.526790 6.348595 6.925574 0
M  V30 11 F 1.784565 7.724929 6.938236 0
M  V30 12 F 2.169806 6.459086 8.711076 0
M  V30 13 C 0.590164 5.609193 5.571932 0
M  V30 14 C -0.210540 4.594046 5.082960 0
M  V30 15 Cl -1.092326 4.970800 3.604817 0
M  V30 16 C -0.699255 0.075546 2.063372 0
M  V30 17 C 0.551864 0.408463 1.582565 0
M  V30 18 C 1.015114 -0.245892 0.458937 0
M  V30 19 C 0.215242 -1.218115 -0.157507 0
M  V30 20 C -1.045050 -1.573537 0.302678 0
M  V30 21 C -1.466728 -0.885166 1.438432 0
M  V30 22 C -1.604214 -2.641209 -0.586658 0
M  V30 23 C -3.055261 -2.473771 -0.638026 0
M  V30 24 C -3.969092 -3.611800 -0.759258 0
M  V30 25 S -3.296788 -5.221038 -0.757444 0
M  V30 26 O -3.958747 -6.122521 0.277883 0
M  V30 27 O -3.546905 -5.947823 -2.073773 0
M  V30 28 C -1.546214 -5.173127 -0.517125 0
M  V30 29 C -1.075140 -3.890725 0.061359 0
M  V30 30 C -0.851784 -2.277421 -1.839761 0 CFG=2
M  V30 31 C -0.913124 -3.182424 -2.986769 0
M  V30 32 C -2.131797 -3.531101 -3.713300 0
M  V30 33 C -1.227089 -2.526244 -4.335690 0
M  V30 34 N 0.475238 -2.025284 -1.328455 0
M  V30 35 S 2.022265 -2.498253 -1.883538 0
M  V30 36 O 2.114844 -4.017118 -1.834436 0
M  V30 37 O 3.076118 -2.010299 -0.931955 0
M  V30 38 C 2.424691 -1.905570 -3.451348 0
M  V30 39 C 2.208509 -2.544174 -4.653229 0
M  V30 40 C 2.534846 -2.057611 -5.901146 0
M  V30 41 C 3.141259 -0.797666 -5.937396 0
M  V30 42 F 3.451353 -0.344568 -7.181227 0
M  V30 43 C 3.380053 -0.116628 -4.765773 0
M  V30 44 C 3.025523 -0.666473 -3.547220 0
M  V30 45 H 0.387581 2.039565 3.677862 0
M  V30 46 H -2.091494 2.889783 4.809409 0
M  V30 47 H -1.509564 1.599662 5.897486 0
M  V30 48 H 1.759908 3.953603 8.258377 0
M  V30 49 H 0.676847 6.581348 5.083130 0
M  V30 50 H 1.172644 1.140882 2.034134 0
M  V30 51 H 1.998874 0.011432 0.076566 0
M  V30 52 H -2.437866 -1.111277 1.855090 0
M  V30 53 H -3.383694 -1.834804 0.235186 0
M  V30 54 H -3.266723 -1.783387 -1.516370 0
M  V30 55 H -4.655118 -3.551065 -1.661495 0
M  V30 56 H -4.720518 -3.584724 0.075287 0
M  V30 57 H -0.994531 -5.484190 -1.435158 0
M  V30 58 H -1.294972 -5.967773 0.218579 0
M  V30 59 H -1.358841 -3.838888 1.131243 0
M  V30 60 H 0.022861 -3.850341 -0.021677 0
M  V30 61 H -1.244244 -1.253534 -2.121591 0
M  V30 62 H -0.034454 -3.876846 -3.068354 0
M  V30 63 H -3.121715 -3.158854 -3.469124 0
M  V30 64 H -2.173554 -4.572239 -4.148620 0
M  V30 65 H -0.735397 -2.869546 -5.249541 0
M  V30 66 H -1.526679 -1.465914 -4.350679 0
M  V30 67 H 1.742213 -3.516296 -4.615412 0
M  V30 68 H 2.323749 -2.638358 -6.799475 0
M  V30 69 H 3.850590 0.842330 -4.913712 0
M  V30 70 H 3.276104 -0.014409 -2.720741 0
M  V30 END ATOM
M  V30 BEGIN BOND
M  V30 1 2 1 2
M  V30 2 1 2 3
M  V30 3 1 3 4
M  V30 4 1 4 5
M  V30 5 2 5 6
M  V30 6 1 6 7
M  V30 7 2 7 8
M  V30 8 1 8 9
M  V30 9 1 9 10
M  V30 10 1 9 11
M  V30 11 1 9 12
M  V30 12 1 8 13
M  V30 13 2 13 14
M  V30 14 1 14 15
M  V30 15 1 2 16
M  V30 16 2 16 17
M  V30 17 1 17 18
M  V30 18 2 18 19
M  V30 19 1 19 20
M  V30 20 2 20 21
M  V30 21 1 20 22
M  V30 22 1 22 23
M  V30 23 1 23 24
M  V30 24 1 24 25
M  V30 25 2 25 26
M  V30 26 2 25 27
M  V30 27 1 25 28
M  V30 28 1 28 29
M  V30 29 1 22 30
M  V30 30 1 30 31
M  V30 31 1 31 32
M  V30 32 1 32 33
M  V30 33 1 30 34
M  V30 34 1 34 35
M  V30 35 2 35 36
M  V30 36 2 35 37
M  V30 37 1 35 38
M  V30 38 2 38 39
M  V30 39 1 39 40
M  V30 40 2 40 41
M  V30 41 1 41 42
M  V30 42 1 41 43
M  V30 43 2 43 44
M  V30 44 1 14 5
M  V30 45 1 21 16
M  V30 46 1 29 22
M  V30 47 1 33 31
M  V30 48 1 44 38
M  V30 49 1 34 19
M  V30 50 1 3 45
M  V30 51 1 4 46
M  V30 52 1 4 47
M  V30 53 1 7 48
M  V30 54 1 13 49
M  V30 55 1 17 50
M  V30 56 1 18 51
M  V30 57 1 21 52
M  V30 58 1 23 53
M  V30 59 1 23 54
M  V30 60 1 24 55
M  V30 61 1 24 56
M  V30 62 1 28 57
M  V30 63 1 28 58
M  V30 64 1 29 59
M  V30 65 1 29 60
M  V30 66 1 30 61 CFG=3
M  V30 67 1 31 62
M  V30 68 1 32 63
M  V30 69 1 32 64
M  V30 70 1 33 65
M  V30 71 1 33 66
M  V30 72 1 39 67
M  V30 73 1 40 68
M  V30 74 1 43 69
M  V30 75 1 44 70
M  V30 END BOND
M  V30 END CTAB
M  END
>  <Dataset>  (453) 
ChEMBL_Kinases

>  <Ligand_Instance>  (453) 
nan

>  <PDB_ID>  (453) 
nan

>  <Standardized_SMILES>  (453) 
O=C(NCc1ncc(C(F)(F)F)cc1Cl)c1ccc2c(c1)C1(CCS(=O)(=O)CC1)[C@H](C1CC1)N2S(=O)(=O)c1ccc(F)cc1

>  <Name>  (453) 
BAY-784

>  <Pocket>  (453) 
nan

>  <ATP_Site>  (453) 
nan

>  <Peripheral>  (453) 
nan

>  <Num_H_Atoms_ProtBoundConf>  (453) 
nan

>  <Num_Resolved_Atoms>  (453) 
nan

>  <Num_Not_Resolved_Atoms>  (453) 
nan

$$$$
CHEMBL4537756
     RDKit          3D

  0  0  0  0  0  0  0  0  0  0999 V3000
M  V30 BEGIN CTAB
M  V30 COUNTS 45 48 0 0 0
M  V30 BEGIN ATOM
M  V30 1 C -0.328303 -4.382663 1.635224 0
M  V30 2 C -0.861256 -3.138511 0.933863 0 CFG=2
M  V30 3 C 0.252230 -2.145187 1.010368 0
M  V30 4 C 1.583627 -2.678910 0.460486 0
M  V30 5 C 2.617749 -1.587769 0.641717 0
M  V30 6 O 2.193977 -0.449247 -0.054994 0
M  V30 7 C 2.966788 0.726617 -0.057367 0
M  V30 8 C 4.267188 0.775200 -0.534419 0
M  V30 9 C 4.980995 1.941487 -0.515522 0
M  V30 10 C 4.455873 3.117841 -0.028058 0
M  V30 11 C 3.146393 3.130027 0.467350 0
M  V30 12 C 2.485275 1.928380 0.419410 0
M  V30 13 C 1.126960 1.958247 0.932251 0
M  V30 14 O 0.936962 2.377537 2.094710 0
M  V30 15 N -0.226248 1.705930 0.706869 0
M  V30 16 C -1.574078 1.454668 0.482527 0
M  V30 17 C -2.512264 2.176683 -0.189149 0
M  V30 18 C -3.750538 1.587472 -0.231502 0
M  V30 19 C -3.975576 0.371239 0.365892 0
M  V30 20 C -2.970081 -0.280339 1.017465 0
M  V30 21 N -1.759293 0.268556 1.076988 0
M  V30 22 C -2.811216 -1.546857 1.708394 0
M  V30 23 N -3.777247 -1.597920 2.638813 0
M  V30 24 N -3.673416 -2.765417 3.308880 0
M  V30 25 C -2.602647 -3.323588 2.681127 0
M  V30 26 N -2.012079 -2.602260 1.659206 0
M  V30 27 H 0.398631 -4.911064 1.012801 0
M  V30 28 H -1.212914 -5.060195 1.719135 0
M  V30 29 H 0.002723 -4.163632 2.669406 0
M  V30 30 H -1.089803 -3.371617 -0.101753 0
M  V30 31 H 0.009564 -1.353048 0.258318 0
M  V30 32 H 0.406591 -1.825674 2.023905 0
M  V30 33 H 1.935765 -3.572886 0.991860 0
M  V30 34 H 1.490977 -2.938586 -0.615201 0
M  V30 35 H 3.621365 -1.900701 0.331080 0
M  V30 36 H 2.579245 -1.320274 1.730510 0
M  V30 37 H 4.708778 -0.129763 -0.923540 0
M  V30 38 H 6.004943 1.948918 -0.898929 0
M  V30 39 H 4.990562 4.067584 0.004847 0
M  V30 40 H 2.620733 4.000745 0.885768 0
M  V30 41 H 0.051117 1.452634 -0.282584 0
M  V30 42 H -2.043351 3.060257 -0.544978 0
M  V30 43 H -4.505559 2.112564 -0.739407 0
M  V30 44 H -4.889753 -0.186490 0.403103 0
M  V30 45 H -2.430555 -4.302993 3.165277 0
M  V30 END ATOM
M  V30 BEGIN BOND
M  V30 1 1 1 2
M  V30 2 1 2 3
M  V30 3 1 3 4
M  V30 4 1 4 5
M  V30 5 1 5 6
M  V30 6 1 6 7
M  V30 7 2 7 8
M  V30 8 1 8 9
M  V30 9 2 9 10
M  V30 10 1 10 11
M  V30 11 2 11 12
M  V30 12 1 12 13
M  V30 13 2 13 14
M  V30 14 1 13 15
M  V30 15 1 15 16
M  V30 16 1 16 17
M  V30 17 2 17 18
M  V30 18 1 18 19
M  V30 19 2 19 20
M  V30 20 1 20 21
M  V30 21 1 20 22
M  V30 22 2 22 23
M  V30 23 1 23 24
M  V30 24 2 24 25
M  V30 25 1 25 26
M  V30 26 1 26 2
M  V30 27 1 12 7
M  V30 28 2 21 16
M  V30 29 1 26 22
M  V30 30 1 1 27
M  V30 31 1 1 28
M  V30 32 1 1 29
M  V30 33 1 2 30 CFG=3
M  V30 34 1 3 31
M  V30 35 1 3 32
M  V30 36 1 4 33
M  V30 37 1 4 34
M  V30 38 1 5 35
M  V30 39 1 5 36
M  V30 40 1 8 37
M  V30 41 1 9 38
M  V30 42 1 10 39
M  V30 43 1 11 40
M  V30 44 1 15 41
M  V30 45 1 17 42
M  V30 46 1 18 43
M  V30 47 1 19 44
M  V30 48 1 25 45
M  V30 END BOND
M  V30 END CTAB
M  END
>  <Dataset>  (454) 
ChEMBL_Kinases

>  <Ligand_Instance>  (454) 
nan

>  <PDB_ID>  (454) 
nan

>  <Standardized_SMILES>  (454) 
C[C@@H]1CCCOc2ccccc2C(=O)Nc2cccc(n2)-c2nncn21

>  <Name>  (454) 
nan

>  <Pocket>  (454) 
nan

>  <ATP_Site>  (454) 
nan

>  <Peripheral>  (454) 
nan

>  <Num_H_Atoms_ProtBoundConf>  (454) 
nan

>  <Num_Resolved_Atoms>  (454) 
nan

>  <Num_Not_Resolved_Atoms>  (454) 
nan

$$$$
CHEMBL4641264
     RDKit          3D

  0  0  0  0  0  0  0  0  0  0999 V3000
M  V30 BEGIN CTAB
M  V30 COUNTS 51 53 0 0 0
M  V30 BEGIN ATOM
M  V30 1 C -1.898950 -5.688514 2.530175 0
M  V30 2 O -0.818678 -5.029412 3.044891 0
M  V30 3 C 0.370715 -5.728031 3.072964 0
M  V30 4 C 1.505756 -4.864713 3.631923 0
M  V30 5 N 1.666075 -3.680174 2.775952 0
M  V30 6 C 1.813482 -2.606688 1.997343 0
M  V30 7 C 2.539560 -2.335529 0.773537 0
M  V30 8 C 2.154615 -0.993988 0.646636 0
M  V30 9 O 2.882679 -1.030446 -0.407328 0
M  V30 10 N 1.484776 0.142058 1.048538 0
M  V30 11 C 1.330309 1.431878 0.616071 0
M  V30 12 C 2.200438 2.429096 1.000163 0
M  V30 13 C 1.909839 3.695481 0.494474 0
M  V30 14 C 0.797139 3.870188 -0.339254 0
M  V30 15 C -0.049724 2.838475 -0.702031 0
M  V30 16 C -1.113720 3.263922 -1.586647 0
M  V30 17 N -0.799502 3.613256 -2.840178 0
M  V30 18 N -1.893245 3.962801 -3.499230 0
M  V30 19 C -2.914504 3.828057 -2.632586 0
M  V30 20 N -2.433451 3.391640 -1.433939 0
M  V30 21 C -3.284182 3.155473 -0.318220 0
M  V30 22 C -2.661568 2.394566 0.819841 0
M  V30 23 C -4.493219 2.313690 -0.756147 0
M  V30 24 N 0.271380 1.611681 -0.183023 0
M  V30 25 C 2.907357 -3.633941 0.903509 0
M  V30 26 O 3.712553 -3.623771 -0.298243 0
M  V30 27 C 4.391573 -4.771494 -0.726577 0
M  V30 28 N 2.488808 -4.381725 1.915563 0
M  V30 29 H -2.768060 -4.987989 2.592910 0
M  V30 30 H -1.708629 -5.802453 1.426995 0
M  V30 31 H -2.207276 -6.610346 3.023432 0
M  V30 32 H 0.277157 -6.658516 3.646944 0
M  V30 33 H 0.652722 -6.015460 2.023171 0
M  V30 34 H 1.026475 -4.363468 4.560840 0
M  V30 35 H 2.355255 -5.410641 3.892221 0
M  V30 36 H 1.109277 -2.093546 2.776047 0
M  V30 37 H 1.006905 -0.208010 1.935481 0
M  V30 38 H 3.054681 2.269405 1.641582 0
M  V30 39 H 2.593794 4.492273 0.788823 0
M  V30 40 H 0.715522 4.905268 -0.643587 0
M  V30 41 H -3.937776 4.065214 -2.969731 0
M  V30 42 H -3.760207 4.100393 0.068966 0
M  V30 43 H -2.338690 1.389009 0.537257 0
M  V30 44 H -1.885065 3.041636 1.280736 0
M  V30 45 H -3.425941 2.227687 1.643735 0
M  V30 46 H -4.265148 1.233971 -0.558246 0
M  V30 47 H -5.371364 2.549134 -0.130617 0
M  V30 48 H -4.738945 2.490479 -1.816225 0
M  V30 49 H 5.418768 -4.529551 -1.063246 0
M  V30 50 H 3.876405 -5.273874 -1.580638 0
M  V30 51 H 4.501532 -5.511162 0.099634 0
M  V30 END ATOM
M  V30 BEGIN BOND
M  V30 1 1 1 2
M  V30 2 1 2 3
M  V30 3 1 3 4
M  V30 4 1 4 5
M  V30 5 1 5 6
M  V30 6 2 6 7
M  V30 7 1 7 8
M  V30 8 2 8 9
M  V30 9 1 8 10
M  V30 10 1 10 11
M  V30 11 2 11 12
M  V30 12 1 12 13
M  V30 13 2 13 14
M  V30 14 1 14 15
M  V30 15 1 15 16
M  V30 16 2 16 17
M  V30 17 1 17 18
M  V30 18 2 18 19
M  V30 19 1 19 20
M  V30 20 1 20 21
M  V30 21 1 21 22
M  V30 22 1 21 23
M  V30 23 2 15 24
M  V30 24 1 7 25
M  V30 25 1 25 26
M  V30 26 1 26 27
M  V30 27 2 25 28
M  V30 28 1 28 5
M  V30 29 1 24 11
M  V30 30 1 20 16
M  V30 31 1 1 29
M  V30 32 1 1 30
M  V30 33 1 1 31
M  V30 34 1 3 32
M  V30 35 1 3 33
M  V30 36 1 4 34
M  V30 37 1 4 35
M  V30 38 1 6 36
M  V30 39 1 10 37
M  V30 40 1 12 38
M  V30 41 1 13 39
M  V30 42 1 14 40
M  V30 43 1 19 41
M  V30 44 1 21 42
M  V30 45 1 22 43
M  V30 46 1 22 44
M  V30 47 1 22 45
M  V30 48 1 23 46
M  V30 49 1 23 47
M  V30 50 1 23 48
M  V30 51 1 27 49
M  V30 52 1 27 50
M  V30 53 1 27 51
M  V30 END BOND
M  V30 END CTAB
M  END
>  <Dataset>  (455) 
ChEMBL_Kinases

>  <Ligand_Instance>  (455) 
nan

>  <PDB_ID>  (455) 
nan

>  <Standardized_SMILES>  (455) 
COCCn1cc(C(=O)Nc2cccc(-c3nncn3C(C)C)n2)c(OC)n1

>  <Name>  (455) 
nan

>  <Pocket>  (455) 
nan

>  <ATP_Site>  (455) 
nan

>  <Peripheral>  (455) 
nan

>  <Num_H_Atoms_ProtBoundConf>  (455) 
nan

>  <Num_Resolved_Atoms>  (455) 
nan

>  <Num_Not_Resolved_Atoms>  (455) 
nan

$$$$
CHEMBL4641298
     RDKit          3D

  0  0  0  0  0  0  0  0  0  0999 V3000
M  V30 BEGIN CTAB
M  V30 COUNTS 51 54 0 0 0
M  V30 BEGIN ATOM
M  V30 1 C -1.510799 -5.777696 2.419918 0
M  V30 2 C -0.061613 -5.540134 2.810698 0
M  V30 3 O 0.269251 -4.262879 2.365199 0
M  V30 4 C 1.518139 -3.680746 2.536309 0
M  V30 5 O 2.153139 -4.580936 3.145953 0
M  V30 6 C 1.990266 -2.364817 2.122345 0
M  V30 7 C 3.303182 -2.113224 2.466968 0
M  V30 8 N 3.851390 -0.924507 2.139853 0
M  V30 9 C 3.087989 -0.029236 1.486755 0
M  V30 10 C 3.654488 1.182659 1.155998 0
M  V30 11 C 2.858947 2.091893 0.485844 0
M  V30 12 C 1.546917 1.874129 0.126816 0
M  V30 13 C 0.746482 2.866119 -0.580962 0
M  V30 14 C 1.179106 4.095298 -0.965530 0
M  V30 15 C 0.365181 4.988306 -1.634824 0
M  V30 16 Cl 1.040253 6.559453 -2.083980 0
M  V30 17 C -0.951614 4.660072 -1.947235 0
M  V30 18 O -1.716092 5.603220 -2.621197 0
M  V30 19 C -1.403782 3.414262 -1.562195 0
M  V30 20 Cl -3.058152 3.007670 -1.957135 0
M  V30 21 C -0.556928 2.538539 -0.889069 0
M  V30 22 N 1.052640 0.671422 0.478516 0
M  V30 23 C 1.774451 -0.257658 1.131801 0
M  V30 24 C 1.172007 -1.478645 1.454097 0
M  V30 25 N -0.148520 -1.781467 1.124969 0
M  V30 26 C -0.438717 -2.418317 -0.171757 0
M  V30 27 C -1.489140 -1.553346 -0.884227 0
M  V30 28 C -2.597788 -1.166402 0.034717 0
M  V30 29 C -2.517472 -1.910089 1.367659 0
M  V30 30 C -1.226051 -1.480469 2.032011 0
M  V30 31 H -2.113030 -4.862512 2.587113 0
M  V30 32 H -1.969089 -6.597312 2.969389 0
M  V30 33 H -1.556053 -5.981356 1.323582 0
M  V30 34 H 0.601161 -6.332198 2.467055 0
M  V30 35 H -0.027571 -5.520569 3.924964 0
M  V30 36 H 3.935372 -2.813566 2.989885 0
M  V30 37 H 4.683158 1.398867 1.417691 0
M  V30 38 H 3.343730 3.028172 0.246914 0
M  V30 39 H 2.186080 4.382849 -0.742371 0
M  V30 40 H -2.166498 5.307897 -3.493271 0
M  V30 41 H -0.947427 1.563657 -0.600295 0
M  V30 42 H 0.447885 -2.345795 -0.834361 0
M  V30 43 H -0.811862 -3.429076 -0.010405 0
M  V30 44 H -1.007954 -0.710156 -1.406296 0
M  V30 45 H -1.894431 -2.212001 -1.678893 0
M  V30 46 H -2.476908 -0.072411 0.250783 0
M  V30 47 H -3.555905 -1.292458 -0.477297 0
M  V30 48 H -3.395968 -1.717188 1.990607 0
M  V30 49 H -2.529914 -2.993774 1.103899 0
M  V30 50 H -1.099263 -1.808366 3.057982 0
M  V30 51 H -1.284973 -0.351884 2.049666 0
M  V30 END ATOM
M  V30 BEGIN BOND
M  V30 1 1 1 2
M  V30 2 1 2 3
M  V30 3 1 3 4
M  V30 4 2 4 5
M  V30 5 1 4 6
M  V30 6 2 6 7
M  V30 7 1 7 8
M  V30 8 2 8 9
M  V30 9 1 9 10
M  V30 10 2 10 11
M  V30 11 1 11 12
M  V30 12 1 12 13
M  V30 13 2 13 14
M  V30 14 1 14 15
M  V30 15 1 15 16
M  V30 16 2 15 17
M  V30 17 1 17 18
M  V30 18 1 17 19
M  V30 19 1 19 20
M  V30 20 2 19 21
M  V30 21 2 12 22
M  V30 22 1 22 23
M  V30 23 2 23 24
M  V30 24 1 24 25
M  V30 25 1 25 26
M  V30 26 1 26 27
M  V30 27 1 27 28
M  V30 28 1 28 29
M  V30 29 1 29 30
M  V30 30 1 24 6
M  V30 31 1 30 25
M  V30 32 1 23 9
M  V30 33 1 21 13
M  V30 34 1 1 31
M  V30 35 1 1 32
M  V30 36 1 1 33
M  V30 37 1 2 34
M  V30 38 1 2 35
M  V30 39 1 7 36
M  V30 40 1 10 37
M  V30 41 1 11 38
M  V30 42 1 14 39
M  V30 43 1 18 40
M  V30 44 1 21 41
M  V30 45 1 26 42
M  V30 46 1 26 43
M  V30 47 1 27 44
M  V30 48 1 27 45
M  V30 49 1 28 46
M  V30 50 1 28 47
M  V30 51 1 29 48
M  V30 52 1 29 49
M  V30 53 1 30 50
M  V30 54 1 30 51
M  V30 END BOND
M  V30 END CTAB
M  END
>  <Dataset>  (456) 
ChEMBL_Kinases

>  <Ligand_Instance>  (456) 
nan

>  <PDB_ID>  (456) 
nan

>  <Standardized_SMILES>  (456) 
CCOC(=O)c1cnc2ccc(-c3cc(Cl)c(O)c(Cl)c3)nc2c1N1CCCCC1

>  <Name>  (456) 
nan

>  <Pocket>  (456) 
nan

>  <ATP_Site>  (456) 
nan

>  <Peripheral>  (456) 
nan

>  <Num_H_Atoms_ProtBoundConf>  (456) 
nan

>  <Num_Resolved_Atoms>  (456) 
nan

>  <Num_Not_Resolved_Atoms>  (456) 
nan

$$$$
CHEMBL4537653
     RDKit          3D

  0  0  0  0  0  0  0  0  0  0999 V3000
M  V30 BEGIN CTAB
M  V30 COUNTS 51 55 0 0 0
M  V30 BEGIN ATOM
M  V30 1 C -4.058786 -2.987992 3.765924 0
M  V30 2 C -2.941941 -2.326960 3.067838 0
M  V30 3 C -2.251625 -1.211164 3.524573 0
M  V30 4 C -1.208857 -0.642307 2.812208 0
M  V30 5 O -0.730229 0.458842 3.540193 0
M  V30 6 C -0.821648 -1.200255 1.581722 0
M  V30 7 C 0.261054 -0.353775 1.165735 0
M  V30 8 C 1.650973 -0.461283 1.426498 0
M  V30 9 C 2.493197 0.537962 0.986687 0
M  V30 10 C 2.005869 1.631548 0.302216 0
M  V30 11 C 3.060198 2.596830 -0.090758 0
M  V30 12 C 2.581364 3.834195 -0.823320 0
M  V30 13 N 1.666826 4.513877 0.075413 0
M  V30 14 C 4.457478 2.146761 -0.294420 0
M  V30 15 C 4.142179 2.926577 0.928861 0
M  V30 16 C 0.662311 1.771053 0.030159 0
M  V30 17 C -0.200603 0.785180 0.459527 0
M  V30 18 C -1.509262 -2.285495 1.159401 0
M  V30 19 C -2.537306 -2.847551 1.860286 0
M  V30 20 N -3.160753 -3.924827 1.360409 0
M  V30 21 C -2.813257 -4.478560 0.189213 0
M  V30 22 O -3.410683 -5.487976 -0.260910 0
M  V30 23 C -1.767207 -3.895622 -0.510441 0
M  V30 24 C -1.432315 -4.474848 -1.698504 0
M  V30 25 O -2.103646 -5.576341 -2.162992 0
M  V30 26 C -0.393612 -3.895378 -2.394682 0
M  V30 27 C 0.323283 -2.771107 -1.964105 0
M  V30 28 C -0.119680 -2.293299 -0.755273 0
M  V30 29 C -1.126346 -2.809846 -0.023694 0
M  V30 30 H -3.794442 -4.043913 4.040526 0
M  V30 31 H -4.993120 -3.025855 3.158215 0
M  V30 32 H -4.312917 -2.499783 4.712495 0
M  V30 33 H -2.655084 -0.888343 4.481987 0
M  V30 34 H 0.077467 0.296443 4.099097 0
M  V30 35 H 1.875210 -1.364494 1.966119 0
M  V30 36 H 3.509889 0.301536 1.266232 0
M  V30 37 H 3.400287 4.494081 -1.110184 0
M  V30 38 H 1.985709 3.461432 -1.681684 0
M  V30 39 H 1.140729 5.272881 -0.374010 0
M  V30 40 H 2.117591 4.764582 0.971715 0
M  V30 41 H 4.732479 1.102905 -0.154265 0
M  V30 42 H 5.079885 2.708633 -1.037451 0
M  V30 43 H 3.996584 2.412264 1.907015 0
M  V30 44 H 4.500646 3.951947 1.055895 0
M  V30 45 H 0.334419 2.645272 -0.509507 0
M  V30 46 H -1.234387 0.971207 0.206036 0
M  V30 47 H -3.948249 -4.359897 1.891772 0
M  V30 48 H -1.732353 -6.252625 -2.818813 0
M  V30 49 H -0.157864 -4.388368 -3.338154 0
M  V30 50 H 1.095178 -2.481809 -2.659305 0
M  V30 51 H 0.513071 -1.483039 -0.606835 0
M  V30 END ATOM
M  V30 BEGIN BOND
M  V30 1 1 1 2
M  V30 2 2 2 3
M  V30 3 1 3 4
M  V30 4 1 4 5
M  V30 5 2 4 6
M  V30 6 1 6 7
M  V30 7 2 7 8
M  V30 8 1 8 9
M  V30 9 2 9 10
M  V30 10 1 10 11
M  V30 11 1 11 12
M  V30 12 1 12 13
M  V30 13 1 11 14
M  V30 14 1 14 15
M  V30 15 1 10 16
M  V30 16 2 16 17
M  V30 17 1 6 18
M  V30 18 2 18 19
M  V30 19 1 19 20
M  V30 20 1 20 21
M  V30 21 2 21 22
M  V30 22 1 21 23
M  V30 23 2 23 24
M  V30 24 1 24 25
M  V30 25 1 24 26
M  V30 26 2 26 27
M  V30 27 1 27 28
M  V30 28 2 28 29
M  V30 29 1 19 2
M  V30 30 1 29 23
M  V30 31 1 17 7
M  V30 32 1 29 18
M  V30 33 1 15 11
M  V30 34 1 1 30
M  V30 35 1 1 31
M  V30 36 1 1 32
M  V30 37 1 3 33
M  V30 38 1 5 34
M  V30 39 1 8 35
M  V30 40 1 9 36
M  V30 41 1 12 37
M  V30 42 1 12 38
M  V30 43 1 13 39
M  V30 44 1 13 40
M  V30 45 1 14 41
M  V30 46 1 14 42
M  V30 47 1 15 43
M  V30 48 1 15 44
M  V30 49 1 16 45
M  V30 50 1 17 46
M  V30 51 1 20 47
M  V30 52 1 25 48
M  V30 53 1 26 49
M  V30 54 1 27 50
M  V30 55 1 28 51
M  V30 END BOND
M  V30 END CTAB
M  END
>  <Dataset>  (457) 
ChEMBL_Kinases

>  <Ligand_Instance>  (457) 
nan

>  <PDB_ID>  (457) 
nan

>  <Standardized_SMILES>  (457) 
Cc1cc(O)c(-c2ccc(C3(CN)CC3)cc2)c2c1[nH]c(=O)c1c(O)cccc12

>  <Name>  (457) 
nan

>  <Pocket>  (457) 
nan

>  <ATP_Site>  (457) 
nan

>  <Peripheral>  (457) 
nan

>  <Num_H_Atoms_ProtBoundConf>  (457) 
nan

>  <Num_Resolved_Atoms>  (457) 
nan

>  <Num_Not_Resolved_Atoms>  (457) 
nan

$$$$
CHEMBL4641403
     RDKit          3D

  0  0  0  0  0  0  0  0  0  0999 V3000
M  V30 BEGIN CTAB
M  V30 COUNTS 76 80 0 0 0
M  V30 BEGIN ATOM
M  V30 1 C 2.014393 -8.360661 2.623095 0
M  V30 2 C 3.427915 -7.875947 2.315708 0
M  V30 3 C 3.814370 -6.707917 3.192826 0
M  V30 4 C 2.874416 -5.533919 3.001844 0
M  V30 5 N 2.863871 -5.048337 1.635972 0
M  V30 6 C 2.014744 -3.942736 1.350101 0
M  V30 7 O 1.548965 -3.781714 2.495643 0
M  V30 8 C 1.954114 -3.416049 0.015789 0
M  V30 9 C 2.709917 -3.980967 -0.965772 0
M  V30 10 N 2.655478 -3.507342 -2.210038 0
M  V30 11 C 1.875055 -2.475786 -2.564803 0
M  V30 12 C 1.949079 -2.127927 -3.920760 0
M  V30 13 C 1.157152 -1.078272 -4.329154 0
M  V30 14 C 0.372944 -0.474984 -3.372615 0
M  V30 15 C -0.484689 0.608111 -3.832661 0
M  V30 16 C -0.508054 1.067792 -5.130715 0
M  V30 17 C -1.344289 2.084863 -5.533310 0
M  V30 18 Cl -1.336420 2.632178 -7.201757 0
M  V30 19 C -2.209149 2.704298 -4.660111 0
M  V30 20 O -3.046850 3.728775 -5.078630 0
M  V30 21 C -2.218609 2.273063 -3.343557 0
M  V30 22 Cl -3.314640 3.048825 -2.241146 0
M  V30 23 C -1.366444 1.258156 -2.996772 0
M  V30 24 N 0.347709 -0.856522 -2.081719 0
M  V30 25 C 1.091782 -1.870676 -1.607711 0
M  V30 26 C 1.123314 -2.332882 -0.307013 0
M  V30 27 N 0.324396 -1.658153 0.648853 0
M  V30 28 C -0.603354 -0.648640 0.965005 0 CFG=1
M  V30 29 C -1.972133 -0.725134 0.406186 0
M  V30 30 C -2.670429 0.584938 0.669171 0
M  V30 31 C -2.691212 0.999665 2.111870 0 CFG=2
M  V30 32 C -2.955981 2.453041 2.219858 0
M  V30 33 O -3.951830 2.884493 2.875514 0
M  V30 34 N -2.281872 3.589797 1.704976 0
M  V30 35 C -2.879248 4.862610 2.057923 0
M  V30 36 C -1.845928 5.708136 2.793823 0
M  V30 37 O -0.563749 5.208455 2.696094 0
M  V30 38 C -0.253390 4.934468 1.368813 0
M  V30 39 C -1.089646 3.781431 0.869155 0
M  V30 40 C -1.403682 0.715730 2.830349 0
M  V30 41 C -0.797175 -0.588756 2.489264 0
M  V30 42 H 1.644889 -7.933340 3.563250 0
M  V30 43 H 1.943828 -9.457777 2.720535 0
M  V30 44 H 1.390322 -8.059036 1.759943 0
M  V30 45 H 3.587404 -7.662713 1.255571 0
M  V30 46 H 4.088922 -8.732025 2.589999 0
M  V30 47 H 3.809996 -6.977761 4.248414 0
M  V30 48 H 4.817694 -6.381591 2.862352 0
M  V30 49 H 3.165979 -4.760581 3.737578 0
M  V30 50 H 1.828504 -5.816335 3.252527 0
M  V30 51 H 3.501713 -5.569413 0.955907 0
M  V30 52 H 3.378153 -4.807686 -0.836789 0
M  V30 53 H 2.600818 -2.668450 -4.592642 0
M  V30 54 H 1.254331 -0.858564 -5.380523 0
M  V30 55 H 0.120256 0.656941 -5.875646 0
M  V30 56 H -4.000111 3.496475 -5.273832 0
M  V30 57 H -1.343449 0.891744 -1.980728 0
M  V30 58 H 0.483576 -2.117653 1.567678 0
M  V30 59 H -0.181459 0.389299 0.741184 0
M  V30 60 H -2.046928 -0.976585 -0.658220 0
M  V30 61 H -2.582785 -1.497274 0.934633 0
M  V30 62 H -3.741654 0.448451 0.347708 0
M  V30 63 H -2.301966 1.431198 0.058856 0
M  V30 64 H -3.512388 0.457639 2.617100 0
M  V30 65 H -3.068481 5.379579 1.072836 0
M  V30 66 H -3.800169 4.786493 2.649474 0
M  V30 67 H -2.108806 5.782381 3.880317 0
M  V30 68 H -1.841420 6.748218 2.386030 0
M  V30 69 H -0.377815 5.866282 0.757667 0
M  V30 70 H 0.819671 4.663861 1.304406 0
M  V30 71 H -1.513660 4.129399 -0.117692 0
M  V30 72 H -0.495618 2.872878 0.762536 0
M  V30 73 H -1.647401 0.710832 3.931960 0
M  V30 74 H -0.649382 1.514648 2.722161 0
M  V30 75 H 0.184101 -0.661393 3.002492 0
M  V30 76 H -1.504900 -1.403471 2.760824 0
M  V30 END ATOM
M  V30 BEGIN BOND
M  V30 1 1 1 2
M  V30 2 1 2 3
M  V30 3 1 3 4
M  V30 4 1 4 5
M  V30 5 1 5 6
M  V30 6 2 6 7
M  V30 7 1 6 8
M  V30 8 2 8 9
M  V30 9 1 9 10
M  V30 10 2 10 11
M  V30 11 1 11 12
M  V30 12 2 12 13
M  V30 13 1 13 14
M  V30 14 1 14 15
M  V30 15 2 15 16
M  V30 16 1 16 17
M  V30 17 1 17 18
M  V30 18 2 17 19
M  V30 19 1 19 20
M  V30 20 1 19 21
M  V30 21 1 21 22
M  V30 22 2 21 23
M  V30 23 2 14 24
M  V30 24 1 24 25
M  V30 25 2 25 26
M  V30 26 1 26 27
M  V30 27 1 27 28
M  V30 28 1 28 29
M  V30 29 1 29 30
M  V30 30 1 30 31
M  V30 31 1 31 32
M  V30 32 2 32 33
M  V30 33 1 32 34
M  V30 34 1 34 35
M  V30 35 1 35 36
M  V30 36 1 36 37
M  V30 37 1 37 38
M  V30 38 1 38 39
M  V30 39 1 31 40
M  V30 40 1 40 41
M  V30 41 1 26 8
M  V30 42 1 41 28
M  V30 43 1 25 11
M  V30 44 1 39 34
M  V30 45 1 23 15
M  V30 46 1 1 42
M  V30 47 1 1 43
M  V30 48 1 1 44
M  V30 49 1 2 45
M  V30 50 1 2 46
M  V30 51 1 3 47
M  V30 52 1 3 48
M  V30 53 1 4 49
M  V30 54 1 4 50
M  V30 55 1 5 51
M  V30 56 1 9 52
M  V30 57 1 12 53
M  V30 58 1 13 54
M  V30 59 1 16 55
M  V30 60 1 20 56
M  V30 61 1 23 57
M  V30 62 1 27 58
M  V30 63 1 28 59 CFG=3
M  V30 64 1 29 60
M  V30 65 1 29 61
M  V30 66 1 30 62
M  V30 67 1 30 63
M  V30 68 1 31 64 CFG=1
M  V30 69 1 35 65
M  V30 70 1 35 66
M  V30 71 1 36 67
M  V30 72 1 36 68
M  V30 73 1 38 69
M  V30 74 1 38 70
M  V30 75 1 39 71
M  V30 76 1 39 72
M  V30 77 1 40 73
M  V30 78 1 40 74
M  V30 79 1 41 75
M  V30 80 1 41 76
M  V30 END BOND
M  V30 END CTAB
M  END
>  <Dataset>  (458) 
ChEMBL_Kinases

>  <Ligand_Instance>  (458) 
nan

>  <PDB_ID>  (458) 
nan

>  <Standardized_SMILES>  (458) 
CCCCNC(=O)c1cnc2ccc(-c3cc(Cl)c(O)c(Cl)c3)nc2c1N[C@H]1CC[C@H](C(=O)N2CCOCC2)CC1

>  <Name>  (458) 
nan

>  <Pocket>  (458) 
nan

>  <ATP_Site>  (458) 
nan

>  <Peripheral>  (458) 
nan

>  <Num_H_Atoms_ProtBoundConf>  (458) 
nan

>  <Num_Resolved_Atoms>  (458) 
nan

>  <Num_Not_Resolved_Atoms>  (458) 
nan

$$$$
CHEMBL4641470
     RDKit          3D

  0  0  0  0  0  0  0  0  0  0999 V3000
M  V30 BEGIN CTAB
M  V30 COUNTS 58 61 0 0 0
M  V30 BEGIN ATOM
M  V30 1 C 2.838243 -4.471473 6.635832 0
M  V30 2 C 1.830333 -4.288880 5.495599 0
M  V30 3 O 2.181858 -3.081300 4.846777 0
M  V30 4 C 1.506129 -2.563483 3.752236 0
M  V30 5 O 0.789545 -3.569251 3.873359 0
M  V30 6 C 1.859855 -1.321229 3.077564 0
M  V30 7 C 2.936249 -0.663849 3.597463 0
M  V30 8 N 3.260968 0.472158 2.981422 0
M  V30 9 C 2.587620 0.947481 1.925982 0
M  V30 10 C 3.083861 2.138143 1.444417 0
M  V30 11 C 2.463607 2.728619 0.358868 0
M  V30 12 C 1.383364 2.043272 -0.140467 0
M  V30 13 C 0.682244 2.622075 -1.277239 0
M  V30 14 C 1.029715 3.801605 -1.899412 0
M  V30 15 C 0.347911 4.335293 -2.973030 0
M  V30 16 Cl 0.862426 5.832754 -3.693774 0
M  V30 17 C -0.751720 3.674993 -3.479199 0
M  V30 18 O -1.448265 4.198128 -4.558257 0
M  V30 19 C -1.128991 2.496691 -2.886015 0
M  V30 20 Cl -2.528514 1.683958 -3.552199 0
M  V30 21 C -0.420226 2.013445 -1.827484 0
M  V30 22 N 0.940069 0.879175 0.370431 0
M  V30 23 C 1.504411 0.272526 1.413983 0
M  V30 24 C 1.112876 -0.904140 1.996758 0
M  V30 25 N 0.018899 -1.580062 1.485462 0
M  V30 26 C -1.013782 -1.678091 0.515529 0 CFG=1
M  V30 27 C -0.523627 -1.943859 -0.877008 0
M  V30 28 C -1.643701 -1.767289 -1.850272 0
M  V30 29 C -2.820228 -2.664177 -1.524758 0 CFG=2
M  V30 30 C -3.952956 -2.235780 -2.385424 0
M  V30 31 N -3.614575 -2.360380 -3.767735 0
M  V30 32 O -5.126643 -1.793466 -2.475580 0
M  V30 33 C -3.245647 -2.475947 -0.077359 0
M  V30 34 C -2.068751 -2.731555 0.832558 0
M  V30 35 H 2.666531 -5.392039 7.209214 0
M  V30 36 H 2.899052 -3.580331 7.276107 0
M  V30 37 H 3.832200 -4.560158 6.148078 0
M  V30 38 H 2.022853 -5.136163 4.810005 0
M  V30 39 H 0.795767 -4.277849 5.897620 0
M  V30 40 H 3.466731 -1.042393 4.432711 0
M  V30 41 H 3.955941 2.643398 1.886482 0
M  V30 42 H 2.879551 3.657636 0.011331 0
M  V30 43 H 1.880673 4.359918 -1.546066 0
M  V30 44 H -2.455967 4.217010 -4.629493 0
M  V30 45 H -0.705708 1.088916 -1.346891 0
M  V30 46 H -0.150932 -2.446467 2.078893 0
M  V30 47 H -1.620071 -0.724401 0.434074 0
M  V30 48 H -0.236490 -3.040478 -0.883427 0
M  V30 49 H 0.365225 -1.358638 -1.178495 0
M  V30 50 H -1.324985 -2.051386 -2.877280 0
M  V30 51 H -2.046302 -0.741283 -1.864216 0
M  V30 52 H -2.607109 -3.718315 -1.727467 0
M  V30 53 H -4.077449 -2.765272 -4.622542 0
M  V30 54 H -2.961954 -2.208739 -4.563984 0
M  V30 55 H -3.652590 -1.441777 0.058118 0
M  V30 56 H -4.081785 -3.169699 0.111669 0
M  V30 57 H -1.643182 -3.711512 0.538577 0
M  V30 58 H -2.387949 -2.683932 1.875220 0
M  V30 END ATOM
M  V30 BEGIN BOND
M  V30 1 1 1 2
M  V30 2 1 2 3
M  V30 3 1 3 4
M  V30 4 2 4 5
M  V30 5 1 4 6
M  V30 6 2 6 7
M  V30 7 1 7 8
M  V30 8 2 8 9
M  V30 9 1 9 10
M  V30 10 2 10 11
M  V30 11 1 11 12
M  V30 12 1 12 13
M  V30 13 2 13 14
M  V30 14 1 14 15
M  V30 15 1 15 16
M  V30 16 2 15 17
M  V30 17 1 17 18
M  V30 18 1 17 19
M  V30 19 1 19 20
M  V30 20 2 19 21
M  V30 21 2 12 22
M  V30 22 1 22 23
M  V30 23 2 23 24
M  V30 24 1 24 25
M  V30 25 1 25 26
M  V30 26 1 26 27
M  V30 27 1 27 28
M  V30 28 1 28 29
M  V30 29 1 29 30
M  V30 30 1 30 31
M  V30 31 2 30 32
M  V30 32 1 29 33
M  V30 33 1 33 34
M  V30 34 1 24 6
M  V30 35 1 34 26
M  V30 36 1 23 9
M  V30 37 1 21 13
M  V30 38 1 1 35
M  V30 39 1 1 36
M  V30 40 1 1 37
M  V30 41 1 2 38
M  V30 42 1 2 39
M  V30 43 1 7 40
M  V30 44 1 10 41
M  V30 45 1 11 42
M  V30 46 1 14 43
M  V30 47 1 18 44
M  V30 48 1 21 45
M  V30 49 1 25 46
M  V30 50 1 26 47 CFG=3
M  V30 51 1 27 48
M  V30 52 1 27 49
M  V30 53 1 28 50
M  V30 54 1 28 51
M  V30 55 1 29 52 CFG=1
M  V30 56 1 31 53
M  V30 57 1 31 54
M  V30 58 1 33 55
M  V30 59 1 33 56
M  V30 60 1 34 57
M  V30 61 1 34 58
M  V30 END BOND
M  V30 END CTAB
M  END
>  <Dataset>  (459) 
ChEMBL_Kinases

>  <Ligand_Instance>  (459) 
nan

>  <PDB_ID>  (459) 
nan

>  <Standardized_SMILES>  (459) 
CCOC(=O)c1cnc2ccc(-c3cc(Cl)c(O)c(Cl)c3)nc2c1N[C@H]1CC[C@H](C(N)=O)CC1

>  <Name>  (459) 
nan

>  <Pocket>  (459) 
nan

>  <ATP_Site>  (459) 
nan

>  <Peripheral>  (459) 
nan

>  <Num_H_Atoms_ProtBoundConf>  (459) 
nan

>  <Num_Resolved_Atoms>  (459) 
nan

>  <Num_Not_Resolved_Atoms>  (459) 
nan

$$$$
CHEMBL4537352
     RDKit          3D

  0  0  0  0  0  0  0  0  0  0999 V3000
M  V30 BEGIN CTAB
M  V30 COUNTS 45 48 0 0 0
M  V30 BEGIN ATOM
M  V30 1 N 2.475810 -0.211357 7.018611 0
M  V30 2 C 2.460384 0.075382 5.903242 0
M  V30 3 C 2.428343 0.414477 4.495652 0
M  V30 4 N 3.374829 1.296935 4.124663 0
M  V30 5 C 3.514269 1.740190 2.869746 0
M  V30 6 C 2.618687 1.246887 1.909466 0
M  V30 7 N 2.753343 1.708091 0.578745 0
M  V30 8 C 2.017909 1.448165 -0.606357 0
M  V30 9 N 2.288474 1.980890 -1.822035 0
M  V30 10 C 1.545979 1.688072 -2.895162 0
M  V30 11 C 0.470591 0.835526 -2.834447 0
M  V30 12 C -0.344928 0.506719 -3.997003 0
M  V30 13 C -0.085442 1.043109 -5.262661 0
M  V30 14 C -1.055232 0.496078 -6.054187 0
M  V30 15 C -1.846580 -0.323999 -5.285120 0
M  V30 16 O -1.400841 -0.302370 -4.050631 0
M  V30 17 C 0.186743 0.289433 -1.606673 0
M  V30 18 N 0.963227 0.620685 -0.579389 0
M  V30 19 C 1.656741 0.346875 2.297306 0
M  V30 20 C 1.513758 -0.103620 3.570874 0
M  V30 21 O 0.651988 -0.976509 4.179556 0
M  V30 22 C -0.350458 -1.630144 3.490394 0
M  V30 23 C -0.117881 -3.148559 3.471425 0
M  V30 24 C -0.979512 -3.667616 2.346336 0
M  V30 25 C -2.372819 -3.187910 2.535457 0
M  V30 26 N -2.652538 -2.446485 3.709330 0
M  V30 27 C -1.752554 -1.353493 3.968901 0
M  V30 28 H 4.315996 2.461208 2.661207 0
M  V30 29 H 3.535119 2.375444 0.378518 0
M  V30 30 H 1.824296 2.149941 -3.816572 0
M  V30 31 H 0.655395 1.716580 -5.626983 0
M  V30 32 H -1.299496 0.579527 -7.094883 0
M  V30 33 H -2.695436 -0.928074 -5.503745 0
M  V30 34 H -0.657695 -0.395864 -1.496156 0
M  V30 35 H 0.944335 -0.067865 1.616701 0
M  V30 36 H -0.330769 -1.336845 2.425875 0
M  V30 37 H -0.380491 -3.568896 4.450973 0
M  V30 38 H 0.964444 -3.332736 3.307747 0
M  V30 39 H -0.907652 -4.774294 2.259554 0
M  V30 40 H -0.517833 -3.250044 1.404208 0
M  V30 41 H -3.036064 -4.095096 2.557374 0
M  V30 42 H -2.686654 -2.663078 1.590493 0
M  V30 43 H -2.954214 -2.981556 4.534926 0
M  V30 44 H -2.201652 -0.440909 3.528518 0
M  V30 45 H -1.705087 -1.205899 5.066353 0
M  V30 END ATOM
M  V30 BEGIN BOND
M  V30 1 3 1 2
M  V30 2 1 2 3
M  V30 3 2 3 4
M  V30 4 1 4 5
M  V30 5 2 5 6
M  V30 6 1 6 7
M  V30 7 1 7 8
M  V30 8 2 8 9
M  V30 9 1 9 10
M  V30 10 2 10 11
M  V30 11 1 11 12
M  V30 12 2 12 13
M  V30 13 1 13 14
M  V30 14 2 14 15
M  V30 15 1 15 16
M  V30 16 1 11 17
M  V30 17 2 17 18
M  V30 18 1 6 19
M  V30 19 2 19 20
M  V30 20 1 20 21
M  V30 21 1 21 22
M  V30 22 1 22 23
M  V30 23 1 23 24
M  V30 24 1 24 25
M  V30 25 1 25 26
M  V30 26 1 26 27
M  V30 27 1 20 3
M  V30 28 1 27 22
M  V30 29 1 18 8
M  V30 30 1 16 12
M  V30 31 1 5 28
M  V30 32 1 7 29
M  V30 33 1 10 30
M  V30 34 1 13 31
M  V30 35 1 14 32
M  V30 36 1 15 33
M  V30 37 1 17 34
M  V30 38 1 19 35
M  V30 39 1 22 36
M  V30 40 1 23 37
M  V30 41 1 23 38
M  V30 42 1 24 39
M  V30 43 1 24 40
M  V30 44 1 25 41
M  V30 45 1 25 42
M  V30 46 1 26 43
M  V30 47 1 27 44
M  V30 48 1 27 45
M  V30 END BOND
M  V30 END CTAB
M  END
>  <Dataset>  (460) 
ChEMBL_Kinases

>  <Ligand_Instance>  (460) 
nan

>  <PDB_ID>  (460) 
nan

>  <Standardized_SMILES>  (460) 
N#Cc1ncc(Nc2ncc(-c3ccco3)cn2)cc1OC1CCCNC1

>  <Name>  (460) 
nan

>  <Pocket>  (460) 
nan

>  <ATP_Site>  (460) 
nan

>  <Peripheral>  (460) 
nan

>  <Num_H_Atoms_ProtBoundConf>  (460) 
nan

>  <Num_Resolved_Atoms>  (460) 
nan

>  <Num_Not_Resolved_Atoms>  (460) 
nan

$$$$
CHEMBL4641530
     RDKit          3D

  0  0  0  0  0  0  0  0  0  0999 V3000
M  V30 BEGIN CTAB
M  V30 COUNTS 59 62 0 0 0
M  V30 BEGIN ATOM
M  V30 1 C 0.903731 -5.014954 4.264501 0
M  V30 2 O 0.567687 -5.902341 3.214977 0
M  V30 3 C 0.584502 -5.560095 1.893390 0
M  V30 4 C 0.943542 -4.289832 1.529005 0
M  V30 5 C 0.968231 -3.919504 0.198844 0
M  V30 6 C 1.311851 -2.635436 -0.400521 0
M  V30 7 C 2.182750 -2.640966 -1.502051 0
M  V30 8 N 2.554897 -1.501736 -2.116248 0
M  V30 9 C 2.079906 -0.327114 -1.662760 0
M  V30 10 C 1.209285 -0.280011 -0.566812 0
M  V30 11 C 0.795013 1.061406 -0.209416 0
M  V30 12 C 0.755939 1.607131 1.058143 0
M  V30 13 C 0.339223 2.903243 1.283261 0
M  V30 14 C -0.059984 3.729702 0.278238 0
M  V30 15 C -0.498020 5.096274 0.518901 0
M  V30 16 C -0.537525 5.630129 1.728341 0
M  V30 17 C -0.998615 7.036127 1.887338 0
M  V30 18 N -2.309707 7.084134 1.255663 0
M  V30 19 C -2.271307 6.708096 -0.122479 0
M  V30 20 C -0.948821 6.060398 -0.514992 0
M  V30 21 C -0.026996 3.200924 -0.992459 0
M  V30 22 C 0.385840 1.905469 -1.248573 0
M  V30 23 C 0.825996 -1.428963 0.062685 0
M  V30 24 C -0.073037 -1.360668 1.184176 0
M  V30 25 C 0.619963 -4.873524 -0.732660 0
M  V30 26 C 0.252925 -6.163595 -0.399880 0
M  V30 27 O -0.104999 -7.162072 -1.273754 0
M  V30 28 C -0.133569 -6.952721 -2.676912 0
M  V30 29 C 0.237553 -6.507746 0.953723 0
M  V30 30 O -0.115831 -7.772360 1.379164 0
M  V30 31 C -1.486579 -8.021451 1.662919 0
M  V30 32 H 1.726696 -4.314451 4.004911 0
M  V30 33 H 1.165540 -5.600165 5.194038 0
M  V30 34 H 0.020439 -4.385578 4.499530 0
M  V30 35 H 1.229108 -3.496179 2.204937 0
M  V30 36 H 2.580902 -3.586067 -1.887106 0
M  V30 37 H 2.426818 0.526433 -2.209026 0
M  V30 38 H 1.072585 0.958991 1.862709 0
M  V30 39 H 0.358391 3.198934 2.318028 0
M  V30 40 H -0.248138 5.086927 2.609371 0
M  V30 41 H -1.175436 7.271205 2.953344 0
M  V30 42 H -0.302394 7.757462 1.415159 0
M  V30 43 H -2.913139 6.404381 1.770179 0
M  V30 44 H -2.436542 7.636306 -0.715313 0
M  V30 45 H -3.134306 6.053102 -0.358000 0
M  V30 46 H -0.219181 6.914662 -0.624995 0
M  V30 47 H -1.023450 5.629893 -1.521642 0
M  V30 48 H -0.321565 3.766770 -1.865120 0
M  V30 49 H 0.399842 1.523782 -2.250618 0
M  V30 50 H 0.329636 -1.287039 2.189207 0
M  V30 51 H -0.634542 -2.351008 1.222726 0
M  V30 52 H -0.987890 -0.716369 1.018934 0
M  V30 53 H 0.598167 -4.714371 -1.802651 0
M  V30 54 H -0.507870 -5.962352 -2.975395 0
M  V30 55 H -0.653854 -7.782603 -3.192096 0
M  V30 56 H 0.930966 -7.000926 -3.029053 0
M  V30 57 H -1.652169 -9.051749 2.023027 0
M  V30 58 H -2.061583 -7.851774 0.738072 0
M  V30 59 H -1.852007 -7.351099 2.482644 0
M  V30 END ATOM
M  V30 BEGIN BOND
M  V30 1 1 1 2
M  V30 2 1 2 3
M  V30 3 2 3 4
M  V30 4 1 4 5
M  V30 5 1 5 6
M  V30 6 2 6 7
M  V30 7 1 7 8
M  V30 8 2 8 9
M  V30 9 1 9 10
M  V30 10 1 10 11
M  V30 11 2 11 12
M  V30 12 1 12 13
M  V30 13 2 13 14
M  V30 14 1 14 15
M  V30 15 2 15 16
M  V30 16 1 16 17
M  V30 17 1 17 18
M  V30 18 1 18 19
M  V30 19 1 19 20
M  V30 20 1 14 21
M  V30 21 2 21 22
M  V30 22 2 10 23
M  V30 23 1 23 24
M  V30 24 2 5 25
M  V30 25 1 25 26
M  V30 26 1 26 27
M  V30 27 1 27 28
M  V30 28 2 26 29
M  V30 29 1 29 30
M  V30 30 1 30 31
M  V30 31 1 29 3
M  V30 32 1 23 6
M  V30 33 1 22 11
M  V30 34 1 20 15
M  V30 35 1 1 32
M  V30 36 1 1 33
M  V30 37 1 1 34
M  V30 38 1 4 35
M  V30 39 1 7 36
M  V30 40 1 9 37
M  V30 41 1 12 38
M  V30 42 1 13 39
M  V30 43 1 16 40
M  V30 44 1 17 41
M  V30 45 1 17 42
M  V30 46 1 18 43
M  V30 47 1 19 44
M  V30 48 1 19 45
M  V30 49 1 20 46
M  V30 50 1 20 47
M  V30 51 1 21 48
M  V30 52 1 22 49
M  V30 53 1 24 50
M  V30 54 1 24 51
M  V30 55 1 24 52
M  V30 56 1 25 53
M  V30 57 1 28 54
M  V30 58 1 28 55
M  V30 59 1 28 56
M  V30 60 1 31 57
M  V30 61 1 31 58
M  V30 62 1 31 59
M  V30 END BOND
M  V30 END CTAB
M  END
>  <Dataset>  (461) 
ChEMBL_Kinases

>  <Ligand_Instance>  (461) 
nan

>  <PDB_ID>  (461) 
nan

>  <Standardized_SMILES>  (461) 
COc1cc(-c2cncc(-c3ccc(C4=CCNCC4)cc3)c2C)cc(OC)c1OC

>  <Name>  (461) 
nan

>  <Pocket>  (461) 
nan

>  <ATP_Site>  (461) 
nan

>  <Peripheral>  (461) 
nan

>  <Num_H_Atoms_ProtBoundConf>  (461) 
nan

>  <Num_Resolved_Atoms>  (461) 
nan

>  <Num_Not_Resolved_Atoms>  (461) 
nan

$$$$
CHEMBL4642847
     RDKit          3D

  0  0  0  0  0  0  0  0  0  0999 V3000
M  V30 BEGIN CTAB
M  V30 COUNTS 55 59 0 0 0
M  V30 BEGIN ATOM
M  V30 1 C 3.633602 -5.108323 3.083688 0
M  V30 2 C 4.043043 -4.369966 1.837003 0
M  V30 3 O 5.352669 -3.900778 1.868085 0
M  V30 4 C 3.209194 -3.159239 1.621038 0
M  V30 5 C 2.516635 -2.186798 1.455427 0
M  V30 6 C 1.681477 -1.033247 1.276261 0
M  V30 7 C 2.196746 0.200887 1.515122 0
M  V30 8 C 1.392591 1.306043 1.338659 0
M  V30 9 C 0.061013 1.195116 0.920497 0
M  V30 10 N -0.569044 2.461299 0.794445 0
M  V30 11 C -1.072187 3.327676 -0.251141 0
M  V30 12 C -0.584200 4.756599 -0.101290 0
M  V30 13 O -0.556684 5.193672 1.210161 0
M  V30 14 C -1.317915 4.378737 2.048265 0
M  V30 15 C -0.744540 2.982800 2.137842 0
M  V30 16 C -0.467334 -0.044687 0.677226 0
M  V30 17 N -1.805415 -0.183976 0.276987 0
M  V30 18 C -2.628996 0.176613 -0.813963 0
M  V30 19 N -2.254914 0.800202 -1.932288 0
M  V30 20 C -3.068172 1.122798 -2.941444 0
M  V30 21 N -4.352363 0.796240 -2.821357 0
M  V30 22 C -4.838500 0.161707 -1.728833 0
M  V30 23 N -6.058966 -0.255399 -1.396268 0
M  V30 24 C -6.068045 -0.845882 -0.189829 0
M  V30 25 C -4.740777 -0.773528 0.229977 0
M  V30 26 C -3.945475 -0.139094 -0.730259 0
M  V30 27 C 0.371063 -1.141348 0.865169 0
M  V30 28 C 3.871041 -5.308767 0.686346 0
M  V30 29 C 2.786210 -5.486409 -0.090313 0
M  V30 30 C 2.813415 -6.399737 -1.109916 0
M  V30 31 C 4.046082 -7.115794 -1.266496 0
M  V30 32 S 5.096617 -6.383899 0.119475 0
M  V30 33 H 3.305248 -6.154462 2.901892 0
M  V30 34 H 4.455929 -5.192716 3.824094 0
M  V30 35 H 2.771301 -4.590713 3.534443 0
M  V30 36 H 5.909770 -4.340009 2.560429 0
M  V30 37 H 3.216224 0.281297 1.834593 0
M  V30 38 H 1.893252 2.260903 1.555024 0
M  V30 39 H -0.710184 3.000904 -1.258284 0
M  V30 40 H -2.171913 3.289784 -0.273447 0
M  V30 41 H -1.200309 5.416584 -0.729716 0
M  V30 42 H 0.482262 4.763334 -0.446502 0
M  V30 43 H -2.387629 4.378783 1.746157 0
M  V30 44 H -1.269186 4.821889 3.060337 0
M  V30 45 H 0.190221 3.001876 2.704200 0
M  V30 46 H -1.528689 2.373984 2.655981 0
M  V30 47 H -2.215664 -0.719443 1.095247 0
M  V30 48 H -2.655674 1.628603 -3.801434 0
M  V30 49 H -6.954010 -0.172495 -1.948676 0
M  V30 50 H -6.865618 -1.299869 0.399426 0
M  V30 51 H -4.378683 -1.166892 1.191901 0
M  V30 52 H -0.036527 -2.125028 0.675982 0
M  V30 53 H 1.891384 -4.904677 0.093556 0
M  V30 54 H 2.002448 -6.619779 -1.789379 0
M  V30 55 H 4.203257 -7.896313 -2.066852 0
M  V30 END ATOM
M  V30 BEGIN BOND
M  V30 1 1 1 2
M  V30 2 1 2 3
M  V30 3 1 2 4
M  V30 4 3 4 5
M  V30 5 1 5 6
M  V30 6 2 6 7
M  V30 7 1 7 8
M  V30 8 2 8 9
M  V30 9 1 9 10
M  V30 10 1 10 11
M  V30 11 1 11 12
M  V30 12 1 12 13
M  V30 13 1 13 14
M  V30 14 1 14 15
M  V30 15 1 9 16
M  V30 16 1 16 17
M  V30 17 1 17 18
M  V30 18 2 18 19
M  V30 19 1 19 20
M  V30 20 2 20 21
M  V30 21 1 21 22
M  V30 22 1 22 23
M  V30 23 1 23 24
M  V30 24 2 24 25
M  V30 25 1 25 26
M  V30 26 2 16 27
M  V30 27 1 2 28
M  V30 28 2 28 29
M  V30 29 1 29 30
M  V30 30 2 30 31
M  V30 31 1 31 32
M  V30 32 1 27 6
M  V30 33 1 32 28
M  V30 34 1 15 10
M  V30 35 1 26 18
M  V30 36 2 26 22
M  V30 37 1 1 33
M  V30 38 1 1 34
M  V30 39 1 1 35
M  V30 40 1 3 36
M  V30 41 1 7 37
M  V30 42 1 8 38
M  V30 43 1 11 39
M  V30 44 1 11 40
M  V30 45 1 12 41
M  V30 46 1 12 42
M  V30 47 1 14 43
M  V30 48 1 14 44
M  V30 49 1 15 45
M  V30 50 1 15 46
M  V30 51 1 17 47
M  V30 52 1 20 48
M  V30 53 1 23 49
M  V30 54 1 24 50
M  V30 55 1 25 51
M  V30 56 1 27 52
M  V30 57 1 29 53
M  V30 58 1 30 54
M  V30 59 1 31 55
M  V30 END BOND
M  V30 END CTAB
M  END
>  <Dataset>  (462) 
ChEMBL_Kinases

>  <Ligand_Instance>  (462) 
nan

>  <PDB_ID>  (462) 
nan

>  <Standardized_SMILES>  (462) 
CC(O)(C#Cc1ccc(N2CCOCC2)c(Nc2ncnc3[nH]ccc23)c1)c1cccs1

>  <Name>  (462) 
nan

>  <Pocket>  (462) 
nan

>  <ATP_Site>  (462) 
nan

>  <Peripheral>  (462) 
nan

>  <Num_H_Atoms_ProtBoundConf>  (462) 
nan

>  <Num_Resolved_Atoms>  (462) 
nan

>  <Num_Not_Resolved_Atoms>  (462) 
nan

$$$$
CHEMBL4537258
     RDKit          3D

  0  0  0  0  0  0  0  0  0  0999 V3000
M  V30 BEGIN CTAB
M  V30 COUNTS 51 53 0 0 0
M  V30 BEGIN ATOM
M  V30 1 C 0.217282 -2.286885 2.076084 0
M  V30 2 C 0.847252 -1.054547 1.429968 0
M  V30 3 C 0.208421 0.152833 2.096481 0
M  V30 4 C 2.336266 -1.049864 1.717148 0
M  V30 5 O 2.820500 0.115653 1.152514 0
M  V30 6 C 4.159186 0.336090 1.288355 0
M  V30 7 C 5.056754 -0.710950 0.687187 0
M  V30 8 C 4.453538 1.636441 0.529527 0
M  V30 9 C 4.474095 0.567423 2.745870 0
M  V30 10 N 0.574564 -1.032730 0.001596 0
M  V30 11 C -0.779427 -1.004454 -0.423973 0
M  V30 12 N -1.777886 -0.999656 0.451062 0
M  V30 13 C -3.078866 -0.974368 0.111175 0
M  V30 14 C -4.145277 -0.971132 1.106304 0
M  V30 15 C -3.919238 -0.995483 2.466744 0
M  V30 16 C -4.918664 -0.993094 3.417691 0
M  V30 17 N -6.211511 -0.965109 2.997616 0
M  V30 18 C -6.485521 -0.940619 1.678887 0
M  V30 19 C -5.476642 -0.943380 0.743459 0
M  V30 20 N -3.426609 -0.952087 -1.186245 0
M  V30 21 C -2.485107 -0.954563 -2.172037 0
M  V30 22 C -2.832017 -0.931874 -3.504944 0
M  V30 23 N -1.859488 -0.935572 -4.434880 0
M  V30 24 C -0.543192 -0.961294 -4.079344 0
M  V30 25 C -0.226919 -0.983603 -2.737125 0
M  V30 26 C -1.178508 -0.981097 -1.741549 0
M  V30 27 H 0.361566 -3.194486 1.459054 0
M  V30 28 H 0.776408 -2.432928 3.039856 0
M  V30 29 H -0.814611 -2.068799 2.351185 0
M  V30 30 H 0.930812 0.536334 2.875902 0
M  V30 31 H 0.123332 1.005337 1.383207 0
M  V30 32 H -0.725228 -0.074295 2.609345 0
M  V30 33 H 2.485140 -1.014366 2.814977 0
M  V30 34 H 2.747894 -1.961980 1.290972 0
M  V30 35 H 6.048984 -0.589837 1.189494 0
M  V30 36 H 4.721194 -1.746154 0.820992 0
M  V30 37 H 5.222399 -0.521344 -0.379346 0
M  V30 38 H 5.471375 1.997096 0.688712 0
M  V30 39 H 3.658935 2.342051 0.862316 0
M  V30 40 H 4.207070 1.406033 -0.543761 0
M  V30 41 H 5.349967 1.231860 2.863532 0
M  V30 42 H 3.571365 0.999154 3.220111 0
M  V30 43 H 4.636300 -0.436506 3.206048 0
M  V30 44 H 1.410709 -1.039755 -0.612400 0
M  V30 45 H -2.915746 -1.018148 2.837111 0
M  V30 46 H -4.691112 -1.013151 4.489955 0
M  V30 47 H -7.515732 -0.918181 1.333641 0
M  V30 48 H -5.748568 -0.923146 -0.305387 0
M  V30 49 H -3.869504 -0.911588 -3.790417 0
M  V30 50 H 0.191391 -0.962907 -4.880811 0
M  V30 51 H 0.810377 -1.003080 -2.517196 0
M  V30 END ATOM
M  V30 BEGIN BOND
M  V30 1 1 1 2
M  V30 2 1 2 3
M  V30 3 1 2 4
M  V30 4 1 4 5
M  V30 5 1 5 6
M  V30 6 1 6 7
M  V30 7 1 6 8
M  V30 8 1 6 9
M  V30 9 1 2 10
M  V30 10 1 10 11
M  V30 11 2 11 12
M  V30 12 1 12 13
M  V30 13 1 13 14
M  V30 14 2 14 15
M  V30 15 1 15 16
M  V30 16 2 16 17
M  V30 17 1 17 18
M  V30 18 2 18 19
M  V30 19 2 13 20
M  V30 20 1 20 21
M  V30 21 2 21 22
M  V30 22 1 22 23
M  V30 23 2 23 24
M  V30 24 1 24 25
M  V30 25 2 25 26
M  V30 26 1 26 11
M  V30 27 1 19 14
M  V30 28 1 26 21
M  V30 29 1 1 27
M  V30 30 1 1 28
M  V30 31 1 1 29
M  V30 32 1 3 30
M  V30 33 1 3 31
M  V30 34 1 3 32
M  V30 35 1 4 33
M  V30 36 1 4 34
M  V30 37 1 7 35
M  V30 38 1 7 36
M  V30 39 1 7 37
M  V30 40 1 8 38
M  V30 41 1 8 39
M  V30 42 1 8 40
M  V30 43 1 9 41
M  V30 44 1 9 42
M  V30 45 1 9 43
M  V30 46 1 10 44
M  V30 47 1 15 45
M  V30 48 1 16 46
M  V30 49 1 18 47
M  V30 50 1 19 48
M  V30 51 1 22 49
M  V30 52 1 24 50
M  V30 53 1 25 51
M  V30 END BOND
M  V30 END CTAB
M  END
>  <Dataset>  (463) 
ChEMBL_Kinases

>  <Ligand_Instance>  (463) 
nan

>  <PDB_ID>  (463) 
nan

>  <Standardized_SMILES>  (463) 
CC(C)(COC(C)(C)C)Nc1nc(-c2ccncc2)nc2cnccc12

>  <Name>  (463) 
nan

>  <Pocket>  (463) 
nan

>  <ATP_Site>  (463) 
nan

>  <Peripheral>  (463) 
nan

>  <Num_H_Atoms_ProtBoundConf>  (463) 
nan

>  <Num_Resolved_Atoms>  (463) 
nan

>  <Num_Not_Resolved_Atoms>  (463) 
nan

$$$$
CHEMBL4641560
     RDKit          3D

  0  0  0  0  0  0  0  0  0  0999 V3000
M  V30 BEGIN CTAB
M  V30 COUNTS 38 40 0 0 0
M  V30 BEGIN ATOM
M  V30 1 O -1.095867 -1.745320 1.134818 0
M  V30 2 C -0.499184 -2.857408 1.093367 0
M  V30 3 N 0.908418 -2.824099 0.898902 0
M  V30 4 C 1.399289 -1.489838 0.782952 0
M  V30 5 C 1.823453 -0.710875 1.828642 0
M  V30 6 C 2.288076 0.591537 1.598340 0
M  V30 7 C 2.334235 1.135488 0.305693 0
M  V30 8 O 2.829778 2.411705 0.405532 0
M  V30 9 C 2.204889 3.580389 0.036045 0
M  V30 10 C 2.218926 4.347028 -1.108800 0
M  V30 11 C 1.467692 5.495033 -1.183645 0
M  V30 12 C 0.671472 5.950230 -0.154562 0
M  V30 13 Cl -0.262129 7.417363 -0.306489 0
M  V30 14 C 0.648469 5.192154 0.997684 0
M  V30 15 C 1.404066 4.019354 1.098962 0
M  V30 16 C 1.902616 0.332537 -0.727284 0
M  V30 17 Cl 2.012308 1.121169 -2.269799 0
M  V30 18 C 1.448889 -0.945412 -0.483565 0
M  V30 19 C -1.309181 -4.060388 1.248350 0
M  V30 20 C -0.733817 -5.313981 1.214965 0
M  V30 21 C -1.448643 -6.490934 1.355928 0
M  V30 22 Cl -0.708129 -8.065764 1.311548 0
M  V30 23 C -2.815391 -6.414021 1.540778 0
M  V30 24 C -3.412379 -5.169779 1.577474 0
M  V30 25 Cl -5.148232 -4.998729 1.809571 0
M  V30 26 C -2.686116 -4.003928 1.435345 0
M  V30 27 O -3.253491 -2.723352 1.466657 0
M  V30 28 H 1.401218 -3.734722 0.864411 0
M  V30 29 H 1.763632 -1.184426 2.795166 0
M  V30 30 H 2.580401 1.050732 2.556863 0
M  V30 31 H 2.862808 3.927672 -1.850925 0
M  V30 32 H 1.540505 6.036125 -2.125881 0
M  V30 33 H 0.016175 5.573234 1.786706 0
M  V30 34 H 1.262700 3.548721 2.084391 0
M  V30 35 H 1.139776 -1.461452 -1.403810 0
M  V30 36 H 0.329136 -5.457539 1.074247 0
M  V30 37 H -3.405084 -7.322000 1.654775 0
M  V30 38 H -4.206565 -2.577639 1.738828 0
M  V30 END ATOM
M  V30 BEGIN BOND
M  V30 1 2 1 2
M  V30 2 1 2 3
M  V30 3 1 3 4
M  V30 4 2 4 5
M  V30 5 1 5 6
M  V30 6 2 6 7
M  V30 7 1 7 8
M  V30 8 1 8 9
M  V30 9 2 9 10
M  V30 10 1 10 11
M  V30 11 2 11 12
M  V30 12 1 12 13
M  V30 13 1 12 14
M  V30 14 2 14 15
M  V30 15 1 7 16
M  V30 16 1 16 17
M  V30 17 2 16 18
M  V30 18 1 2 19
M  V30 19 2 19 20
M  V30 20 1 20 21
M  V30 21 1 21 22
M  V30 22 2 21 23
M  V30 23 1 23 24
M  V30 24 1 24 25
M  V30 25 2 24 26
M  V30 26 1 26 27
M  V30 27 1 18 4
M  V30 28 1 26 19
M  V30 29 1 15 9
M  V30 30 1 3 28
M  V30 31 1 5 29
M  V30 32 1 6 30
M  V30 33 1 10 31
M  V30 34 1 11 32
M  V30 35 1 14 33
M  V30 36 1 15 34
M  V30 37 1 18 35
M  V30 38 1 20 36
M  V30 39 1 23 37
M  V30 40 1 27 38
M  V30 END BOND
M  V30 END CTAB
M  END
>  <Dataset>  (464) 
ChEMBL_Kinases

>  <Ligand_Instance>  (464) 
nan

>  <PDB_ID>  (464) 
nan

>  <Standardized_SMILES>  (464) 
O=C(Nc1ccc(Oc2ccc(Cl)cc2)c(Cl)c1)c1cc(Cl)cc(Cl)c1O

>  <Name>  (464) 
nan

>  <Pocket>  (464) 
nan

>  <ATP_Site>  (464) 
nan

>  <Peripheral>  (464) 
nan

>  <Num_H_Atoms_ProtBoundConf>  (464) 
nan

>  <Num_Resolved_Atoms>  (464) 
nan

>  <Num_Not_Resolved_Atoms>  (464) 
nan

$$$$
CHEMBL4641587
     RDKit          3D

  0  0  0  0  0  0  0  0  0  0999 V3000
M  V30 BEGIN CTAB
M  V30 COUNTS 54 57 0 0 0
M  V30 BEGIN ATOM
M  V30 1 C 2.874206 0.638037 9.322644 0
M  V30 2 O 1.870891 0.088941 8.514512 0
M  V30 3 C 1.805736 0.161472 7.132594 0
M  V30 4 C 2.734974 0.792984 6.337321 0
M  V30 5 C 2.463781 0.739799 4.965440 0
M  V30 6 C 1.348584 0.104498 4.429083 0
M  V30 7 N 1.231762 0.152782 3.028318 0
M  V30 8 C 0.711928 0.913701 1.959978 0
M  V30 9 O 0.137428 1.935407 2.365587 0
M  V30 10 C 0.880646 0.472582 0.582937 0
M  V30 11 C 1.421011 -0.726546 0.187217 0
M  V30 12 C 1.534363 -1.020498 -1.153905 0
M  V30 13 C 1.118055 -0.139353 -2.132609 0
M  V30 14 N 1.153935 -0.291806 -3.532949 0
M  V30 15 C 0.314552 -0.599525 -4.626914 0
M  V30 16 C -0.865147 -1.180626 -4.700028 0
M  V30 17 C -1.714863 -1.712099 -3.648755 0
M  V30 18 C -1.380423 -2.457518 -2.558068 0
M  V30 19 C -2.281373 -2.892337 -1.608192 0
M  V30 20 C -3.610229 -2.564685 -1.750778 0
M  V30 21 O -4.590511 -2.953527 -0.849237 0
M  V30 22 C -4.397846 -3.709306 0.304226 0
M  V30 23 C -4.041454 -1.806696 -2.835859 0
M  V30 24 C -3.086689 -1.421805 -3.720505 0
M  V30 25 C -1.293404 -1.248600 -6.096243 0
M  V30 26 O -2.347248 -1.722275 -6.598279 0
M  V30 27 N -0.247729 -0.648896 -6.846256 0
M  V30 28 C 0.785552 -0.224038 -5.975449 0
M  V30 29 O 1.828152 0.339997 -6.387283 0
M  V30 30 C 0.571544 1.075605 -1.694876 0
M  V30 31 C 0.437126 1.415544 -0.341970 0
M  V30 32 C 0.448174 -0.512917 5.276148 0
M  V30 33 C 0.686506 -0.480395 6.650098 0
M  V30 34 H 3.686378 1.140498 8.795004 0
M  V30 35 H 2.418049 1.334935 10.082010 0
M  V30 36 H 3.368515 -0.143869 9.966207 0
M  V30 37 H 3.588476 1.276745 6.782363 0
M  V30 38 H 3.223076 1.252373 4.356894 0
M  V30 39 H 1.760003 -0.758127 2.861488 0
M  V30 40 H 1.749659 -1.420203 0.942906 0
M  V30 41 H 1.948941 -1.943860 -1.523310 0
M  V30 42 H 2.168301 -0.085472 -3.602542 0
M  V30 43 H -0.336356 -2.700810 -2.483728 0
M  V30 44 H -1.953011 -3.481982 -0.763421 0
M  V30 45 H -5.402443 -4.137427 0.581724 0
M  V30 46 H -3.733161 -4.593107 0.164504 0
M  V30 47 H -4.112589 -3.103021 1.197761 0
M  V30 48 H -5.078370 -1.548249 -2.954304 0
M  V30 49 H -3.440799 -0.824028 -4.567314 0
M  V30 50 H -0.258998 -0.545264 -7.881861 0
M  V30 51 H 0.219233 1.824433 -2.410454 0
M  V30 52 H 0.008267 2.368991 -0.086447 0
M  V30 53 H -0.363232 -0.964010 4.722973 0
M  V30 54 H -0.070971 -0.989901 7.230299 0
M  V30 END ATOM
M  V30 BEGIN BOND
M  V30 1 1 1 2
M  V30 2 1 2 3
M  V30 3 2 3 4
M  V30 4 1 4 5
M  V30 5 2 5 6
M  V30 6 1 6 7
M  V30 7 1 7 8
M  V30 8 2 8 9
M  V30 9 1 8 10
M  V30 10 2 10 11
M  V30 11 1 11 12
M  V30 12 2 12 13
M  V30 13 1 13 14
M  V30 14 1 14 15
M  V30 15 2 15 16
M  V30 16 1 16 17
M  V30 17 2 17 18
M  V30 18 1 18 19
M  V30 19 2 19 20
M  V30 20 1 20 21
M  V30 21 1 21 22
M  V30 22 1 20 23
M  V30 23 2 23 24
M  V30 24 1 16 25
M  V30 25 2 25 26
M  V30 26 1 25 27
M  V30 27 1 27 28
M  V30 28 2 28 29
M  V30 29 1 13 30
M  V30 30 2 30 31
M  V30 31 1 6 32
M  V30 32 2 32 33
M  V30 33 1 33 3
M  V30 34 1 31 10
M  V30 35 1 28 15
M  V30 36 1 24 17
M  V30 37 1 1 34
M  V30 38 1 1 35
M  V30 39 1 1 36
M  V30 40 1 4 37
M  V30 41 1 5 38
M  V30 42 1 7 39
M  V30 43 1 11 40
M  V30 44 1 12 41
M  V30 45 1 14 42
M  V30 46 1 18 43
M  V30 47 1 19 44
M  V30 48 1 22 45
M  V30 49 1 22 46
M  V30 50 1 22 47
M  V30 51 1 23 48
M  V30 52 1 24 49
M  V30 53 1 27 50
M  V30 54 1 30 51
M  V30 55 1 31 52
M  V30 56 1 32 53
M  V30 57 1 33 54
M  V30 END BOND
M  V30 END CTAB
M  END
>  <Dataset>  (465) 
ChEMBL_Kinases

>  <Ligand_Instance>  (465) 
nan

>  <PDB_ID>  (465) 
nan

>  <Standardized_SMILES>  (465) 
COc1ccc(NC(=O)c2ccc(NC3=C(c4ccc(OC)cc4)C(=O)NC3=O)cc2)cc1

>  <Name>  (465) 
nan

>  <Pocket>  (465) 
nan

>  <ATP_Site>  (465) 
nan

>  <Peripheral>  (465) 
nan

>  <Num_H_Atoms_ProtBoundConf>  (465) 
nan

>  <Num_Resolved_Atoms>  (465) 
nan

>  <Num_Not_Resolved_Atoms>  (465) 
nan

$$$$
CHEMBL4536900
     RDKit          3D

  0  0  0  0  0  0  0  0  0  0999 V3000
M  V30 BEGIN CTAB
M  V30 COUNTS 32 34 0 0 0
M  V30 BEGIN ATOM
M  V30 1 C -2.538060 -2.966075 1.058004 0
M  V30 2 C -1.164300 -3.312401 1.503856 0
M  V30 3 N -0.794088 -4.304971 2.355491 0
M  V30 4 N 0.509230 -4.329787 2.531674 0
M  V30 5 C 1.051433 -3.343687 1.794508 0
M  V30 6 C 2.386120 -3.007009 1.680528 0
M  V30 7 C 2.595749 -1.932481 0.831725 0
M  V30 8 N 1.617272 -1.285965 0.188727 0
M  V30 9 C 0.335448 -1.644476 0.326787 0
M  V30 10 N -0.654830 -0.926265 -0.383067 0
M  V30 11 C -0.468984 0.207942 -1.280079 0
M  V30 12 C 0.093501 1.353547 -0.520431 0
M  V30 13 C 1.381860 1.800858 -0.327720 0
M  V30 14 C 1.622843 2.905214 0.456354 0
M  V30 15 C 0.621291 3.615991 1.081692 0
M  V30 16 Cl 1.028038 5.005373 2.057358 0
M  V30 17 C -0.673223 3.177044 0.895121 0
M  V30 18 C -0.932521 2.054187 0.099705 0
M  V30 19 C 0.025829 -2.699675 1.147918 0
M  V30 20 H -3.210390 -3.705245 1.599179 0
M  V30 21 H -2.888267 -1.993404 1.423257 0
M  V30 22 H -2.719343 -3.169862 -0.019214 0
M  V30 23 H 0.989308 -5.020276 3.150760 0
M  V30 24 H 3.195436 -3.497790 2.176604 0
M  V30 25 H 3.614018 -1.563271 0.653406 0
M  V30 26 H -1.649888 -1.132368 -0.341214 0
M  V30 27 H -1.347891 0.486378 -1.856672 0
M  V30 28 H 0.312354 -0.102045 -2.027571 0
M  V30 29 H 2.102530 1.198547 -0.856617 0
M  V30 30 H 2.681266 3.166481 0.537348 0
M  V30 31 H -1.426652 3.763361 1.403106 0
M  V30 32 H -1.997203 1.857833 0.066854 0
M  V30 END ATOM
M  V30 BEGIN BOND
M  V30 1 1 1 2
M  V30 2 2 2 3
M  V30 3 1 3 4
M  V30 4 1 4 5
M  V30 5 2 5 6
M  V30 6 1 6 7
M  V30 7 2 7 8
M  V30 8 1 8 9
M  V30 9 1 9 10
M  V30 10 1 10 11
M  V30 11 1 11 12
M  V30 12 2 12 13
M  V30 13 1 13 14
M  V30 14 2 14 15
M  V30 15 1 15 16
M  V30 16 1 15 17
M  V30 17 2 17 18
M  V30 18 2 9 19
M  V30 19 1 19 2
M  V30 20 1 19 5
M  V30 21 1 18 12
M  V30 22 1 1 20
M  V30 23 1 1 21
M  V30 24 1 1 22
M  V30 25 1 4 23
M  V30 26 1 6 24
M  V30 27 1 7 25
M  V30 28 1 10 26
M  V30 29 1 11 27
M  V30 30 1 11 28
M  V30 31 1 13 29
M  V30 32 1 14 30
M  V30 33 1 17 31
M  V30 34 1 18 32
M  V30 END BOND
M  V30 END CTAB
M  END
>  <Dataset>  (466) 
ChEMBL_Kinases

>  <Ligand_Instance>  (466) 
nan

>  <PDB_ID>  (466) 
nan

>  <Standardized_SMILES>  (466) 
Cc1n[nH]c2ccnc(NCc3ccc(Cl)cc3)c12

>  <Name>  (466) 
nan

>  <Pocket>  (466) 
nan

>  <ATP_Site>  (466) 
nan

>  <Peripheral>  (466) 
nan

>  <Num_H_Atoms_ProtBoundConf>  (466) 
nan

>  <Num_Resolved_Atoms>  (466) 
nan

>  <Num_Not_Resolved_Atoms>  (466) 
nan

$$$$
CHEMBL4536811
     RDKit          3D

  0  0  0  0  0  0  0  0  0  0999 V3000
M  V30 BEGIN CTAB
M  V30 COUNTS 52 55 0 0 0
M  V30 BEGIN ATOM
M  V30 1 O 0.365884 -1.451226 3.580715 0
M  V30 2 C -0.374882 -1.599622 2.566140 0
M  V30 3 N -1.054204 -2.829645 2.682278 0
M  V30 4 C -0.792853 -3.569419 3.855920 0
M  V30 5 C -0.851373 -4.089677 5.102008 0
M  V30 6 C -0.026189 -4.981924 5.728369 0
M  V30 7 N 1.047313 -5.505878 5.136859 0
M  V30 8 N 1.285081 -5.104592 3.861375 0
M  V30 9 C 0.403651 -4.216223 3.332023 0
M  V30 10 C -0.435892 -0.585616 1.510106 0
M  V30 11 C 0.392801 0.514516 1.717784 0
M  V30 12 C 0.431649 1.530920 0.823177 0
M  V30 13 N 1.302515 2.659059 1.044830 0
M  V30 14 C 2.037244 2.956323 2.262794 0
M  V30 15 C 3.507317 2.790911 1.931688 0
M  V30 16 N 3.949122 3.646987 0.850779 0
M  V30 17 C 3.088087 3.552497 -0.311042 0
M  V30 18 C 1.603897 3.675510 0.059702 0
M  V30 19 C -0.325728 1.548103 -0.323027 0
M  V30 20 C -1.122773 0.442345 -0.478224 0
M  V30 21 C -1.233496 -0.632286 0.360369 0
M  V30 22 O -1.999997 -1.684082 0.200146 0
M  V30 23 C -2.914830 -2.306944 -0.575716 0
M  V30 24 C -2.503265 -2.614651 -1.973738 0
M  V30 25 C -2.876159 -1.721627 -2.949495 0
M  V30 26 C -2.575532 -1.827851 -4.275610 0
M  V30 27 C -1.824572 -2.916319 -4.742662 0
M  V30 28 C -1.440725 -3.830731 -3.762904 0
M  V30 29 C -1.769602 -3.688004 -2.408014 0
M  V30 30 H -1.685732 -3.088203 1.910543 0
M  V30 31 H -1.770369 -3.538599 5.380869 0
M  V30 32 H -0.481715 -5.100939 6.726506 0
M  V30 33 H 0.969447 -4.191001 2.355956 0
M  V30 34 H 1.011523 0.579326 2.577985 0
M  V30 35 H 1.866406 4.033687 2.522586 0
M  V30 36 H 1.813236 2.299755 3.109240 0
M  V30 37 H 3.715209 1.729342 1.727488 0
M  V30 38 H 4.076437 3.088371 2.831157 0
M  V30 39 H 4.880072 3.246496 0.540165 0
M  V30 40 H 3.265907 2.644774 -0.915483 0
M  V30 41 H 3.344825 4.416529 -0.971325 0
M  V30 42 H 1.064681 3.587141 -0.877376 0
M  V30 43 H 1.473805 4.703886 0.522063 0
M  V30 44 H -0.380502 2.293360 -1.100052 0
M  V30 45 H -1.757122 0.395398 -1.367269 0
M  V30 46 H -3.235899 -3.255182 -0.065145 0
M  V30 47 H -3.896821 -1.737713 -0.656597 0
M  V30 48 H -3.461327 -0.842903 -2.681737 0
M  V30 49 H -2.874396 -1.120423 -5.023563 0
M  V30 50 H -1.542401 -3.070162 -5.761041 0
M  V30 51 H -0.852055 -4.731912 -3.973493 0
M  V30 52 H -1.471354 -4.398429 -1.634419 0
M  V30 END ATOM
M  V30 BEGIN BOND
M  V30 1 2 1 2
M  V30 2 1 2 3
M  V30 3 1 3 4
M  V30 4 2 4 5
M  V30 5 1 5 6
M  V30 6 2 6 7
M  V30 7 1 7 8
M  V30 8 2 8 9
M  V30 9 1 2 10
M  V30 10 2 10 11
M  V30 11 1 11 12
M  V30 12 1 12 13
M  V30 13 1 13 14
M  V30 14 1 14 15
M  V30 15 1 15 16
M  V30 16 1 16 17
M  V30 17 1 17 18
M  V30 18 2 12 19
M  V30 19 1 19 20
M  V30 20 2 20 21
M  V30 21 1 21 22
M  V30 22 1 22 23
M  V30 23 1 23 24
M  V30 24 2 24 25
M  V30 25 1 25 26
M  V30 26 2 26 27
M  V30 27 1 27 28
M  V30 28 2 28 29
M  V30 29 1 9 4
M  V30 30 1 21 10
M  V30 31 1 29 24
M  V30 32 1 18 13
M  V30 33 1 3 30
M  V30 34 1 5 31
M  V30 35 1 6 32
M  V30 36 1 9 33
M  V30 37 1 11 34
M  V30 38 1 14 35
M  V30 39 1 14 36
M  V30 40 1 15 37
M  V30 41 1 15 38
M  V30 42 1 16 39
M  V30 43 1 17 40
M  V30 44 1 17 41
M  V30 45 1 18 42
M  V30 46 1 18 43
M  V30 47 1 19 44
M  V30 48 1 20 45
M  V30 49 1 23 46
M  V30 50 1 23 47
M  V30 51 1 25 48
M  V30 52 1 26 49
M  V30 53 1 27 50
M  V30 54 1 28 51
M  V30 55 1 29 52
M  V30 END BOND
M  V30 END CTAB
M  END
>  <Dataset>  (467) 
ChEMBL_Kinases

>  <Ligand_Instance>  (467) 
nan

>  <PDB_ID>  (467) 
nan

>  <Standardized_SMILES>  (467) 
O=C(Nc1ccnnc1)c1cc(N2CCNCC2)ccc1OCc1ccccc1

>  <Name>  (467) 
nan

>  <Pocket>  (467) 
nan

>  <ATP_Site>  (467) 
nan

>  <Peripheral>  (467) 
nan

>  <Num_H_Atoms_ProtBoundConf>  (467) 
nan

>  <Num_Resolved_Atoms>  (467) 
nan

>  <Num_Not_Resolved_Atoms>  (467) 
nan

$$$$
CHEMBL4536780
     RDKit          3D

  0  0  0  0  0  0  0  0  0  0999 V3000
M  V30 BEGIN CTAB
M  V30 COUNTS 51 54 0 0 0
M  V30 BEGIN ATOM
M  V30 1 C 4.174044 -0.590957 -0.189690 0
M  V30 2 N 4.330934 -1.641022 -1.206061 0
M  V30 3 N 5.555201 -2.138021 -1.439944 0
M  V30 4 C 5.503786 -3.076761 -2.393377 0
M  V30 5 C 4.171216 -3.093807 -2.698907 0
M  V30 6 Cl 3.783957 -4.246612 -3.940791 0
M  V30 7 C 3.415660 -2.212780 -1.977846 0
M  V30 8 C 2.013283 -1.966753 -2.036550 0
M  V30 9 C 1.344255 -1.066898 -1.273804 0
M  V30 10 C -0.029210 -1.033453 -1.539444 0
M  V30 11 C -1.149142 -0.245083 -0.987196 0
M  V30 12 O -2.316234 -0.391464 -1.387169 0
M  V30 13 N -0.872707 0.690765 0.015752 0
M  V30 14 C -1.755087 1.564684 0.705908 0
M  V30 15 C -1.445656 3.011943 0.597679 0
M  V30 16 N -0.079208 3.200340 1.042211 0
M  V30 17 C -0.033946 2.989844 2.450996 0
M  V30 18 C -0.658180 1.755181 2.966163 0
M  V30 19 C -1.758781 1.177110 2.173839 0
M  V30 20 C -2.002830 -0.273184 2.376875 0
M  V30 21 C -3.237383 -0.738231 2.816959 0
M  V30 22 C -3.576413 -2.061466 3.043977 0
M  V30 23 C -2.602569 -3.008974 2.813362 0
M  V30 24 C -2.908286 -4.444451 3.038233 0
M  V30 25 F -3.350272 -4.699019 4.313289 0
M  V30 26 F -3.915205 -4.830828 2.170419 0
M  V30 27 F -1.757366 -5.168971 2.761268 0
M  V30 28 C -1.367450 -2.591069 2.377381 0
M  V30 29 C -1.068668 -1.263321 2.162999 0
M  V30 30 O -0.198470 -1.942724 -2.494292 0
M  V30 31 C 0.972772 -2.466277 -2.767747 0
M  V30 32 Cl 1.015222 -3.684332 -3.988561 0
M  V30 33 H 3.519861 -0.947690 0.616169 0
M  V30 34 H 5.195060 -0.357594 0.226455 0
M  V30 35 H 3.783766 0.317831 -0.658817 0
M  V30 36 H 6.424472 -3.552823 -2.671722 0
M  V30 37 H 1.586105 -0.355987 -0.503172 0
M  V30 38 H 0.064199 0.902445 0.423308 0
M  V30 39 H -2.781049 1.409785 0.260583 0
M  V30 40 H -2.078460 3.543126 1.357908 0
M  V30 41 H -1.686728 3.494483 -0.360635 0
M  V30 42 H 0.334155 4.100232 0.786431 0
M  V30 43 H 1.043214 3.109962 2.746842 0
M  V30 44 H -0.535996 3.886836 2.917834 0
M  V30 45 H 0.148271 0.981412 3.049696 0
M  V30 46 H -0.975985 1.919523 4.038096 0
M  V30 47 H -2.712723 1.650457 2.569221 0
M  V30 48 H -4.053681 -0.038128 3.018704 0
M  V30 49 H -4.536950 -2.362220 3.380664 0
M  V30 50 H -0.590984 -3.334520 2.192291 0
M  V30 51 H -0.096113 -1.007245 1.828871 0
M  V30 END ATOM
M  V30 BEGIN BOND
M  V30 1 1 1 2
M  V30 2 1 2 3
M  V30 3 2 3 4
M  V30 4 1 4 5
M  V30 5 1 5 6
M  V30 6 2 5 7
M  V30 7 1 7 8
M  V30 8 1 8 9
M  V30 9 2 9 10
M  V30 10 1 10 11
M  V30 11 2 11 12
M  V30 12 1 11 13
M  V30 13 1 13 14
M  V30 14 1 14 15
M  V30 15 1 15 16
M  V30 16 1 16 17
M  V30 17 1 17 18
M  V30 18 1 18 19
M  V30 19 1 19 20
M  V30 20 2 20 21
M  V30 21 1 21 22
M  V30 22 2 22 23
M  V30 23 1 23 24
M  V30 24 1 24 25
M  V30 25 1 24 26
M  V30 26 1 24 27
M  V30 27 1 23 28
M  V30 28 2 28 29
M  V30 29 1 10 30
M  V30 30 1 30 31
M  V30 31 1 31 32
M  V30 32 1 7 2
M  V30 33 2 31 8
M  V30 34 1 19 14
M  V30 35 1 29 20
M  V30 36 1 1 33
M  V30 37 1 1 34
M  V30 38 1 1 35
M  V30 39 1 4 36
M  V30 40 1 9 37
M  V30 41 1 13 38
M  V30 42 1 14 39
M  V30 43 1 15 40
M  V30 44 1 15 41
M  V30 45 1 16 42
M  V30 46 1 17 43
M  V30 47 1 17 44
M  V30 48 1 18 45
M  V30 49 1 18 46
M  V30 50 1 19 47
M  V30 51 1 21 48
M  V30 52 1 22 49
M  V30 53 1 28 50
M  V30 54 1 29 51
M  V30 END BOND
M  V30 END CTAB
M  END
>  <Dataset>  (468) 
ChEMBL_Kinases

>  <Ligand_Instance>  (468) 
nan

>  <PDB_ID>  (468) 
nan

>  <Standardized_SMILES>  (468) 
Cn1ncc(Cl)c1-c1cc(C(=O)NC2CNCCC2c2ccc(C(F)(F)F)cc2)oc1Cl

>  <Name>  (468) 
nan

>  <Pocket>  (468) 
nan

>  <ATP_Site>  (468) 
nan

>  <Peripheral>  (468) 
nan

>  <Num_H_Atoms_ProtBoundConf>  (468) 
nan

>  <Num_Resolved_Atoms>  (468) 
nan

>  <Num_Not_Resolved_Atoms>  (468) 
nan

$$$$
CHEMBL4536777
     RDKit          3D

  0  0  0  0  0  0  0  0  0  0999 V3000
M  V30 BEGIN CTAB
M  V30 COUNTS 50 54 0 0 0
M  V30 BEGIN ATOM
M  V30 1 C -3.395750 -4.359077 0.422157 0
M  V30 2 C -1.951077 -4.136067 -0.040538 0 CFG=1
M  V30 3 C -1.167114 -3.738042 1.152892 0
M  V30 4 N 0.249912 -3.849918 0.808774 0
M  V30 5 C 1.164657 -2.747840 0.625910 0
M  V30 6 C 2.504084 -2.870068 0.308055 0
M  V30 7 C 3.235595 -1.709308 0.168474 0
M  V30 8 C 2.632330 -0.486941 0.343920 0
M  V30 9 N 3.085231 0.799456 0.272755 0
M  V30 10 C 2.037281 1.629586 0.541585 0
M  V30 11 C 2.013595 3.076954 0.587064 0
M  V30 12 C 1.183512 3.679733 -0.350209 0
M  V30 13 C 1.110237 5.077817 -0.365153 0
M  V30 14 C 1.856661 5.823971 0.542540 0
M  V30 15 F 1.794400 7.191984 0.539036 0
M  V30 16 C 2.694374 5.220932 1.488676 0
M  V30 17 C 2.743981 3.841373 1.477010 0
M  V30 18 C 0.924424 0.845841 0.781437 0
M  V30 19 C -0.409451 1.328439 1.106751 0
M  V30 20 C -0.801038 2.063843 2.208341 0
M  V30 21 C -2.117955 2.443677 2.367135 0
M  V30 22 N -3.036128 2.098091 1.444072 0
M  V30 23 C -2.674877 1.390375 0.378282 0
M  V30 24 C -1.361491 0.967034 0.144386 0
M  V30 25 N 1.306451 -0.454953 0.656120 0
M  V30 26 N 0.575455 -1.550580 0.797430 0
M  V30 27 C 0.526245 -5.269619 0.694243 0
M  V30 28 C -0.369172 -5.963905 -0.281538 0
M  V30 29 N -1.506477 -5.274521 -0.745703 0
M  V30 30 H -3.607407 -3.734927 1.329621 0
M  V30 31 H -3.593876 -5.440436 0.608177 0
M  V30 32 H -4.086982 -4.033794 -0.369890 0
M  V30 33 H -1.997922 -3.268450 -0.733425 0
M  V30 34 H -1.317752 -2.636194 1.345619 0
M  V30 35 H -1.417506 -4.267262 2.076193 0
M  V30 36 H 2.886554 -3.874440 0.190574 0
M  V30 37 H 4.281696 -1.795326 -0.079448 0
M  V30 38 H 0.590893 3.145888 -1.067935 0
M  V30 39 H 0.495075 5.613776 -1.055064 0
M  V30 40 H 3.253037 5.835959 2.170923 0
M  V30 41 H 3.384683 3.321291 2.197606 0
M  V30 42 H 0.024848 2.277509 2.874071 0
M  V30 43 H -2.290938 3.016289 3.273287 0
M  V30 44 H -3.486581 1.155737 -0.317514 0
M  V30 45 H -1.130366 0.383323 -0.759286 0
M  V30 46 H 1.599275 -5.433440 0.447782 0
M  V30 47 H 0.436113 -5.681364 1.742995 0
M  V30 48 H 0.246914 -6.230838 -1.174423 0
M  V30 49 H -0.674489 -6.935976 0.164700 0
M  V30 50 H -1.541638 -5.127031 -1.769205 0
M  V30 END ATOM
M  V30 BEGIN BOND
M  V30 1 1 1 2
M  V30 2 1 2 3
M  V30 3 1 3 4
M  V30 4 1 4 5
M  V30 5 1 5 6
M  V30 6 2 6 7
M  V30 7 1 7 8
M  V30 8 2 8 9
M  V30 9 1 9 10
M  V30 10 1 10 11
M  V30 11 2 11 12
M  V30 12 1 12 13
M  V30 13 2 13 14
M  V30 14 1 14 15
M  V30 15 1 14 16
M  V30 16 2 16 17
M  V30 17 2 10 18
M  V30 18 1 18 19
M  V30 19 2 19 20
M  V30 20 1 20 21
M  V30 21 2 21 22
M  V30 22 1 22 23
M  V30 23 2 23 24
M  V30 24 1 18 25
M  V30 25 1 25 26
M  V30 26 1 4 27
M  V30 27 1 27 28
M  V30 28 1 28 29
M  V30 29 1 29 2
M  V30 30 2 26 5
M  V30 31 1 25 8
M  V30 32 1 17 11
M  V30 33 1 24 19
M  V30 34 1 1 30
M  V30 35 1 1 31
M  V30 36 1 1 32
M  V30 37 1 2 33 CFG=3
M  V30 38 1 3 34
M  V30 39 1 3 35
M  V30 40 1 6 36
M  V30 41 1 7 37
M  V30 42 1 12 38
M  V30 43 1 13 39
M  V30 44 1 16 40
M  V30 45 1 17 41
M  V30 46 1 20 42
M  V30 47 1 21 43
M  V30 48 1 23 44
M  V30 49 1 24 45
M  V30 50 1 27 46
M  V30 51 1 27 47
M  V30 52 1 28 48
M  V30 53 1 28 49
M  V30 54 1 29 50
M  V30 END BOND
M  V30 END CTAB
M  END
>  <Dataset>  (469) 
ChEMBL_Kinases

>  <Ligand_Instance>  (469) 
nan

>  <PDB_ID>  (469) 
nan

>  <Standardized_SMILES>  (469) 
C[C@H]1CN(c2ccc3nc(-c4ccc(F)cc4)c(-c4ccncc4)n3n2)CCN1

>  <Name>  (469) 
nan

>  <Pocket>  (469) 
nan

>  <ATP_Site>  (469) 
nan

>  <Peripheral>  (469) 
nan

>  <Num_H_Atoms_ProtBoundConf>  (469) 
nan

>  <Num_Resolved_Atoms>  (469) 
nan

>  <Num_Not_Resolved_Atoms>  (469) 
nan

$$$$
CHEMBL4641666
     RDKit          3D

  0  0  0  0  0  0  0  0  0  0999 V3000
M  V30 BEGIN CTAB
M  V30 COUNTS 45 47 0 0 0
M  V30 BEGIN ATOM
M  V30 1 C -0.496388 -4.202195 -4.002845 0
M  V30 2 O 0.069017 -3.294063 -3.073185 0
M  V30 3 C 1.350674 -3.445507 -2.627088 0
M  V30 4 N 2.203634 -4.427675 -2.992738 0
M  V30 5 N 3.372896 -4.301142 -2.386796 0
M  V30 6 C 4.499802 -5.198889 -2.569295 0
M  V30 7 C 3.264927 -3.205969 -1.610727 0
M  V30 8 C 2.013221 -2.636592 -1.729574 0
M  V30 9 C 1.540947 -1.440623 -1.036876 0
M  V30 10 O 2.314762 -0.840752 -0.247918 0
M  V30 11 N 0.241827 -0.919869 -1.212940 0
M  V30 12 C 0.046169 0.255361 -0.415008 0
M  V30 13 C 0.331611 1.511555 -0.891551 0
M  V30 14 C 0.094104 2.543589 -0.014073 0
M  V30 15 C -0.395343 2.229192 1.228905 0
M  V30 16 C -0.685737 0.990507 1.722334 0
M  V30 17 C -1.194406 0.613403 3.014156 0
M  V30 18 C -1.409872 -0.735961 3.309261 0
M  V30 19 N -1.879081 -0.883933 4.536844 0
M  V30 20 C -1.980059 0.342398 5.064405 0
M  V30 21 N -1.564878 1.204526 4.130900 0
M  V30 22 C -1.550516 2.608746 4.368955 0
M  V30 23 C -0.169807 3.182135 4.620047 0
M  V30 24 C -2.443699 2.980598 5.558519 0
M  V30 25 N -0.431924 0.034576 0.818992 0
M  V30 26 H -1.465734 -3.823862 -4.392299 0
M  V30 27 H 0.199422 -4.424141 -4.853224 0
M  V30 28 H -0.753738 -5.161518 -3.477519 0
M  V30 29 H 5.051279 -5.016205 -3.511352 0
M  V30 30 H 5.246368 -5.050451 -1.745645 0
M  V30 31 H 4.163665 -6.245606 -2.457634 0
M  V30 32 H 4.098472 -2.866074 -0.991068 0
M  V30 33 H -0.442877 -1.375330 -1.854409 0
M  V30 34 H 0.710764 1.616540 -1.886582 0
M  V30 35 H 0.296832 3.552744 -0.325353 0
M  V30 36 H -0.544464 3.095044 1.840941 0
M  V30 37 H -1.269413 -1.665925 2.737566 0
M  V30 38 H -2.336146 0.555969 6.064478 0
M  V30 39 H -2.015567 3.139081 3.520625 0
M  V30 40 H -0.004025 4.155094 4.110644 0
M  V30 41 H 0.062192 3.275472 5.705196 0
M  V30 42 H 0.622865 2.507791 4.188448 0
M  V30 43 H -3.508708 2.769776 5.331999 0
M  V30 44 H -2.066439 2.540761 6.483973 0
M  V30 45 H -2.357793 4.084419 5.668657 0
M  V30 END ATOM
M  V30 BEGIN BOND
M  V30 1 1 1 2
M  V30 2 1 2 3
M  V30 3 2 3 4
M  V30 4 1 4 5
M  V30 5 1 5 6
M  V30 6 1 5 7
M  V30 7 2 7 8
M  V30 8 1 8 9
M  V30 9 2 9 10
M  V30 10 1 9 11
M  V30 11 1 11 12
M  V30 12 2 12 13
M  V30 13 1 13 14
M  V30 14 2 14 15
M  V30 15 1 15 16
M  V30 16 1 16 17
M  V30 17 2 17 18
M  V30 18 1 18 19
M  V30 19 2 19 20
M  V30 20 1 20 21
M  V30 21 1 21 22
M  V30 22 1 22 23
M  V30 23 1 22 24
M  V30 24 2 16 25
M  V30 25 1 8 3
M  V30 26 1 25 12
M  V30 27 1 21 17
M  V30 28 1 1 26
M  V30 29 1 1 27
M  V30 30 1 1 28
M  V30 31 1 6 29
M  V30 32 1 6 30
M  V30 33 1 6 31
M  V30 34 1 7 32
M  V30 35 1 11 33
M  V30 36 1 13 34
M  V30 37 1 14 35
M  V30 38 1 15 36
M  V30 39 1 18 37
M  V30 40 1 20 38
M  V30 41 1 22 39
M  V30 42 1 23 40
M  V30 43 1 23 41
M  V30 44 1 23 42
M  V30 45 1 24 43
M  V30 46 1 24 44
M  V30 47 1 24 45
M  V30 END BOND
M  V30 END CTAB
M  END
>  <Dataset>  (470) 
ChEMBL_Kinases

>  <Ligand_Instance>  (470) 
nan

>  <PDB_ID>  (470) 
nan

>  <Standardized_SMILES>  (470) 
COc1nn(C)cc1C(=O)Nc1cccc(-c2cncn2C(C)C)n1

>  <Name>  (470) 
nan

>  <Pocket>  (470) 
nan

>  <ATP_Site>  (470) 
nan

>  <Peripheral>  (470) 
nan

>  <Num_H_Atoms_ProtBoundConf>  (470) 
nan

>  <Num_Resolved_Atoms>  (470) 
nan

>  <Num_Not_Resolved_Atoms>  (470) 
nan

$$$$
CHEMBL4536609
     RDKit          3D

  0  0  0  0  0  0  0  0  0  0999 V3000
M  V30 BEGIN CTAB
M  V30 COUNTS 47 51 0 0 0
M  V30 BEGIN ATOM
M  V30 1 O 1.816553 2.382406 3.878092 0
M  V30 2 S 1.811094 1.438519 2.665500 0
M  V30 3 O 1.085842 0.210177 3.178494 0
M  V30 4 C 3.423450 0.952689 2.312415 0
M  V30 5 C 4.491708 1.541439 2.959022 0
M  V30 6 C 5.807960 1.219440 2.703668 0
M  V30 7 C 6.139628 0.249592 1.747705 0
M  V30 8 F 7.416859 -0.054744 1.509204 0
M  V30 9 C 5.081942 -0.367904 1.073148 0
M  V30 10 C 3.791655 0.008512 1.384629 0
M  V30 11 F 2.869429 -0.668892 0.707477 0
M  V30 12 N 0.976801 2.243165 1.435792 0
M  V30 13 C 0.753434 1.564097 0.207966 0
M  V30 14 C -0.235268 0.470951 0.171892 0
M  V30 15 C -0.998408 0.274433 1.427936 0
M  V30 16 C -1.009203 1.427216 2.285377 0
M  V30 17 S -1.932829 0.994118 3.676123 0
M  V30 18 C -2.301740 -0.699369 3.129691 0
M  V30 19 N -2.996704 -1.710996 3.721605 0
M  V30 20 C -3.124642 -2.900645 3.139820 0
M  V30 21 N -2.524425 -3.013133 1.945769 0
M  V30 22 C -1.840377 -2.033675 1.352051 0
M  V30 23 N -1.331031 -2.480425 0.108704 0
M  V30 24 C -2.172691 -2.665492 -1.035062 0
M  V30 25 C -3.544641 -2.457099 -0.919721 0
M  V30 26 C -4.314509 -2.649390 -2.058986 0
M  V30 27 C -3.742699 -3.033959 -3.271535 0
M  V30 28 F -4.535235 -3.215074 -4.379055 0
M  V30 29 C -2.367954 -3.242323 -3.390919 0
M  V30 30 C -1.629706 -3.042386 -2.234311 0
M  V30 31 Br 0.274318 -3.304418 -2.294300 0
M  V30 32 C -1.681216 -0.795272 1.912145 0
M  V30 33 C -0.311249 2.708382 1.993333 0
M  V30 34 H 4.376557 2.301888 3.714976 0
M  V30 35 H 6.661380 1.677409 3.213425 0
M  V30 36 H 5.356346 -1.105423 0.342576 0
M  V30 37 H 1.693788 1.359672 -0.339661 0
M  V30 38 H 0.297721 2.390773 -0.467194 0
M  V30 39 H 0.291947 -0.446170 -0.174658 0
M  V30 40 H -1.026007 0.631301 -0.620572 0
M  V30 41 H -3.678010 -3.674021 3.636091 0
M  V30 42 H -0.312630 -2.692022 0.058029 0
M  V30 43 H -4.027803 -2.162464 -0.002511 0
M  V30 44 H -5.401509 -2.519240 -2.100528 0
M  V30 45 H -1.885074 -3.537371 -4.313066 0
M  V30 46 H -0.090342 3.215229 2.924025 0
M  V30 47 H -0.812423 3.266229 1.206998 0
M  V30 END ATOM
M  V30 BEGIN BOND
M  V30 1 2 1 2
M  V30 2 2 2 3
M  V30 3 1 2 4
M  V30 4 2 4 5
M  V30 5 1 5 6
M  V30 6 2 6 7
M  V30 7 1 7 8
M  V30 8 1 7 9
M  V30 9 2 9 10
M  V30 10 1 10 11
M  V30 11 1 2 12
M  V30 12 1 12 13
M  V30 13 1 13 14
M  V30 14 1 14 15
M  V30 15 2 15 16
M  V30 16 1 16 17
M  V30 17 1 17 18
M  V30 18 2 18 19
M  V30 19 1 19 20
M  V30 20 2 20 21
M  V30 21 1 21 22
M  V30 22 1 22 23
M  V30 23 1 23 24
M  V30 24 2 24 25
M  V30 25 1 25 26
M  V30 26 2 26 27
M  V30 27 1 27 28
M  V30 28 1 27 29
M  V30 29 2 29 30
M  V30 30 1 30 31
M  V30 31 2 22 32
M  V30 32 1 16 33
M  V30 33 1 10 4
M  V30 34 1 33 12
M  V30 35 1 32 15
M  V30 36 1 32 18
M  V30 37 1 30 24
M  V30 38 1 5 34
M  V30 39 1 6 35
M  V30 40 1 9 36
M  V30 41 1 13 37
M  V30 42 1 13 38
M  V30 43 1 14 39
M  V30 44 1 14 40
M  V30 45 1 20 41
M  V30 46 1 23 42
M  V30 47 1 25 43
M  V30 48 1 26 44
M  V30 49 1 29 45
M  V30 50 1 33 46
M  V30 51 1 33 47
M  V30 END BOND
M  V30 END CTAB
M  END
>  <Dataset>  (471) 
ChEMBL_Kinases

>  <Ligand_Instance>  (471) 
nan

>  <PDB_ID>  (471) 
nan

>  <Standardized_SMILES>  (471) 
O=S(=O)(c1ccc(F)cc1F)N1CCc2c(sc3ncnc(Nc4ccc(F)cc4Br)c23)C1

>  <Name>  (471) 
nan

>  <Pocket>  (471) 
nan

>  <ATP_Site>  (471) 
nan

>  <Peripheral>  (471) 
nan

>  <Num_H_Atoms_ProtBoundConf>  (471) 
nan

>  <Num_Resolved_Atoms>  (471) 
nan

>  <Num_Not_Resolved_Atoms>  (471) 
nan

$$$$
CHEMBL4536593
     RDKit          3D

  0  0  0  0  0  0  0  0  0  0999 V3000
M  V30 BEGIN CTAB
M  V30 COUNTS 52 55 0 0 0
M  V30 BEGIN ATOM
M  V30 1 C 1.941548 -3.946152 2.177973 0
M  V30 2 O 1.154777 -2.854440 1.772690 0
M  V30 3 C 1.776380 -1.681749 1.370155 0
M  V30 4 C 3.182270 -1.670665 1.397542 0
M  V30 5 C 3.961012 -0.595720 1.033171 0
M  V30 6 C 5.442324 -0.623585 1.076164 0
M  V30 7 C 3.290949 0.514241 0.623958 0
M  V30 8 N 4.029447 1.573496 0.263941 0
M  V30 9 C 3.461526 2.714488 -0.154522 0
M  V30 10 O 4.132334 3.695939 -0.488251 0
M  V30 11 C 2.064927 2.735325 -0.193502 0
M  V30 12 C 1.507719 3.907436 -0.624809 0
M  V30 13 C 0.130916 3.946425 -0.671874 0
M  V30 14 C -0.716177 2.887758 -0.314919 0
M  V30 15 C -0.021119 1.778183 0.097482 0
M  V30 16 C 1.317108 1.665562 0.170082 0
M  V30 17 C 1.926083 0.533032 0.586770 0
M  V30 18 C 1.129542 -0.503516 0.937352 0
M  V30 19 C -0.270838 -0.802417 1.015016 0
M  V30 20 C -1.148652 -0.622873 2.117682 0
M  V30 21 C -2.451678 -1.067393 2.008790 0
M  V30 22 C -2.910971 -1.676350 0.860018 0
M  V30 23 C -4.332213 -2.111599 0.859418 0 CFG=1
M  V30 24 C -5.144140 -1.438925 -0.225989 0
M  V30 25 C -4.492467 -3.605297 0.678036 0
M  V30 26 N -3.944505 -4.090261 -0.549161 0
M  V30 27 C -2.086040 -1.865790 -0.227049 0
M  V30 28 C -0.775752 -1.432900 -0.152160 0
M  V30 29 H 2.624635 -4.256927 1.344460 0
M  V30 30 H 1.362829 -4.797967 2.528463 0
M  V30 31 H 2.612405 -3.642404 3.034170 0
M  V30 32 H 3.751439 -2.554395 1.724029 0
M  V30 33 H 5.898352 -0.468280 0.058788 0
M  V30 34 H 5.834655 0.174410 1.767338 0
M  V30 35 H 5.770272 -1.595968 1.513430 0
M  V30 36 H 5.066291 1.534102 0.301312 0
M  V30 37 H 2.107263 4.737349 -0.906264 0
M  V30 38 H -0.277960 4.906940 -1.024148 0
M  V30 39 H -1.756799 3.138796 -0.429560 0
M  V30 40 H -0.793161 1.119034 0.311389 0
M  V30 41 H -0.671987 -0.135698 2.954391 0
M  V30 42 H -3.003068 -0.868471 2.912808 0
M  V30 43 H -4.787366 -1.820885 1.831551 0
M  V30 44 H -5.970906 -2.127308 -0.554814 0
M  V30 45 H -4.483774 -1.169594 -1.054098 0
M  V30 46 H -5.674332 -0.536032 0.148014 0
M  V30 47 H -5.583459 -3.795353 0.650611 0
M  V30 48 H -4.035333 -4.180034 1.505108 0
M  V30 49 H -4.470739 -3.889421 -1.404456 0
M  V30 50 H -3.694475 -5.085132 -0.517278 0
M  V30 51 H -2.446523 -2.341632 -1.125414 0
M  V30 52 H -0.168230 -1.603922 -1.030149 0
M  V30 END ATOM
M  V30 BEGIN BOND
M  V30 1 1 1 2
M  V30 2 1 2 3
M  V30 3 2 3 4
M  V30 4 1 4 5
M  V30 5 1 5 6
M  V30 6 2 5 7
M  V30 7 1 7 8
M  V30 8 1 8 9
M  V30 9 2 9 10
M  V30 10 1 9 11
M  V30 11 2 11 12
M  V30 12 1 12 13
M  V30 13 2 13 14
M  V30 14 1 14 15
M  V30 15 2 15 16
M  V30 16 1 16 17
M  V30 17 2 17 18
M  V30 18 1 18 19
M  V30 19 2 19 20
M  V30 20 1 20 21
M  V30 21 2 21 22
M  V30 22 1 22 23
M  V30 23 1 23 24
M  V30 24 1 23 25
M  V30 25 1 25 26
M  V30 26 1 22 27
M  V30 27 2 27 28
M  V30 28 1 18 3
M  V30 29 1 28 19
M  V30 30 1 17 7
M  V30 31 1 16 11
M  V30 32 1 1 29
M  V30 33 1 1 30
M  V30 34 1 1 31
M  V30 35 1 4 32
M  V30 36 1 6 33
M  V30 37 1 6 34
M  V30 38 1 6 35
M  V30 39 1 8 36
M  V30 40 1 12 37
M  V30 41 1 13 38
M  V30 42 1 14 39
M  V30 43 1 15 40
M  V30 44 1 20 41
M  V30 45 1 21 42
M  V30 46 1 23 43 CFG=1
M  V30 47 1 24 44
M  V30 48 1 24 45
M  V30 49 1 24 46
M  V30 50 1 25 47
M  V30 51 1 25 48
M  V30 52 1 26 49
M  V30 53 1 26 50
M  V30 54 1 27 51
M  V30 55 1 28 52
M  V30 END BOND
M  V30 END CTAB
M  END
>  <Dataset>  (472) 
ChEMBL_Kinases

>  <Ligand_Instance>  (472) 
nan

>  <PDB_ID>  (472) 
nan

>  <Standardized_SMILES>  (472) 
COc1cc(C)c2[nH]c(=O)c3ccccc3c2c1-c1ccc([C@@H](C)CN)cc1

>  <Name>  (472) 
nan

>  <Pocket>  (472) 
nan

>  <ATP_Site>  (472) 
nan

>  <Peripheral>  (472) 
nan

>  <Num_H_Atoms_ProtBoundConf>  (472) 
nan

>  <Num_Resolved_Atoms>  (472) 
nan

>  <Num_Not_Resolved_Atoms>  (472) 
nan

$$$$
CHEMBL4641672
     RDKit          3D

  0  0  0  0  0  0  0  0  0  0999 V3000
M  V30 BEGIN CTAB
M  V30 COUNTS 55 59 0 0 0
M  V30 BEGIN ATOM
M  V30 1 O -3.430265 -3.483030 0.059789 0
M  V30 2 C -2.461072 -4.282024 -0.025875 0
M  V30 3 N -1.275185 -4.052276 0.722612 0
M  V30 4 C -1.056057 -2.943784 1.614347 0
M  V30 5 C -0.500590 -1.802084 1.073262 0
M  V30 6 C -0.236760 -0.668136 1.809994 0
M  V30 7 C 0.348903 0.550858 1.264880 0
M  V30 8 C 1.353522 1.321436 1.791263 0
M  V30 9 N 1.626236 2.363043 1.012866 0
M  V30 10 C 2.587174 3.459397 1.118739 0
M  V30 11 C 2.009545 4.638458 1.875408 0
M  V30 12 C 1.643639 4.158928 3.258717 0
M  V30 13 O 2.708968 3.625580 3.942960 0
M  V30 14 C 3.904677 3.669655 3.238649 0
M  V30 15 C 3.791255 2.970653 1.896150 0
M  V30 16 C 0.777446 2.261090 -0.039584 0
M  V30 17 C 0.590368 3.050324 -1.169909 0
M  V30 18 N -0.314818 2.796015 -2.131173 0
M  V30 19 C -1.096712 1.717878 -2.011395 0
M  V30 20 C -0.939005 0.913186 -0.904288 0
M  V30 21 C -0.030373 1.148922 0.082265 0
M  V30 22 C -0.556222 -0.708767 3.155757 0
M  V30 23 C -1.112072 -1.858869 3.684429 0
M  V30 24 N -1.352269 -2.940709 2.930610 0
M  V30 25 N -2.491799 -5.453341 -0.868873 0
M  V30 26 C -1.501839 -6.510720 -1.126850 0
M  V30 27 C -1.278002 -6.478967 -2.628237 0
M  V30 28 O -1.927043 -5.456968 -3.272386 0
M  V30 29 C -3.285048 -5.390992 -3.086327 0
M  V30 30 C -3.704568 -5.707378 -1.647824 0
M  V30 31 H -0.425034 -4.674117 0.703305 0
M  V30 32 H -0.253827 -1.777666 0.022033 0
M  V30 33 H 1.885016 1.146742 2.714273 0
M  V30 34 H 2.875257 3.815896 0.107676 0
M  V30 35 H 1.089903 5.021736 1.389900 0
M  V30 36 H 2.794976 5.410447 1.894893 0
M  V30 37 H 0.884883 3.339713 3.126420 0
M  V30 38 H 1.112910 4.956580 3.840970 0
M  V30 39 H 4.656217 3.105907 3.829164 0
M  V30 40 H 4.286575 4.693449 3.108014 0
M  V30 41 H 3.780844 1.862429 2.018840 0
M  V30 42 H 4.693230 3.275208 1.326962 0
M  V30 43 H 1.187745 3.953088 -1.348909 0
M  V30 44 H -1.851716 1.459233 -2.761687 0
M  V30 45 H -1.569906 0.050621 -0.815807 0
M  V30 46 H -0.394795 0.111462 3.818843 0
M  V30 47 H -1.399652 -2.002797 4.715575 0
M  V30 48 H -2.018837 -7.471983 -0.892032 0
M  V30 49 H -0.592700 -6.379042 -0.533740 0
M  V30 50 H -1.429914 -7.480167 -3.104496 0
M  V30 51 H -0.177656 -6.267901 -2.755299 0
M  V30 52 H -3.561955 -4.305964 -3.232538 0
M  V30 53 H -3.884603 -5.929897 -3.833618 0
M  V30 54 H -4.522298 -5.008554 -1.316864 0
M  V30 55 H -4.011615 -6.752733 -1.534605 0
M  V30 END ATOM
M  V30 BEGIN BOND
M  V30 1 2 1 2
M  V30 2 1 2 3
M  V30 3 1 3 4
M  V30 4 2 4 5
M  V30 5 1 5 6
M  V30 6 1 6 7
M  V30 7 2 7 8
M  V30 8 1 8 9
M  V30 9 1 9 10
M  V30 10 1 10 11
M  V30 11 1 11 12
M  V30 12 1 12 13
M  V30 13 1 13 14
M  V30 14 1 14 15
M  V30 15 1 9 16
M  V30 16 2 16 17
M  V30 17 1 17 18
M  V30 18 2 18 19
M  V30 19 1 19 20
M  V30 20 2 20 21
M  V30 21 2 6 22
M  V30 22 1 22 23
M  V30 23 2 23 24
M  V30 24 1 2 25
M  V30 25 1 25 26
M  V30 26 1 26 27
M  V30 27 1 27 28
M  V30 28 1 28 29
M  V30 29 1 29 30
M  V30 30 1 24 4
M  V30 31 1 30 25
M  V30 32 1 21 7
M  V30 33 1 15 10
M  V30 34 1 21 16
M  V30 35 1 3 31
M  V30 36 1 5 32
M  V30 37 1 8 33
M  V30 38 1 10 34
M  V30 39 1 11 35
M  V30 40 1 11 36
M  V30 41 1 12 37
M  V30 42 1 12 38
M  V30 43 1 14 39
M  V30 44 1 14 40
M  V30 45 1 15 41
M  V30 46 1 15 42
M  V30 47 1 17 43
M  V30 48 1 19 44
M  V30 49 1 20 45
M  V30 50 1 22 46
M  V30 51 1 23 47
M  V30 52 1 26 48
M  V30 53 1 26 49
M  V30 54 1 27 50
M  V30 55 1 27 51
M  V30 56 1 29 52
M  V30 57 1 29 53
M  V30 58 1 30 54
M  V30 59 1 30 55
M  V30 END BOND
M  V30 END CTAB
M  END
>  <Dataset>  (473) 
ChEMBL_Kinases

>  <Ligand_Instance>  (473) 
nan

>  <PDB_ID>  (473) 
nan

>  <Standardized_SMILES>  (473) 
O=C(Nc1cc(-c2cn(C3CCOCC3)c3cnccc23)ccn1)N1CCOCC1

>  <Name>  (473) 
nan

>  <Pocket>  (473) 
nan

>  <ATP_Site>  (473) 
nan

>  <Peripheral>  (473) 
nan

>  <Num_H_Atoms_ProtBoundConf>  (473) 
nan

>  <Num_Resolved_Atoms>  (473) 
nan

>  <Num_Not_Resolved_Atoms>  (473) 
nan

$$$$
CHEMBL4537262
     RDKit          3D

  0  0  0  0  0  0  0  0  0  0999 V3000
M  V30 BEGIN CTAB
M  V30 COUNTS 46 49 0 0 0
M  V30 BEGIN ATOM
M  V30 1 C -1.240720 -5.590275 3.059618 0
M  V30 2 C -0.804369 -4.258525 2.511087 0
M  V30 3 C 0.545733 -3.914045 2.584734 0
M  V30 4 C 0.906179 -2.685445 2.069426 0
M  V30 5 O 2.265683 -2.437976 2.190359 0
M  V30 6 C -0.051326 -1.850287 1.509141 0
M  V30 7 C 0.601078 -0.639137 1.054763 0
M  V30 8 C 0.699814 0.415171 1.978200 0
M  V30 9 C 1.360022 1.544514 1.536443 0
M  V30 10 C 1.875035 1.589693 0.257783 0
M  V30 11 C 2.597866 2.807944 -0.246218 0 CFG=1
M  V30 12 C 3.990249 2.471211 -0.662598 0
M  V30 13 C 1.843442 3.424038 -1.412155 0
M  V30 14 N 2.488474 4.599638 -1.941207 0
M  V30 15 C 1.768189 0.543577 -0.635574 0
M  V30 16 C 1.110848 -0.634254 -0.255407 0
M  V30 17 C -1.370889 -2.201103 1.443708 0
M  V30 18 C -1.769675 -3.414857 1.945451 0
M  V30 19 N -3.017959 -3.896520 1.953976 0
M  V30 20 C -3.979134 -3.125504 1.422611 0
M  V30 21 O -5.175363 -3.460657 1.371262 0
M  V30 22 C -3.571951 -1.919329 0.925586 0
M  V30 23 S -4.669667 -0.671189 0.143262 0
M  V30 24 C -3.321953 0.494421 -0.170891 0
M  V30 25 C -2.103493 -0.165215 0.354648 0
M  V30 26 C -2.293391 -1.374542 0.892725 0
M  V30 27 H -0.335648 -6.148702 3.321597 0
M  V30 28 H -1.831565 -5.479670 3.996211 0
M  V30 29 H -1.790532 -6.167462 2.286250 0
M  V30 30 H 1.208801 -4.619214 3.032518 0
M  V30 31 H 2.851112 -2.672303 1.415326 0
M  V30 32 H 0.264875 0.286923 2.957293 0
M  V30 33 H 1.459955 2.375627 2.207363 0
M  V30 34 H 2.646757 3.607853 0.521622 0
M  V30 35 H 4.682426 2.703033 0.173211 0
M  V30 36 H 4.141235 1.392453 -0.869141 0
M  V30 37 H 4.269287 3.109218 -1.523176 0
M  V30 38 H 0.815857 3.696495 -1.122411 0
M  V30 39 H 1.771511 2.685149 -2.249887 0
M  V30 40 H 3.324139 4.912948 -1.400832 0
M  V30 41 H 1.823957 5.398331 -2.055498 0
M  V30 42 H 2.164986 0.558740 -1.642692 0
M  V30 43 H 0.964497 -1.515636 -0.862765 0
M  V30 44 H -3.307898 -4.816711 2.337366 0
M  V30 45 H -3.560153 1.453330 -0.665804 0
M  V30 46 H -1.358022 0.541779 0.150614 0
M  V30 END ATOM
M  V30 BEGIN BOND
M  V30 1 1 1 2
M  V30 2 2 2 3
M  V30 3 1 3 4
M  V30 4 1 4 5
M  V30 5 2 4 6
M  V30 6 1 6 7
M  V30 7 2 7 8
M  V30 8 1 8 9
M  V30 9 2 9 10
M  V30 10 1 10 11
M  V30 11 1 11 12
M  V30 12 1 11 13
M  V30 13 1 13 14
M  V30 14 1 10 15
M  V30 15 2 15 16
M  V30 16 1 6 17
M  V30 17 2 17 18
M  V30 18 1 18 19
M  V30 19 1 19 20
M  V30 20 2 20 21
M  V30 21 1 20 22
M  V30 22 1 22 23
M  V30 23 1 23 24
M  V30 24 2 24 25
M  V30 25 1 25 26
M  V30 26 1 18 2
M  V30 27 2 26 22
M  V30 28 1 16 7
M  V30 29 1 26 17
M  V30 30 1 1 27
M  V30 31 1 1 28
M  V30 32 1 1 29
M  V30 33 1 3 30
M  V30 34 1 5 31
M  V30 35 1 8 32
M  V30 36 1 9 33
M  V30 37 1 11 34 CFG=1
M  V30 38 1 12 35
M  V30 39 1 12 36
M  V30 40 1 12 37
M  V30 41 1 13 38
M  V30 42 1 13 39
M  V30 43 1 14 40
M  V30 44 1 14 41
M  V30 45 1 15 42
M  V30 46 1 16 43
M  V30 47 1 19 44
M  V30 48 1 24 45
M  V30 49 1 25 46
M  V30 END BOND
M  V30 END CTAB
M  END
>  <Dataset>  (474) 
ChEMBL_Kinases

>  <Ligand_Instance>  (474) 
nan

>  <PDB_ID>  (474) 
nan

>  <Standardized_SMILES>  (474) 
Cc1cc(O)c(-c2ccc([C@@H](C)CN)cc2)c2c1[nH]c(=O)c1sccc12

>  <Name>  (474) 
nan

>  <Pocket>  (474) 
nan

>  <ATP_Site>  (474) 
nan

>  <Peripheral>  (474) 
nan

>  <Num_H_Atoms_ProtBoundConf>  (474) 
nan

>  <Num_Resolved_Atoms>  (474) 
nan

>  <Num_Not_Resolved_Atoms>  (474) 
nan

$$$$
CHEMBL4640860
     RDKit          3D

  0  0  0  0  0  0  0  0  0  0999 V3000
M  V30 BEGIN CTAB
M  V30 COUNTS 40 42 0 0 0
M  V30 BEGIN ATOM
M  V30 1 C 0.610946 -2.494421 -2.150197 0
M  V30 2 C 1.609498 -3.251122 -1.356533 0
M  V30 3 C 1.012928 -3.533689 0.020443 0
M  V30 4 N 2.887794 -2.591168 -1.197982 0
M  V30 5 C 4.091525 -3.191225 -1.194583 0
M  V30 6 N 4.986199 -2.219799 -1.022768 0
M  V30 7 N 4.370346 -1.056950 -0.922287 0
M  V30 8 C 3.059639 -1.268374 -1.029275 0
M  V30 9 C 2.071413 -0.196323 -0.962846 0
M  V30 10 C 1.979597 0.665636 -2.049675 0
M  V30 11 C 1.064745 1.720865 -2.078160 0
M  V30 12 C 0.260556 1.854314 -0.964641 0
M  V30 13 C 0.346463 1.002276 0.117546 0
M  V30 14 N -0.502336 1.175352 1.246618 0
M  V30 15 C -0.454786 0.328883 2.382883 0
M  V30 16 O 0.358257 -0.630501 2.438992 0
M  V30 17 C -1.352879 0.563397 3.503872 0
M  V30 18 C -1.418249 -0.175475 4.668936 0
M  V30 19 N -2.375364 0.362329 5.451043 0
M  V30 20 N -2.891706 1.396476 4.806598 0
M  V30 21 C -3.959042 2.285905 5.263573 0
M  V30 22 C -2.300500 1.574513 3.592192 0
M  V30 23 N 1.237717 0.010302 0.093638 0
M  V30 24 H -0.066222 -3.206190 -2.666004 0
M  V30 25 H -0.059624 -1.836961 -1.562892 0
M  V30 26 H 1.145148 -1.963709 -2.971864 0
M  V30 27 H 1.732236 -4.266796 -1.815197 0
M  V30 28 H 1.394231 -4.497888 0.418778 0
M  V30 29 H 1.216690 -2.715198 0.745957 0
M  V30 30 H -0.080888 -3.632006 -0.128965 0
M  V30 31 H 4.219841 -4.267494 -1.315127 0
M  V30 32 H 2.643820 0.507326 -2.900457 0
M  V30 33 H 1.008406 2.383475 -2.936763 0
M  V30 34 H -0.467748 2.660750 -0.939111 0
M  V30 35 H -1.188142 1.944085 1.257362 0
M  V30 36 H -0.794401 -1.046138 4.904639 0
M  V30 37 H -4.340761 1.908673 6.220621 0
M  V30 38 H -3.570635 3.300213 5.392222 0
M  V30 39 H -4.746528 2.202139 4.478883 0
M  V30 40 H -2.534702 2.346071 2.866359 0
M  V30 END ATOM
M  V30 BEGIN BOND
M  V30 1 1 1 2
M  V30 2 1 2 3
M  V30 3 1 2 4
M  V30 4 1 4 5
M  V30 5 2 5 6
M  V30 6 1 6 7
M  V30 7 2 7 8
M  V30 8 1 8 9
M  V30 9 2 9 10
M  V30 10 1 10 11
M  V30 11 2 11 12
M  V30 12 1 12 13
M  V30 13 1 13 14
M  V30 14 1 14 15
M  V30 15 2 15 16
M  V30 16 1 15 17
M  V30 17 1 17 18
M  V30 18 2 18 19
M  V30 19 1 19 20
M  V30 20 1 20 21
M  V30 21 1 20 22
M  V30 22 2 13 23
M  V30 23 1 8 4
M  V30 24 1 23 9
M  V30 25 2 22 17
M  V30 26 1 1 24
M  V30 27 1 1 25
M  V30 28 1 1 26
M  V30 29 1 2 27
M  V30 30 1 3 28
M  V30 31 1 3 29
M  V30 32 1 3 30
M  V30 33 1 5 31
M  V30 34 1 10 32
M  V30 35 1 11 33
M  V30 36 1 12 34
M  V30 37 1 14 35
M  V30 38 1 18 36
M  V30 39 1 21 37
M  V30 40 1 21 38
M  V30 41 1 21 39
M  V30 42 1 22 40
M  V30 END BOND
M  V30 END CTAB
M  END
>  <Dataset>  (475) 
ChEMBL_Kinases

>  <Ligand_Instance>  (475) 
nan

>  <PDB_ID>  (475) 
nan

>  <Standardized_SMILES>  (475) 
CC(C)n1cnnc1-c1cccc(NC(=O)c2cnn(C)c2)n1

>  <Name>  (475) 
nan

>  <Pocket>  (475) 
nan

>  <ATP_Site>  (475) 
nan

>  <Peripheral>  (475) 
nan

>  <Num_H_Atoms_ProtBoundConf>  (475) 
nan

>  <Num_Resolved_Atoms>  (475) 
nan

>  <Num_Not_Resolved_Atoms>  (475) 
nan

$$$$
CHEMBL4640897
     RDKit          3D

  0  0  0  0  0  0  0  0  0  0999 V3000
M  V30 BEGIN CTAB
M  V30 COUNTS 47 51 0 0 0
M  V30 BEGIN ATOM
M  V30 1 O 5.316068 -3.577275 1.274083 0
M  V30 2 C 4.595358 -2.855507 2.008475 0
M  V30 3 N 4.937553 -2.727017 3.378876 0
M  V30 4 C 6.077894 -3.372061 4.013172 0
M  V30 5 C 6.665150 -2.786879 5.245266 0
M  V30 6 C 5.807062 -3.989905 5.399047 0
M  V30 7 C 3.439527 -2.179919 1.431941 0
M  V30 8 C 2.632660 -1.326320 2.155658 0
M  V30 9 C 1.523529 -0.672124 1.613949 0
M  V30 10 C 1.217064 -0.897018 0.263446 0
M  V30 11 C 0.050566 -0.169120 -0.224071 0
M  V30 12 C -0.104500 1.187210 0.078911 0
M  V30 13 N -1.242320 1.659772 -0.463887 0
M  V30 14 C -1.811094 0.625015 -1.105801 0
M  V30 15 C -2.991744 0.497835 -1.843700 0
M  V30 16 N -3.751156 1.689344 -1.958581 0
M  V30 17 C -4.734534 2.307456 -1.139672 0
M  V30 18 C -5.037829 1.671170 0.044414 0
M  V30 19 C -6.005351 2.328596 0.809207 0
M  V30 20 C -6.601749 3.521943 0.397390 0
M  V30 21 C -6.224196 4.078432 -0.813078 0
M  V30 22 C -5.260103 3.465460 -1.622738 0
M  V30 23 N -3.327592 -0.707540 -2.390594 0
M  V30 24 C -2.494850 -1.775546 -2.204143 0
M  V30 25 C -1.315564 -1.685136 -1.478374 0
M  V30 26 N -1.042717 -0.471054 -0.965998 0
M  V30 27 C 2.010191 -1.750957 -0.490724 0
M  V30 28 C 3.107963 -2.377364 0.108160 0
M  V30 29 H 4.376167 -2.146433 4.031141 0
M  V30 30 H 6.753922 -4.010038 3.394036 0
M  V30 31 H 7.737098 -2.927316 5.410182 0
M  V30 32 H 6.241167 -1.834949 5.644665 0
M  V30 33 H 4.808956 -3.856914 5.844985 0
M  V30 34 H 6.264814 -4.972641 5.628679 0
M  V30 35 H 2.833643 -1.124707 3.197920 0
M  V30 36 H 0.932884 -0.015645 2.237499 0
M  V30 37 H 0.514395 1.867423 0.648267 0
M  V30 38 H -3.376334 2.022123 -2.866543 0
M  V30 39 H -4.599239 0.765443 0.381468 0
M  V30 40 H -6.286733 1.875642 1.757705 0
M  V30 41 H -7.353745 3.981286 1.052319 0
M  V30 42 H -6.682228 5.011602 -1.149652 0
M  V30 43 H -4.958170 3.890974 -2.569359 0
M  V30 44 H -2.770345 -2.736408 -2.643276 0
M  V30 45 H -0.671959 -2.544408 -1.343875 0
M  V30 46 H 1.721199 -1.880101 -1.518525 0
M  V30 47 H 3.669305 -3.020698 -0.536679 0
M  V30 END ATOM
M  V30 BEGIN BOND
M  V30 1 2 1 2
M  V30 2 1 2 3
M  V30 3 1 3 4
M  V30 4 1 4 5
M  V30 5 1 5 6
M  V30 6 1 2 7
M  V30 7 2 7 8
M  V30 8 1 8 9
M  V30 9 2 9 10
M  V30 10 1 10 11
M  V30 11 2 11 12
M  V30 12 1 12 13
M  V30 13 2 13 14
M  V30 14 1 14 15
M  V30 15 1 15 16
M  V30 16 1 16 17
M  V30 17 2 17 18
M  V30 18 1 18 19
M  V30 19 2 19 20
M  V30 20 1 20 21
M  V30 21 2 21 22
M  V30 22 2 15 23
M  V30 23 1 23 24
M  V30 24 2 24 25
M  V30 25 1 25 26
M  V30 26 1 10 27
M  V30 27 2 27 28
M  V30 28 1 6 4
M  V30 29 1 28 7
M  V30 30 1 26 11
M  V30 31 1 26 14
M  V30 32 1 22 17
M  V30 33 1 3 29
M  V30 34 1 4 30
M  V30 35 1 5 31
M  V30 36 1 5 32
M  V30 37 1 6 33
M  V30 38 1 6 34
M  V30 39 1 8 35
M  V30 40 1 9 36
M  V30 41 1 12 37
M  V30 42 1 16 38
M  V30 43 1 18 39
M  V30 44 1 19 40
M  V30 45 1 20 41
M  V30 46 1 21 42
M  V30 47 1 22 43
M  V30 48 1 24 44
M  V30 49 1 25 45
M  V30 50 1 27 46
M  V30 51 1 28 47
M  V30 END BOND
M  V30 END CTAB
M  END
>  <Dataset>  (476) 
ChEMBL_Kinases

>  <Ligand_Instance>  (476) 
nan

>  <PDB_ID>  (476) 
nan

>  <Standardized_SMILES>  (476) 
O=C(NC1CC1)c1ccc(-c2cnc3c(Nc4ccccc4)nccn23)cc1

>  <Name>  (476) 
nan

>  <Pocket>  (476) 
nan

>  <ATP_Site>  (476) 
nan

>  <Peripheral>  (476) 
nan

>  <Num_H_Atoms_ProtBoundConf>  (476) 
nan

>  <Num_Resolved_Atoms>  (476) 
nan

>  <Num_Not_Resolved_Atoms>  (476) 
nan

$$$$
CHEMBL4539700
     RDKit          3D

  0  0  0  0  0  0  0  0  0  0999 V3000
M  V30 BEGIN CTAB
M  V30 COUNTS 46 49 0 0 0
M  V30 BEGIN ATOM
M  V30 1 N 2.649516 -1.727491 3.451487 0
M  V30 2 C 3.514154 -0.818724 2.771013 0
M  V30 3 N 4.835999 -0.927330 2.954158 0
M  V30 4 C 5.727703 -0.111920 2.351876 0
M  V30 5 C 5.219710 0.871705 1.512200 0
M  V30 6 C 3.864211 1.020850 1.293537 0
M  V30 7 C 3.323800 2.050972 0.413653 0
M  V30 8 C 2.346887 1.963963 -0.549294 0
M  V30 9 C 1.998699 3.089132 -1.264716 0
M  V30 10 C 2.587019 4.302378 -1.058506 0
M  V30 11 F 2.159469 5.338943 -1.825886 0
M  V30 12 C 3.569945 4.405323 -0.094596 0
M  V30 13 C 3.925848 3.290326 0.625372 0
M  V30 14 C 3.000144 0.157672 1.936812 0
M  V30 15 N 1.574197 0.220229 1.783897 0
M  V30 16 C 0.873983 -0.790972 1.404939 0
M  V30 17 C -0.570598 -0.613956 1.283179 0
M  V30 18 C -1.122878 0.597879 1.570312 0
M  V30 19 C -2.493057 0.658674 1.423665 0
M  V30 20 N -3.251454 -0.377318 1.030547 0
M  V30 21 C -2.736510 -1.582501 0.740854 0
M  V30 22 N -3.621739 -2.610335 0.334970 0
M  V30 23 C -3.316275 -3.946211 -0.017921 0
M  V30 24 O -2.127221 -4.344630 0.008313 0
M  V30 25 C -4.340103 -4.940656 -0.430496 0
M  V30 26 C -5.688153 -4.722418 0.151051 0
M  V30 27 C -5.445496 -4.383853 -1.289148 0
M  V30 28 C -1.382145 -1.653700 0.882589 0
M  V30 29 H 2.152572 -1.139372 4.172380 0
M  V30 30 H 2.369387 -2.737690 3.459369 0
M  V30 31 H 6.777132 -0.253223 2.542278 0
M  V30 32 H 5.927962 1.520762 1.032634 0
M  V30 33 H 1.939996 0.966547 -0.640981 0
M  V30 34 H 1.208009 2.900648 -2.006111 0
M  V30 35 H 4.031370 5.384704 0.058154 0
M  V30 36 H 4.714525 3.487728 1.361819 0
M  V30 37 H 1.356025 -1.735660 1.187278 0
M  V30 38 H -0.572821 1.457323 1.886966 0
M  V30 39 H -3.041852 1.574437 1.624908 0
M  V30 40 H -4.632481 -2.417832 0.269491 0
M  V30 41 H -3.997791 -5.954315 -0.687980 0
M  V30 42 H -6.290554 -5.637068 0.340367 0
M  V30 43 H -5.857718 -3.927878 0.876577 0
M  V30 44 H -5.944525 -5.040579 -2.049616 0
M  V30 45 H -5.449168 -3.333173 -1.607102 0
M  V30 46 H -0.877427 -2.577860 0.673611 0
M  V30 END ATOM
M  V30 BEGIN BOND
M  V30 1 1 1 2
M  V30 2 2 2 3
M  V30 3 1 3 4
M  V30 4 2 4 5
M  V30 5 1 5 6
M  V30 6 1 6 7
M  V30 7 2 7 8
M  V30 8 1 8 9
M  V30 9 2 9 10
M  V30 10 1 10 11
M  V30 11 1 10 12
M  V30 12 2 12 13
M  V30 13 2 6 14
M  V30 14 1 14 15
M  V30 15 2 15 16
M  V30 16 1 16 17
M  V30 17 2 17 18
M  V30 18 1 18 19
M  V30 19 2 19 20
M  V30 20 1 20 21
M  V30 21 1 21 22
M  V30 22 1 22 23
M  V30 23 2 23 24
M  V30 24 1 23 25
M  V30 25 1 25 26
M  V30 26 1 26 27
M  V30 27 2 21 28
M  V30 28 1 14 2
M  V30 29 1 28 17
M  V30 30 1 13 7
M  V30 31 1 27 25
M  V30 32 1 1 29
M  V30 33 1 1 30
M  V30 34 1 4 31
M  V30 35 1 5 32
M  V30 36 1 8 33
M  V30 37 1 9 34
M  V30 38 1 12 35
M  V30 39 1 13 36
M  V30 40 1 16 37
M  V30 41 1 18 38
M  V30 42 1 19 39
M  V30 43 1 22 40
M  V30 44 1 25 41
M  V30 45 1 26 42
M  V30 46 1 26 43
M  V30 47 1 27 44
M  V30 48 1 27 45
M  V30 49 1 28 46
M  V30 END BOND
M  V30 END CTAB
M  END
>  <Dataset>  (477) 
ChEMBL_Kinases

>  <Ligand_Instance>  (477) 
nan

>  <PDB_ID>  (477) 
nan

>  <Standardized_SMILES>  (477) 
Nc1nccc(-c2ccc(F)cc2)c1/N=C/c1ccnc(NC(=O)C2CC2)c1

>  <Name>  (477) 
nan

>  <Pocket>  (477) 
nan

>  <ATP_Site>  (477) 
nan

>  <Peripheral>  (477) 
nan

>  <Num_H_Atoms_ProtBoundConf>  (477) 
nan

>  <Num_Resolved_Atoms>  (477) 
nan

>  <Num_Not_Resolved_Atoms>  (477) 
nan

$$$$
CHEMBL4539558
     RDKit          3D

  0  0  0  0  0  0  0  0  0  0999 V3000
M  V30 BEGIN CTAB
M  V30 COUNTS 29 31 0 0 0
M  V30 BEGIN ATOM
M  V30 1 N -0.950855 -3.787895 4.177638 0
M  V30 2 C -0.353234 -2.876672 3.461806 0
M  V30 3 N 0.825296 -2.152942 3.797359 0
M  V30 4 C 1.191862 -1.241539 2.779379 0
M  V30 5 O 2.174260 -0.468667 2.745525 0
M  V30 6 C 0.157347 -1.438360 1.781743 0
M  V30 7 C -0.149139 -0.773612 0.641161 0
M  V30 8 C -1.237489 -1.104606 -0.325936 0
M  V30 9 C -0.948852 -0.748751 -1.746573 0
M  V30 10 N 0.427426 -0.771333 -2.193843 0
M  V30 11 C 1.501845 0.152247 -1.823397 0
M  V30 12 O 2.534611 0.450130 -2.457503 0
M  V30 13 C 1.471733 0.901202 -0.536328 0
M  V30 14 N 2.031586 2.046887 -0.110372 0
M  V30 15 C 1.631553 2.322025 1.144223 0
M  V30 16 C 0.750800 1.349877 1.656042 0
M  V30 17 Br -0.196065 1.319136 3.328408 0
M  V30 18 C 0.685319 0.469183 0.556674 0
M  V30 19 N -0.801362 -2.444002 2.181838 0
M  V30 20 H -1.824392 -4.263321 3.829603 0
M  V30 21 H 1.341318 -2.307075 4.714574 0
M  V30 22 H -2.214460 -0.684749 -0.073024 0
M  V30 23 H -1.265243 -2.242564 -0.292482 0
M  V30 24 H -1.394656 0.284632 -1.933159 0
M  V30 25 H -1.510218 -1.472759 -2.393323 0
M  V30 26 H 0.882341 -1.462422 -2.888903 0
M  V30 27 H 2.658540 2.525748 -0.778584 0
M  V30 28 H 1.948427 3.189184 1.697705 0
M  V30 29 H -1.645403 -2.821381 1.708443 0
M  V30 END ATOM
M  V30 BEGIN BOND
M  V30 1 2 1 2 CFG=2
M  V30 2 1 2 3
M  V30 3 1 3 4
M  V30 4 2 4 5
M  V30 5 1 4 6
M  V30 6 2 6 7
M  V30 7 1 7 8
M  V30 8 1 8 9
M  V30 9 1 9 10
M  V30 10 1 10 11
M  V30 11 2 11 12
M  V30 12 1 11 13
M  V30 13 1 13 14
M  V30 14 1 14 15
M  V30 15 2 15 16
M  V30 16 1 16 17
M  V30 17 1 16 18
M  V30 18 1 6 19
M  V30 19 1 19 2
M  V30 20 1 18 7
M  V30 21 2 18 13
M  V30 22 1 1 20
M  V30 23 1 3 21
M  V30 24 1 8 22
M  V30 25 1 8 23
M  V30 26 1 9 24
M  V30 27 1 9 25
M  V30 28 1 10 26
M  V30 29 1 14 27
M  V30 30 1 15 28
M  V30 31 1 19 29
M  V30 END BOND
M  V30 END CTAB
M  END
>  <Dataset>  (478) 
ChEMBL_Kinases

>  <Ligand_Instance>  (478) 
nan

>  <PDB_ID>  (478) 
nan

>  <Standardized_SMILES>  (478) 
N=C1NC(=O)/C(=C2/CCNC(=O)c3[nH]cc(Br)c32)N1

>  <Name>  (478) 
nan

>  <Pocket>  (478) 
nan

>  <ATP_Site>  (478) 
nan

>  <Peripheral>  (478) 
nan

>  <Num_H_Atoms_ProtBoundConf>  (478) 
nan

>  <Num_Resolved_Atoms>  (478) 
nan

>  <Num_Not_Resolved_Atoms>  (478) 
nan

$$$$
CHEMBL4640950
     RDKit          3D

  0  0  0  0  0  0  0  0  0  0999 V3000
M  V30 BEGIN CTAB
M  V30 COUNTS 46 48 0 0 0
M  V30 BEGIN ATOM
M  V30 1 N 2.242620 -3.541331 3.838622 0
M  V30 2 C 1.410493 -3.184258 2.752596 0
M  V30 3 O 0.571950 -4.040800 2.315474 0
M  V30 4 C 1.456101 -1.882656 2.098233 0
M  V30 5 C 2.353140 -0.926072 2.544038 0
M  V30 6 N 2.372162 0.284126 1.910405 0
M  V30 7 C 1.529401 0.505549 0.886188 0
M  V30 8 N 1.616224 1.789262 0.285322 0
M  V30 9 C 2.573910 2.755535 0.789564 0
M  V30 10 C 2.593761 4.007109 -0.034159 0
M  V30 11 C 2.589988 3.809982 -1.509186 0
M  V30 12 C 1.824431 2.571205 -1.920877 0 CFG=1
M  V30 13 N 2.817046 1.503147 -2.022954 0
M  V30 14 C 0.829457 2.286362 -0.827052 0
M  V30 15 N 0.681816 -0.437691 0.486265 0
M  V30 16 C 0.592546 -1.656035 1.048914 0
M  V30 17 N -0.348110 -2.597211 0.548120 0
M  V30 18 C -1.672899 -2.670181 1.060657 0
M  V30 19 C -2.043611 -1.810144 2.065187 0
M  V30 20 C -3.348506 -1.962956 2.490359 0
M  V30 21 C -4.258480 -2.881923 1.992171 0
M  V30 22 C -3.829744 -3.722000 0.981610 0
M  V30 23 C -4.761202 -4.720967 0.414574 0
M  V30 24 F -4.252824 -5.236855 -0.759857 0
M  V30 25 F -5.066186 -5.734131 1.301491 0
M  V30 26 F -5.973544 -4.109345 0.085392 0
M  V30 27 C -2.529290 -3.606776 0.521638 0
M  V30 28 H 2.092062 -3.587706 4.864291 0
M  V30 29 H 1.762305 -3.475807 4.761494 0
M  V30 30 H 3.025719 -1.136550 3.379655 0
M  V30 31 H 2.170805 3.059292 1.799098 0
M  V30 32 H 3.568418 2.338614 0.983952 0
M  V30 33 H 3.550385 4.546168 0.213722 0
M  V30 34 H 1.770692 4.694314 0.299199 0
M  V30 35 H 3.601086 3.845343 -1.964806 0
M  V30 36 H 2.022917 4.668259 -1.957833 0
M  V30 37 H 1.365239 2.649789 -2.923814 0
M  V30 38 H 3.675702 1.823467 -2.504746 0
M  V30 39 H 2.471794 0.664404 -2.513664 0
M  V30 40 H 0.373301 3.236142 -0.475888 0
M  V30 41 H 0.009004 1.615493 -1.121245 0
M  V30 42 H -0.011776 -3.228816 -0.214089 0
M  V30 43 H -1.405917 -1.064148 2.514048 0
M  V30 44 H -3.710776 -1.312228 3.286422 0
M  V30 45 H -5.256169 -2.919171 2.395073 0
M  V30 46 H -2.157147 -4.254272 -0.275703 0
M  V30 END ATOM
M  V30 BEGIN BOND
M  V30 1 1 1 2
M  V30 2 2 2 3
M  V30 3 1 2 4
M  V30 4 2 4 5
M  V30 5 1 5 6
M  V30 6 2 6 7
M  V30 7 1 7 8
M  V30 8 1 8 9
M  V30 9 1 9 10
M  V30 10 1 10 11
M  V30 11 1 11 12
M  V30 12 1 12 13
M  V30 13 1 12 14
M  V30 14 1 7 15
M  V30 15 2 15 16
M  V30 16 1 16 17
M  V30 17 1 17 18
M  V30 18 2 18 19
M  V30 19 1 19 20
M  V30 20 2 20 21
M  V30 21 1 21 22
M  V30 22 1 22 23
M  V30 23 1 23 24
M  V30 24 1 23 25
M  V30 25 1 23 26
M  V30 26 2 22 27
M  V30 27 1 16 4
M  V30 28 1 27 18
M  V30 29 1 14 8
M  V30 30 1 1 28
M  V30 31 1 1 29
M  V30 32 1 5 30
M  V30 33 1 9 31
M  V30 34 1 9 32
M  V30 35 1 10 33
M  V30 36 1 10 34
M  V30 37 1 11 35
M  V30 38 1 11 36
M  V30 39 1 12 37 CFG=3
M  V30 40 1 13 38
M  V30 41 1 13 39
M  V30 42 1 14 40
M  V30 43 1 14 41
M  V30 44 1 17 42
M  V30 45 1 19 43
M  V30 46 1 20 44
M  V30 47 1 21 45
M  V30 48 1 27 46
M  V30 END BOND
M  V30 END CTAB
M  END
>  <Dataset>  (479) 
ChEMBL_Kinases

>  <Ligand_Instance>  (479) 
nan

>  <PDB_ID>  (479) 
nan

>  <Standardized_SMILES>  (479) 
NC(=O)c1cnc(N2CCC[C@@H](N)C2)nc1Nc1cccc(C(F)(F)F)c1

>  <Name>  (479) 
nan

>  <Pocket>  (479) 
nan

>  <ATP_Site>  (479) 
nan

>  <Peripheral>  (479) 
nan

>  <Num_H_Atoms_ProtBoundConf>  (479) 
nan

>  <Num_Resolved_Atoms>  (479) 
nan

>  <Num_Not_Resolved_Atoms>  (479) 
nan

$$$$
CHEMBL453937
     RDKit          3D

  0  0  0  0  0  0  0  0  0  0999 V3000
M  V30 BEGIN CTAB
M  V30 COUNTS 25 26 0 0 0
M  V30 BEGIN ATOM
M  V30 1 O -0.705889 -3.631054 -0.444189 0
M  V30 2 C 0.111190 -2.598566 0.082046 0
M  V30 3 C 0.216349 -2.708106 1.574284 0
M  V30 4 C 1.043176 -1.611879 2.205614 0
M  V30 5 N 0.441411 -0.335222 1.913712 0
M  V30 6 C -0.649890 -0.015125 2.678556 0
M  V30 7 N -1.190332 1.154207 2.303437 0
M  V30 8 C -0.473819 1.643369 1.281488 0
M  V30 9 C -0.446791 2.742281 0.452684 0
M  V30 10 Br -1.814353 4.051955 0.726923 0
M  V30 11 C 0.524058 2.900938 -0.538742 0
M  V30 12 Br 0.477674 4.457378 -1.637612 0
M  V30 13 C 1.509030 1.921964 -0.709153 0
M  V30 14 Br 2.799595 2.220277 -2.088961 0
M  V30 15 C 1.488246 0.819459 0.116038 0
M  V30 16 Br 2.914463 -0.397737 -0.196034 0
M  V30 17 C 0.510486 0.705646 1.077420 0
M  V30 18 H -1.332645 -3.903981 0.249730 0
M  V30 19 H 1.144653 -2.812239 -0.333262 0
M  V30 20 H -0.174429 -1.610468 -0.299105 0
M  V30 21 H 0.614482 -3.718236 1.827572 0
M  V30 22 H -0.852214 -2.651498 1.948076 0
M  V30 23 H 2.059560 -1.733776 1.805926 0
M  V30 24 H 1.042234 -1.804743 3.322124 0
M  V30 25 H -1.170798 -0.489481 3.511390 0
M  V30 END ATOM
M  V30 BEGIN BOND
M  V30 1 1 1 2
M  V30 2 1 2 3
M  V30 3 1 3 4
M  V30 4 1 4 5
M  V30 5 1 5 6
M  V30 6 2 6 7
M  V30 7 1 7 8
M  V30 8 2 8 9
M  V30 9 1 9 10
M  V30 10 1 9 11
M  V30 11 1 11 12
M  V30 12 2 11 13
M  V30 13 1 13 14
M  V30 14 1 13 15
M  V30 15 1 15 16
M  V30 16 2 15 17
M  V30 17 1 17 5
M  V30 18 1 17 8
M  V30 19 1 1 18
M  V30 20 1 2 19
M  V30 21 1 2 20
M  V30 22 1 3 21
M  V30 23 1 3 22
M  V30 24 1 4 23
M  V30 25 1 4 24
M  V30 26 1 6 25
M  V30 END BOND
M  V30 END CTAB
M  END
>  <Dataset>  (480) 
ChEMBL_Kinases

>  <Ligand_Instance>  (480) 
nan

>  <PDB_ID>  (480) 
nan

>  <Standardized_SMILES>  (480) 
OCCCn1cnc2c(Br)c(Br)c(Br)c(Br)c21

>  <Name>  (480) 
nan

>  <Pocket>  (480) 
nan

>  <ATP_Site>  (480) 
nan

>  <Peripheral>  (480) 
nan

>  <Num_H_Atoms_ProtBoundConf>  (480) 
nan

>  <Num_Resolved_Atoms>  (480) 
nan

>  <Num_Not_Resolved_Atoms>  (480) 
nan

$$$$
CHEMBL4539170
     RDKit          3D

  0  0  0  0  0  0  0  0  0  0999 V3000
M  V30 BEGIN CTAB
M  V30 COUNTS 46 49 0 0 0
M  V30 BEGIN ATOM
M  V30 1 C -4.016930 -4.574698 0.709374 0
M  V30 2 C -2.511620 -4.815767 0.774809 0
M  V30 3 C -1.768243 -3.559493 0.580852 0
M  V30 4 C -1.276163 -2.918184 -0.520971 0
M  V30 5 C -0.619795 -1.727309 -0.274185 0
M  V30 6 C -0.089109 -1.028331 -1.424984 0
M  V30 7 N -0.129300 -1.354150 -2.732528 0
M  V30 8 N 0.463772 -0.469269 -3.488013 0
M  V30 9 C 0.925991 0.491967 -2.688755 0
M  V30 10 C 1.612982 1.613791 -3.070578 0
M  V30 11 C 2.006851 2.491672 -2.090775 0
M  V30 12 N 1.691699 2.196616 -0.794197 0
M  V30 13 C 1.016093 1.079413 -0.489989 0
M  V30 14 N 0.739235 0.867634 0.885162 0
M  V30 15 C 1.260550 1.937584 1.702134 0
M  V30 16 C 1.036722 1.854216 3.171709 0
M  V30 17 C 1.897547 0.820577 3.858008 0
M  V30 18 O 3.211710 0.833870 3.402866 0
M  V30 19 C 3.531483 2.046066 2.798302 0
M  V30 20 C 2.752842 2.126203 1.491324 0
M  V30 21 C 0.592214 0.163428 -1.397448 0
M  V30 22 N -0.780248 -1.750642 1.035648 0
M  V30 23 N -1.403908 -2.734341 1.557611 0
M  V30 24 C -1.606274 -2.803003 3.009010 0
M  V30 25 H -4.397608 -4.196590 1.679508 0
M  V30 26 H -4.247461 -3.771287 -0.025354 0
M  V30 27 H -4.514926 -5.527734 0.396291 0
M  V30 28 H -2.216909 -5.602063 0.049199 0
M  V30 29 H -2.260452 -5.217873 1.775648 0
M  V30 30 H -1.466214 -3.433815 -1.466475 0
M  V30 31 H 0.455069 -0.683675 -4.506378 0
M  V30 32 H 1.851974 1.829573 -4.094487 0
M  V30 33 H 2.560228 3.416330 -2.291051 0
M  V30 34 H 0.349197 0.338580 1.652581 0
M  V30 35 H 0.775676 2.899519 1.350646 0
M  V30 36 H 1.124824 2.851609 3.619658 0
M  V30 37 H -0.023054 1.530723 3.346884 0
M  V30 38 H 1.441866 -0.170937 3.667885 0
M  V30 39 H 1.891280 1.065082 4.945407 0
M  V30 40 H 4.600703 1.979592 2.490987 0
M  V30 41 H 3.391080 2.912005 3.444185 0
M  V30 42 H 2.983099 3.088277 0.989084 0
M  V30 43 H 3.169190 1.327498 0.856945 0
M  V30 44 H -0.689520 -3.123056 3.532132 0
M  V30 45 H -2.443401 -3.531965 3.133522 0
M  V30 46 H -1.984447 -1.814113 3.336699 0
M  V30 END ATOM
M  V30 BEGIN BOND
M  V30 1 1 1 2
M  V30 2 1 2 3
M  V30 3 2 3 4
M  V30 4 1 4 5
M  V30 5 1 5 6
M  V30 6 2 6 7
M  V30 7 1 7 8
M  V30 8 1 8 9
M  V30 9 2 9 10
M  V30 10 1 10 11
M  V30 11 2 11 12
M  V30 12 1 12 13
M  V30 13 1 13 14
M  V30 14 1 14 15
M  V30 15 1 15 16
M  V30 16 1 16 17
M  V30 17 1 17 18
M  V30 18 1 18 19
M  V30 19 1 19 20
M  V30 20 2 13 21
M  V30 21 2 5 22
M  V30 22 1 22 23
M  V30 23 1 23 24
M  V30 24 1 23 3
M  V30 25 1 21 6
M  V30 26 1 21 9
M  V30 27 1 20 15
M  V30 28 1 1 25
M  V30 29 1 1 26
M  V30 30 1 1 27
M  V30 31 1 2 28
M  V30 32 1 2 29
M  V30 33 1 4 30
M  V30 34 1 8 31
M  V30 35 1 10 32
M  V30 36 1 11 33
M  V30 37 1 14 34
M  V30 38 1 15 35
M  V30 39 1 16 36
M  V30 40 1 16 37
M  V30 41 1 17 38
M  V30 42 1 17 39
M  V30 43 1 19 40
M  V30 44 1 19 41
M  V30 45 1 20 42
M  V30 46 1 20 43
M  V30 47 1 24 44
M  V30 48 1 24 45
M  V30 49 1 24 46
M  V30 END BOND
M  V30 END CTAB
M  END
>  <Dataset>  (481) 
ChEMBL_Kinases

>  <Ligand_Instance>  (481) 
nan

>  <PDB_ID>  (481) 
nan

>  <Standardized_SMILES>  (481) 
CCc1cc(-c2n[nH]c3ccnc(NC4CCOCC4)c23)nn1C

>  <Name>  (481) 
nan

>  <Pocket>  (481) 
nan

>  <ATP_Site>  (481) 
nan

>  <Peripheral>  (481) 
nan

>  <Num_H_Atoms_ProtBoundConf>  (481) 
nan

>  <Num_Resolved_Atoms>  (481) 
nan

>  <Num_Not_Resolved_Atoms>  (481) 
nan

$$$$
CHEMBL4539019
     RDKit          3D

  0  0  0  0  0  0  0  0  0  0999 V3000
M  V30 BEGIN CTAB
M  V30 COUNTS 45 47 0 0 0
M  V30 BEGIN ATOM
M  V30 1 C 1.424090 -5.823318 0.946212 0
M  V30 2 N 0.522573 -4.688581 0.931998 0
M  V30 3 C -0.908416 -4.902002 1.007738 0
M  V30 4 C 1.133675 -3.436457 0.842628 0
M  V30 5 O 2.382371 -3.678470 0.797631 0
M  V30 6 C 0.971793 -1.988013 0.778788 0
M  V30 7 C 1.613571 -1.535037 -0.538318 0
M  V30 8 C 1.743015 -1.336482 1.899587 0
M  V30 9 N -0.401406 -1.529123 0.819882 0
M  V30 10 C -0.675165 -0.137710 0.773406 0
M  V30 11 N 0.330677 0.746480 0.694132 0
M  V30 12 C 0.151517 2.068388 0.647715 0
M  V30 13 C 1.277682 2.989843 0.562733 0
M  V30 14 C 1.078276 4.353351 0.513306 0
M  V30 15 C 2.128959 5.213774 0.433696 0
M  V30 16 N 3.404008 4.786638 0.399279 0
M  V30 17 C 3.635051 3.468931 0.445477 0
M  V30 18 C 2.590788 2.572644 0.526343 0
M  V30 19 N -1.091866 2.566854 0.680550 0
M  V30 20 C -2.187791 1.760976 0.760466 0
M  V30 21 C -3.471391 2.266815 0.794713 0
M  V30 22 N -4.518959 1.421931 0.874148 0
M  V30 23 C -4.314157 0.076602 0.920453 0
M  V30 24 C -3.025015 -0.410895 0.885217 0
M  V30 25 C -1.936119 0.415002 0.804788 0
M  V30 26 H 0.995508 -6.677242 0.361012 0
M  V30 27 H 2.441886 -5.590642 0.599953 0
M  V30 28 H 1.530487 -6.222765 1.991247 0
M  V30 29 H -1.372142 -4.450780 1.913520 0
M  V30 30 H -1.153361 -5.982743 1.053117 0
M  V30 31 H -1.397935 -4.536048 0.060678 0
M  V30 32 H 2.455337 -2.225279 -0.760416 0
M  V30 33 H 0.873627 -1.560069 -1.360367 0
M  V30 34 H 2.029362 -0.532189 -0.373177 0
M  V30 35 H 2.554630 -0.661260 1.513604 0
M  V30 36 H 2.188002 -2.119439 2.558986 0
M  V30 37 H 1.070733 -0.674302 2.498573 0
M  V30 38 H -1.090476 -2.302915 0.882713 0
M  V30 39 H 0.036224 4.701363 0.541483 0
M  V30 40 H 1.925874 6.280313 0.396968 0
M  V30 41 H 4.676391 3.157644 0.415769 0
M  V30 42 H 2.826533 1.525960 0.561167 0
M  V30 43 H -3.535922 3.346993 0.753261 0
M  V30 44 H -5.161926 -0.606540 0.984716 0
M  V30 45 H -2.921762 -1.485201 0.924769 0
M  V30 END ATOM
M  V30 BEGIN BOND
M  V30 1 1 1 2
M  V30 2 1 2 3
M  V30 3 1 2 4
M  V30 4 2 4 5
M  V30 5 1 4 6
M  V30 6 1 6 7
M  V30 7 1 6 8
M  V30 8 1 6 9
M  V30 9 1 9 10
M  V30 10 2 10 11
M  V30 11 1 11 12
M  V30 12 1 12 13
M  V30 13 2 13 14
M  V30 14 1 14 15
M  V30 15 2 15 16
M  V30 16 1 16 17
M  V30 17 2 17 18
M  V30 18 2 12 19
M  V30 19 1 19 20
M  V30 20 2 20 21
M  V30 21 1 21 22
M  V30 22 2 22 23
M  V30 23 1 23 24
M  V30 24 2 24 25
M  V30 25 1 25 10
M  V30 26 1 18 13
M  V30 27 1 25 20
M  V30 28 1 1 26
M  V30 29 1 1 27
M  V30 30 1 1 28
M  V30 31 1 3 29
M  V30 32 1 3 30
M  V30 33 1 3 31
M  V30 34 1 7 32
M  V30 35 1 7 33
M  V30 36 1 7 34
M  V30 37 1 8 35
M  V30 38 1 8 36
M  V30 39 1 8 37
M  V30 40 1 9 38
M  V30 41 1 14 39
M  V30 42 1 15 40
M  V30 43 1 17 41
M  V30 44 1 18 42
M  V30 45 1 21 43
M  V30 46 1 23 44
M  V30 47 1 24 45
M  V30 END BOND
M  V30 END CTAB
M  END
>  <Dataset>  (482) 
ChEMBL_Kinases

>  <Ligand_Instance>  (482) 
nan

>  <PDB_ID>  (482) 
nan

>  <Standardized_SMILES>  (482) 
CN(C)C(=O)C(C)(C)Nc1nc(-c2ccncc2)nc2cnccc12

>  <Name>  (482) 
nan

>  <Pocket>  (482) 
nan

>  <ATP_Site>  (482) 
nan

>  <Peripheral>  (482) 
nan

>  <Num_H_Atoms_ProtBoundConf>  (482) 
nan

>  <Num_Resolved_Atoms>  (482) 
nan

>  <Num_Not_Resolved_Atoms>  (482) 
nan

$$$$
CHEMBL4538846
     RDKit          3D

  0  0  0  0  0  0  0  0  0  0999 V3000
M  V30 BEGIN CTAB
M  V30 COUNTS 42 44 0 0 0
M  V30 BEGIN ATOM
M  V30 1 C -0.888995 -2.209022 4.208202 0
M  V30 2 O -0.151502 -2.761034 3.135470 0
M  V30 3 C 0.924315 -1.884510 2.950523 0
M  V30 4 C 1.811094 -2.378056 1.800205 0
M  V30 5 C 2.373450 -3.741036 2.124424 0
M  V30 6 C 2.916939 -1.381725 1.629255 0
M  V30 7 N 1.031553 -2.429379 0.579390 0
M  V30 8 C 0.444347 -1.329135 -0.070664 0
M  V30 9 N 0.578562 -0.061417 0.403919 0
M  V30 10 C 0.046065 0.994580 -0.188330 0
M  V30 11 C 0.113381 2.392484 0.188585 0
M  V30 12 C -0.548501 3.395870 -0.525357 0
M  V30 13 C -0.496287 4.722987 -0.192444 0
M  V30 14 N 0.215861 5.130149 0.868108 0
M  V30 15 C 0.889994 4.237662 1.620500 0
M  V30 16 C 0.811387 2.917069 1.252350 0
M  V30 17 Cl 1.718565 1.820917 2.268503 0
M  V30 18 N -0.654073 0.756564 -1.311340 0
M  V30 19 C -0.854947 -0.430372 -1.870959 0
M  V30 20 C -1.585519 -0.606601 -3.027527 0
M  V30 21 N -1.776074 -1.823215 -3.577459 0
M  V30 22 C -1.230710 -2.915434 -2.973618 0
M  V30 23 C -0.503903 -2.720245 -1.818806 0
M  V30 24 C -0.285105 -1.506339 -1.226210 0
M  V30 25 H -0.190982 -2.182466 5.070349 0
M  V30 26 H -1.167798 -1.147486 3.968184 0
M  V30 27 H -1.802348 -2.767638 4.427145 0
M  V30 28 H 1.488167 -1.864125 3.900967 0
M  V30 29 H 0.563581 -0.861227 2.734013 0
M  V30 30 H 1.623787 -4.294125 2.739207 0
M  V30 31 H 3.269134 -3.627911 2.775519 0
M  V30 32 H 2.691885 -4.272775 1.220340 0
M  V30 33 H 3.063979 -0.843053 2.564706 0
M  V30 34 H 3.880597 -1.948997 1.461821 0
M  V30 35 H 2.831254 -0.734799 0.737301 0
M  V30 36 H 0.927764 -3.382349 0.193667 0
M  V30 37 H -1.147811 3.115281 -1.405703 0
M  V30 38 H -1.038154 5.434844 -0.798462 0
M  V30 39 H 1.457596 4.585139 2.470310 0
M  V30 40 H -1.989610 0.322595 -3.449513 0
M  V30 41 H -1.388277 -3.895558 -3.422846 0
M  V30 42 H -0.107772 -3.618661 -1.402010 0
M  V30 END ATOM
M  V30 BEGIN BOND
M  V30 1 1 1 2
M  V30 2 1 2 3
M  V30 3 1 3 4
M  V30 4 1 4 5
M  V30 5 1 4 6
M  V30 6 1 4 7
M  V30 7 1 7 8
M  V30 8 2 8 9
M  V30 9 1 9 10
M  V30 10 1 10 11
M  V30 11 2 11 12
M  V30 12 1 12 13
M  V30 13 2 13 14
M  V30 14 1 14 15
M  V30 15 2 15 16
M  V30 16 1 16 17
M  V30 17 2 10 18
M  V30 18 1 18 19
M  V30 19 2 19 20
M  V30 20 1 20 21
M  V30 21 2 21 22
M  V30 22 1 22 23
M  V30 23 2 23 24
M  V30 24 1 24 8
M  V30 25 1 16 11
M  V30 26 1 24 19
M  V30 27 1 1 25
M  V30 28 1 1 26
M  V30 29 1 1 27
M  V30 30 1 3 28
M  V30 31 1 3 29
M  V30 32 1 5 30
M  V30 33 1 5 31
M  V30 34 1 5 32
M  V30 35 1 6 33
M  V30 36 1 6 34
M  V30 37 1 6 35
M  V30 38 1 7 36
M  V30 39 1 12 37
M  V30 40 1 13 38
M  V30 41 1 15 39
M  V30 42 1 20 40
M  V30 43 1 22 41
M  V30 44 1 23 42
M  V30 END BOND
M  V30 END CTAB
M  END
>  <Dataset>  (483) 
ChEMBL_Kinases

>  <Ligand_Instance>  (483) 
nan

>  <PDB_ID>  (483) 
nan

>  <Standardized_SMILES>  (483) 
COCC(C)(C)Nc1nc(-c2ccncc2Cl)nc2cnccc12

>  <Name>  (483) 
nan

>  <Pocket>  (483) 
nan

>  <ATP_Site>  (483) 
nan

>  <Peripheral>  (483) 
nan

>  <Num_H_Atoms_ProtBoundConf>  (483) 
nan

>  <Num_Resolved_Atoms>  (483) 
nan

>  <Num_Not_Resolved_Atoms>  (483) 
nan

$$$$
CHEMBL4538809
     RDKit          3D

  0  0  0  0  0  0  0  0  0  0999 V3000
M  V30 BEGIN CTAB
M  V30 COUNTS 39 41 0 0 0
M  V30 BEGIN ATOM
M  V30 1 C -0.095157 -4.914354 2.014402 0
M  V30 2 C -0.421687 -4.421009 0.645570 0
M  V30 3 C 0.050603 -3.002497 0.404035 0 CFG=2
M  V30 4 C 1.550121 -2.890015 0.562988 0
M  V30 5 N -0.621194 -2.097254 1.311092 0
M  V30 6 C -0.458342 -0.689793 1.250864 0
M  V30 7 C 0.338373 -0.079748 0.305386 0
M  V30 8 C 0.511711 1.284254 0.210908 0
M  V30 9 C 1.349596 1.944815 -0.781310 0
M  V30 10 C 1.438227 3.321688 -0.768341 0
M  V30 11 C 2.220986 4.011378 -1.688696 0
M  V30 12 N 2.930033 3.344794 -2.638892 0
M  V30 13 C 2.858101 2.003843 -2.669582 0
M  V30 14 C 2.084590 1.312882 -1.760948 0
M  V30 15 N -0.127523 2.090335 1.086105 0
M  V30 16 C -0.934382 1.574992 2.052459 0
M  V30 17 C -1.585331 2.393392 2.943510 0
M  V30 18 N -2.396199 1.882386 3.915556 0
M  V30 19 C -2.564677 0.530993 4.005320 0
M  V30 20 C -1.898800 -0.266081 3.097440 0
M  V30 21 C -1.071677 0.205061 2.101368 0
M  V30 22 H -1.043098 -4.920072 2.611613 0
M  V30 23 H 0.680184 -4.354197 2.535683 0
M  V30 24 H 0.226423 -5.994409 1.991305 0
M  V30 25 H -1.510863 -4.436491 0.396512 0
M  V30 26 H 0.075249 -5.049766 -0.104380 0
M  V30 27 H -0.217528 -2.699516 -0.623012 0
M  V30 28 H 2.012499 -2.715564 -0.404346 0
M  V30 29 H 1.762564 -2.063637 1.243455 0
M  V30 30 H 1.910202 -3.871537 0.944777 0
M  V30 31 H -1.235337 -2.541310 2.015863 0
M  V30 32 H 0.875752 -0.628319 -0.428491 0
M  V30 33 H 0.913260 3.965490 -0.051279 0
M  V30 34 H 2.296152 5.091688 -1.685580 0
M  V30 35 H 3.405349 1.443594 -3.407083 0
M  V30 36 H 2.053696 0.254295 -1.817659 0
M  V30 37 H -1.461160 3.481126 2.885623 0
M  V30 38 H -3.211234 0.170784 4.784661 0
M  V30 39 H -2.102520 -1.313021 3.259217 0
M  V30 END ATOM
M  V30 BEGIN BOND
M  V30 1 1 1 2
M  V30 2 1 2 3
M  V30 3 1 3 4
M  V30 4 1 3 5
M  V30 5 1 5 6
M  V30 6 2 6 7
M  V30 7 1 7 8
M  V30 8 1 8 9
M  V30 9 2 9 10
M  V30 10 1 10 11
M  V30 11 2 11 12
M  V30 12 1 12 13
M  V30 13 2 13 14
M  V30 14 2 8 15
M  V30 15 1 15 16
M  V30 16 2 16 17
M  V30 17 1 17 18
M  V30 18 2 18 19
M  V30 19 1 19 20
M  V30 20 2 20 21
M  V30 21 1 21 6
M  V30 22 1 14 9
M  V30 23 1 21 16
M  V30 24 1 1 22
M  V30 25 1 1 23
M  V30 26 1 1 24
M  V30 27 1 2 25
M  V30 28 1 2 26
M  V30 29 1 3 27 CFG=3
M  V30 30 1 4 28
M  V30 31 1 4 29
M  V30 32 1 4 30
M  V30 33 1 5 31
M  V30 34 1 7 32
M  V30 35 1 10 33
M  V30 36 1 11 34
M  V30 37 1 13 35
M  V30 38 1 14 36
M  V30 39 1 17 37
M  V30 40 1 19 38
M  V30 41 1 20 39
M  V30 END BOND
M  V30 END CTAB
M  END
>  <Dataset>  (484) 
ChEMBL_Kinases

>  <Ligand_Instance>  (484) 
nan

>  <PDB_ID>  (484) 
nan

>  <Standardized_SMILES>  (484) 
CC[C@H](C)Nc1cc(-c2ccncc2)nc2cnccc12

>  <Name>  (484) 
nan

>  <Pocket>  (484) 
nan

>  <ATP_Site>  (484) 
nan

>  <Peripheral>  (484) 
nan

>  <Num_H_Atoms_ProtBoundConf>  (484) 
nan

>  <Num_Resolved_Atoms>  (484) 
nan

>  <Num_Not_Resolved_Atoms>  (484) 
nan

$$$$
CHEMBL4641000
     RDKit          3D

  0  0  0  0  0  0  0  0  0  0999 V3000
M  V30 BEGIN CTAB
M  V30 COUNTS 51 54 0 0 0
M  V30 BEGIN ATOM
M  V30 1 C -0.019011 -2.209718 6.552660 0
M  V30 2 C 0.647666 -3.009181 5.438310 0
M  V30 3 C -0.272354 -4.180224 5.169938 0
M  V30 4 O 1.921321 -3.403300 5.830069 0
M  V30 5 C 0.793622 -2.229408 4.227729 0
M  V30 6 C 0.925472 -1.555287 3.216544 0
M  V30 7 C 1.067646 -0.745377 2.040835 0
M  V30 8 C 2.247353 -0.039669 1.881898 0
M  V30 9 C 2.370886 0.743001 0.743133 0
M  V30 10 C 1.346960 0.800245 -0.179330 0
M  V30 11 N 1.538572 1.620968 -1.323656 0
M  V30 12 C 1.759962 2.995204 -0.915994 0
M  V30 13 C 2.165951 3.882821 -2.063066 0
M  V30 14 O 1.287969 3.830169 -3.128529 0
M  V30 15 C 0.743873 2.582421 -3.344535 0
M  V30 16 C 1.574353 1.461738 -2.762274 0
M  V30 17 C 0.191412 0.077576 0.025691 0
M  V30 18 N -0.877684 0.122776 -0.904004 0
M  V30 19 C -2.057384 -0.635340 -0.664364 0
M  V30 20 N -3.133223 -0.238938 0.076193 0
M  V30 21 C -4.188153 -1.076092 0.209142 0
M  V30 22 N -4.204269 -2.300153 -0.375087 0
M  V30 23 C -3.155181 -2.726587 -1.116663 0
M  V30 24 N -2.921407 -3.867260 -1.790428 0
M  V30 25 C -1.699291 -3.821367 -2.393383 0
M  V30 26 C -1.182494 -2.595814 -2.062289 0
M  V30 27 C -2.065361 -1.878482 -1.262049 0
M  V30 28 C 0.008445 -0.717731 1.136208 0
M  V30 29 H 0.018049 -2.845858 7.460017 0
M  V30 30 H -1.072281 -2.010676 6.253943 0
M  V30 31 H 0.480694 -1.258539 6.765647 0
M  V30 32 H -1.128263 -3.796684 4.548397 0
M  V30 33 H 0.268299 -4.964633 4.598030 0
M  V30 34 H -0.662316 -4.617951 6.121382 0
M  V30 35 H 2.206697 -2.740291 6.521215 0
M  V30 36 H 3.015667 -0.121555 2.636008 0
M  V30 37 H 3.319607 1.278125 0.666158 0
M  V30 38 H 0.872038 3.367094 -0.379304 0
M  V30 39 H 2.609910 2.990394 -0.202729 0
M  V30 40 H 2.137567 4.928271 -1.663987 0
M  V30 41 H 3.185045 3.683921 -2.390569 0
M  V30 42 H -0.244949 2.559454 -2.893396 0
M  V30 43 H 0.654238 2.427776 -4.437036 0
M  V30 44 H 1.069262 0.521491 -3.098969 0
M  V30 45 H 2.603173 1.417116 -3.155242 0
M  V30 46 H -1.067397 0.595129 -1.797313 0
M  V30 47 H -4.992795 -0.666598 0.818317 0
M  V30 48 H -3.561712 -4.688676 -1.862278 0
M  V30 49 H -1.194204 -4.555066 -3.009243 0
M  V30 50 H -0.203662 -2.212763 -2.377306 0
M  V30 51 H -0.880617 -1.303185 1.340221 0
M  V30 END ATOM
M  V30 BEGIN BOND
M  V30 1 1 1 2
M  V30 2 1 2 3
M  V30 3 1 2 4
M  V30 4 1 2 5
M  V30 5 3 5 6
M  V30 6 1 6 7
M  V30 7 2 7 8
M  V30 8 1 8 9
M  V30 9 2 9 10
M  V30 10 1 10 11
M  V30 11 1 11 12
M  V30 12 1 12 13
M  V30 13 1 13 14
M  V30 14 1 14 15
M  V30 15 1 15 16
M  V30 16 1 10 17
M  V30 17 1 17 18
M  V30 18 1 18 19
M  V30 19 2 19 20
M  V30 20 1 20 21
M  V30 21 2 21 22
M  V30 22 1 22 23
M  V30 23 1 23 24
M  V30 24 1 24 25
M  V30 25 2 25 26
M  V30 26 1 26 27
M  V30 27 2 17 28
M  V30 28 1 28 7
M  V30 29 1 16 11
M  V30 30 1 27 19
M  V30 31 2 27 23
M  V30 32 1 1 29
M  V30 33 1 1 30
M  V30 34 1 1 31
M  V30 35 1 3 32
M  V30 36 1 3 33
M  V30 37 1 3 34
M  V30 38 1 4 35
M  V30 39 1 8 36
M  V30 40 1 9 37
M  V30 41 1 12 38
M  V30 42 1 12 39
M  V30 43 1 13 40
M  V30 44 1 13 41
M  V30 45 1 15 42
M  V30 46 1 15 43
M  V30 47 1 16 44
M  V30 48 1 16 45
M  V30 49 1 18 46
M  V30 50 1 21 47
M  V30 51 1 24 48
M  V30 52 1 25 49
M  V30 53 1 26 50
M  V30 54 1 28 51
M  V30 END BOND
M  V30 END CTAB
M  END
>  <Dataset>  (485) 
ChEMBL_Kinases

>  <Ligand_Instance>  (485) 
nan

>  <PDB_ID>  (485) 
nan

>  <Standardized_SMILES>  (485) 
CC(C)(O)C#Cc1ccc(N2CCOCC2)c(Nc2ncnc3[nH]ccc23)c1

>  <Name>  (485) 
nan

>  <Pocket>  (485) 
nan

>  <ATP_Site>  (485) 
nan

>  <Peripheral>  (485) 
nan

>  <Num_H_Atoms_ProtBoundConf>  (485) 
nan

>  <Num_Resolved_Atoms>  (485) 
nan

>  <Num_Not_Resolved_Atoms>  (485) 
nan

$$$$
CHEMBL4537919
     RDKit          3D

  0  0  0  0  0  0  0  0  0  0999 V3000
M  V30 BEGIN CTAB
M  V30 COUNTS 50 52 0 0 0
M  V30 BEGIN ATOM
M  V30 1 C 0.244991 -0.300435 4.210460 0
M  V30 2 C 0.923924 0.417414 3.107843 0
M  V30 3 C 2.148135 1.062574 3.307368 0
M  V30 4 C 2.775885 1.729230 2.277898 0
M  V30 5 C 2.228586 1.789543 1.013420 0
M  V30 6 C 2.796277 2.461156 -0.150343 0
M  V30 7 O 2.306237 2.517692 -1.286616 0
M  V30 8 N 4.031009 3.132509 -0.025659 0
M  V30 9 C 4.876082 3.877964 -0.902426 0 CFG=1
M  V30 10 C 5.052964 5.324877 -0.510474 0
M  V30 11 C 6.192565 3.258339 -1.114198 0
M  V30 12 N 6.448716 2.031430 -0.439112 0
M  V30 13 O 7.287285 3.445584 -1.745146 0
M  V30 14 C 1.013941 1.152131 0.806369 0
M  V30 15 C 0.387418 0.485839 1.836910 0
M  V30 16 N -0.875710 -0.155747 1.550343 0
M  V30 17 C -0.759496 -1.502100 1.111327 0
M  V30 18 O 0.318899 -2.135182 0.964950 0
M  V30 19 C -2.021671 -2.179720 0.812860 0
M  V30 20 C -3.289963 -1.810594 0.860717 0
M  V30 21 C -4.277084 -2.679744 0.514984 0
M  V30 22 C -3.880716 -3.938394 0.121387 0
M  V30 23 C -4.736564 -5.075302 -0.305245 0
M  V30 24 C -6.088947 -4.938648 -0.339232 0
M  V30 25 C -6.803786 -6.045448 -0.747546 0
M  V30 26 C -6.195243 -7.230163 -1.104125 0
M  V30 27 C -4.817828 -7.321988 -1.053847 0
M  V30 28 C -4.049752 -6.234770 -0.648895 0
M  V30 29 Cl -2.300935 -6.376125 -0.593466 0
M  V30 30 S -2.086878 -3.869677 0.249354 0
M  V30 31 H 0.276257 -1.404135 4.083013 0
M  V30 32 H -0.783889 0.060015 4.409646 0
M  V30 33 H 0.820984 -0.096769 5.150303 0
M  V30 34 H 2.625890 1.049542 4.277772 0
M  V30 35 H 3.721593 2.234889 2.407795 0
M  V30 36 H 4.593305 3.198660 0.836646 0
M  V30 37 H 4.375967 3.892658 -1.915099 0
M  V30 38 H 4.070342 5.849658 -0.457431 0
M  V30 39 H 5.690721 5.461012 0.370288 0
M  V30 40 H 5.574870 5.820968 -1.372939 0
M  V30 41 H 6.860766 1.195214 0.033372 0
M  V30 42 H 5.866894 1.243138 -0.044493 0
M  V30 43 H 0.533112 1.165429 -0.170678 0
M  V30 44 H -1.807574 0.313071 1.650887 0
M  V30 45 H -3.490304 -0.789337 1.187222 0
M  V30 46 H -5.346581 -2.450632 0.528084 0
M  V30 47 H -6.525728 -4.007270 -0.056480 0
M  V30 48 H -7.883843 -5.952948 -0.780108 0
M  V30 49 H -6.808964 -8.083533 -1.422534 0
M  V30 50 H -4.310643 -8.233310 -1.325860 0
M  V30 END ATOM
M  V30 BEGIN BOND
M  V30 1 1 1 2
M  V30 2 2 2 3
M  V30 3 1 3 4
M  V30 4 2 4 5
M  V30 5 1 5 6
M  V30 6 2 6 7
M  V30 7 1 6 8
M  V30 8 1 8 9
M  V30 9 1 9 10
M  V30 10 1 9 11
M  V30 11 1 11 12
M  V30 12 2 11 13
M  V30 13 1 5 14
M  V30 14 2 14 15
M  V30 15 1 15 16
M  V30 16 1 16 17
M  V30 17 2 17 18
M  V30 18 1 17 19
M  V30 19 2 19 20
M  V30 20 1 20 21
M  V30 21 2 21 22
M  V30 22 1 22 23
M  V30 23 2 23 24
M  V30 24 1 24 25
M  V30 25 2 25 26
M  V30 26 1 26 27
M  V30 27 2 27 28
M  V30 28 1 28 29
M  V30 29 1 22 30
M  V30 30 1 15 2
M  V30 31 1 30 19
M  V30 32 1 28 23
M  V30 33 1 1 31
M  V30 34 1 1 32
M  V30 35 1 1 33
M  V30 36 1 3 34
M  V30 37 1 4 35
M  V30 38 1 8 36
M  V30 39 1 9 37 CFG=3
M  V30 40 1 10 38
M  V30 41 1 10 39
M  V30 42 1 10 40
M  V30 43 1 12 41
M  V30 44 1 12 42
M  V30 45 1 14 43
M  V30 46 1 16 44
M  V30 47 1 20 45
M  V30 48 1 21 46
M  V30 49 1 24 47
M  V30 50 1 25 48
M  V30 51 1 26 49
M  V30 52 1 27 50
M  V30 END BOND
M  V30 END CTAB
M  END
>  <Dataset>  (486) 
ChEMBL_Kinases

>  <Ligand_Instance>  (486) 
nan

>  <PDB_ID>  (486) 
nan

>  <Standardized_SMILES>  (486) 
Cc1ccc(C(=O)N[C@@H](C)C(N)=O)cc1NC(=O)c1ccc(-c2ccccc2Cl)s1

>  <Name>  (486) 
nan

>  <Pocket>  (486) 
nan

>  <ATP_Site>  (486) 
nan

>  <Peripheral>  (486) 
nan

>  <Num_H_Atoms_ProtBoundConf>  (486) 
nan

>  <Num_Resolved_Atoms>  (486) 
nan

>  <Num_Not_Resolved_Atoms>  (486) 
nan

$$$$
CHEMBL4641082
     RDKit          3D

  0  0  0  0  0  0  0  0  0  0999 V3000
M  V30 BEGIN CTAB
M  V30 COUNTS 46 49 0 0 0
M  V30 BEGIN ATOM
M  V30 1 O 1.252287 2.040862 3.167071 0
M  V30 2 C 0.648595 1.416847 2.224721 0
M  V30 3 N 1.419736 0.270412 1.966057 0
M  V30 4 C 2.564816 0.239576 2.840126 0
M  V30 5 C 3.345775 -1.012296 2.510124 0
M  V30 6 C 2.495997 -2.260253 2.725219 0
M  V30 7 C 3.242930 -3.411059 2.087913 0
M  V30 8 O 4.584035 -3.102920 1.906289 0
M  V30 9 C 5.160880 -2.541922 3.052393 0
M  V30 10 C 4.553494 -1.198201 3.405308 0
M  V30 11 C -0.565560 1.997517 1.710817 0
M  V30 12 N -0.971756 3.159437 2.262810 0
M  V30 13 N -2.103571 3.550020 1.671291 0
M  V30 14 C -2.500537 2.691346 0.719077 0
M  V30 15 C -3.544122 2.589939 -0.171200 0
M  V30 16 C -3.609471 1.507074 -1.031776 0
M  V30 17 C -2.607791 0.558297 -0.959321 0
M  V30 18 C -2.692529 -0.572239 -1.871030 0
M  V30 19 C -2.446875 -1.781583 -1.285514 0
M  V30 20 C -2.485732 -2.968038 -2.009727 0
M  V30 21 C -2.779605 -2.938498 -3.360021 0
M  V30 22 C -3.028398 -1.710146 -3.951642 0
M  V30 23 F -3.327820 -1.589000 -5.284650 0
M  V30 24 C -2.987142 -0.535221 -3.221375 0
M  V30 25 F -3.219303 0.702117 -3.731286 0
M  V30 26 C -1.559598 0.646079 -0.075672 0
M  V30 27 C -1.521825 1.730528 0.764499 0
M  V30 28 H 1.027521 -0.311845 1.220163 0
M  V30 29 H 2.296648 0.232602 3.916600 0
M  V30 30 H 3.234050 1.095603 2.666167 0
M  V30 31 H 3.710176 -0.993313 1.465304 0
M  V30 32 H 2.471926 -2.439411 3.819881 0
M  V30 33 H 1.477777 -2.119936 2.310574 0
M  V30 34 H 3.135990 -4.345141 2.694227 0
M  V30 35 H 2.836112 -3.639041 1.070502 0
M  V30 36 H 5.005809 -3.274670 3.870179 0
M  V30 37 H 6.252558 -2.490231 2.855901 0
M  V30 38 H 5.306971 -0.404001 3.315269 0
M  V30 39 H 4.268046 -1.231419 4.479398 0
M  V30 40 H -2.598431 4.426320 1.940253 0
M  V30 41 H -4.279778 3.379461 -0.154592 0
M  V30 42 H -4.431461 1.422541 -1.736248 0
M  V30 43 H -2.208317 -1.922139 -0.242975 0
M  V30 44 H -2.302958 -3.971238 -1.621661 0
M  V30 45 H -2.827186 -3.826020 -3.988302 0
M  V30 46 H -0.804067 -0.113271 -0.053242 0
M  V30 END ATOM
M  V30 BEGIN BOND
M  V30 1 2 1 2
M  V30 2 1 2 3
M  V30 3 1 3 4
M  V30 4 1 4 5
M  V30 5 1 5 6
M  V30 6 1 6 7
M  V30 7 1 7 8
M  V30 8 1 8 9
M  V30 9 1 9 10
M  V30 10 1 2 11
M  V30 11 2 11 12
M  V30 12 1 12 13
M  V30 13 1 13 14
M  V30 14 2 14 15
M  V30 15 1 15 16
M  V30 16 2 16 17
M  V30 17 1 17 18
M  V30 18 2 18 19
M  V30 19 1 19 20
M  V30 20 2 20 21
M  V30 21 1 21 22
M  V30 22 1 22 23
M  V30 23 2 22 24
M  V30 24 1 24 25
M  V30 25 1 17 26
M  V30 26 2 26 27
M  V30 27 1 10 5
M  V30 28 1 27 11
M  V30 29 1 27 14
M  V30 30 1 24 18
M  V30 31 1 3 28
M  V30 32 1 4 29
M  V30 33 1 4 30
M  V30 34 1 5 31
M  V30 35 1 6 32
M  V30 36 1 6 33
M  V30 37 1 7 34
M  V30 38 1 7 35
M  V30 39 1 9 36
M  V30 40 1 9 37
M  V30 41 1 10 38
M  V30 42 1 10 39
M  V30 43 1 13 40
M  V30 44 1 15 41
M  V30 45 1 16 42
M  V30 46 1 19 43
M  V30 47 1 20 44
M  V30 48 1 21 45
M  V30 49 1 26 46
M  V30 END BOND
M  V30 END CTAB
M  END
>  <Dataset>  (487) 
ChEMBL_Kinases

>  <Ligand_Instance>  (487) 
nan

>  <PDB_ID>  (487) 
nan

>  <Standardized_SMILES>  (487) 
O=C(NCC1CCOCC1)c1n[nH]c2ccc(-c3cccc(F)c3F)cc12

>  <Name>  (487) 
nan

>  <Pocket>  (487) 
nan

>  <ATP_Site>  (487) 
nan

>  <Peripheral>  (487) 
nan

>  <Num_H_Atoms_ProtBoundConf>  (487) 
nan

>  <Num_Resolved_Atoms>  (487) 
nan

>  <Num_Not_Resolved_Atoms>  (487) 
nan

$$$$
CHEMBL453848
     RDKit          3D

  0  0  0  0  0  0  0  0  0  0999 V3000
M  V30 BEGIN CTAB
M  V30 COUNTS 52 53 0 0 0
M  V30 BEGIN ATOM
M  V30 1 C 2.278248 -1.724716 3.381481 0
M  V30 2 C 2.541665 -0.307528 3.778770 0
M  V30 3 C 1.330630 0.340039 4.372227 0
M  V30 4 C 3.616764 -0.329423 4.875068 0
M  V30 5 C 3.146487 0.523389 2.660593 0
M  V30 6 C 2.257513 0.566234 1.480013 0
M  V30 7 O 1.290827 -0.165023 1.767672 0
M  V30 8 O 2.446195 1.257824 0.313432 0
M  V30 9 C 1.614752 1.308661 -0.803239 0
M  V30 10 C 0.297099 1.914277 -0.490802 0
M  V30 11 C 0.492563 3.335899 -0.044575 0
M  V30 12 O 1.197802 4.076789 -1.019688 0
M  V30 13 C -0.660156 1.844623 -1.687020 0
M  V30 14 C -1.142716 0.427604 -1.580803 0
M  V30 15 C -1.433356 -0.580582 -2.381636 0
M  V30 16 C -1.897037 -1.913234 -2.033207 0
M  V30 17 C -1.422876 -2.762653 -1.055678 0
M  V30 18 C -2.003383 -4.001387 -0.853378 0
M  V30 19 C -3.065739 -4.426073 -1.615013 0
M  V30 20 O -3.485591 -5.687904 -1.244382 0
M  V30 21 C -4.447984 -5.996645 -0.283263 0
M  V30 22 F -4.545450 -7.395154 -0.246234 0
M  V30 23 F -4.059778 -5.619876 1.009756 0
M  V30 24 F -5.669564 -5.436559 -0.531519 0
M  V30 25 C -3.553047 -3.588133 -2.598683 0
M  V30 26 C -2.967078 -2.354859 -2.792041 0
M  V30 27 C -1.309970 0.324965 -0.112182 0
M  V30 28 O -2.177280 -0.451919 0.430399 0
M  V30 29 O -0.389464 1.191001 0.484320 0
M  V30 30 H 2.828264 -2.013958 2.460660 0
M  V30 31 H 1.196796 -1.971157 3.283092 0
M  V30 32 H 2.652458 -2.396736 4.177766 0
M  V30 33 H 0.382320 0.025076 3.902629 0
M  V30 34 H 1.326011 0.141803 5.470842 0
M  V30 35 H 1.475882 1.442614 4.280352 0
M  V30 36 H 4.311751 -1.168653 4.581551 0
M  V30 37 H 3.089876 -0.666555 5.797711 0
M  V30 38 H 4.124916 0.632310 4.960805 0
M  V30 39 H 4.155406 0.104149 2.424043 0
M  V30 40 H 3.340994 1.532428 3.076145 0
M  V30 41 H 2.156324 1.963426 -1.545215 0
M  V30 42 H 1.536198 0.325238 -1.328527 0
M  V30 43 H 1.072221 3.413164 0.890529 0
M  V30 44 H -0.481217 3.836034 0.164040 0
M  V30 45 H 0.799476 4.987860 -1.025860 0
M  V30 46 H -1.514265 2.500186 -1.440904 0
M  V30 47 H -0.189703 2.072066 -2.635617 0
M  V30 48 H -1.278896 -0.290656 -3.433709 0
M  V30 49 H -0.578954 -2.397819 -0.487609 0
M  V30 50 H -1.517582 -4.560580 -0.041344 0
M  V30 51 H -4.387359 -4.007893 -3.143783 0
M  V30 52 H -3.416648 -1.768531 -3.584296 0
M  V30 END ATOM
M  V30 BEGIN BOND
M  V30 1 1 1 2
M  V30 2 1 2 3
M  V30 3 1 2 4
M  V30 4 1 2 5
M  V30 5 1 5 6
M  V30 6 2 6 7
M  V30 7 1 6 8
M  V30 8 1 8 9
M  V30 9 1 9 10
M  V30 10 1 10 11
M  V30 11 1 11 12
M  V30 12 1 10 13
M  V30 13 1 13 14
M  V30 14 2 14 15
M  V30 15 1 15 16
M  V30 16 2 16 17
M  V30 17 1 17 18
M  V30 18 2 18 19
M  V30 19 1 19 20
M  V30 20 1 20 21
M  V30 21 1 21 22
M  V30 22 1 21 23
M  V30 23 1 21 24
M  V30 24 1 19 25
M  V30 25 2 25 26
M  V30 26 1 14 27
M  V30 27 2 27 28
M  V30 28 1 27 29
M  V30 29 1 29 10
M  V30 30 1 26 16
M  V30 31 1 1 30
M  V30 32 1 1 31
M  V30 33 1 1 32
M  V30 34 1 3 33
M  V30 35 1 3 34
M  V30 36 1 3 35
M  V30 37 1 4 36
M  V30 38 1 4 37
M  V30 39 1 4 38
M  V30 40 1 5 39
M  V30 41 1 5 40
M  V30 42 1 9 41
M  V30 43 1 9 42
M  V30 44 1 11 43
M  V30 45 1 11 44
M  V30 46 1 12 45
M  V30 47 1 13 46
M  V30 48 1 13 47
M  V30 49 1 15 48
M  V30 50 1 17 49
M  V30 51 1 18 50
M  V30 52 1 25 51
M  V30 53 1 26 52
M  V30 END BOND
M  V30 END CTAB
M  END
>  <Dataset>  (488) 
ChEMBL_Kinases

>  <Ligand_Instance>  (488) 
nan

>  <PDB_ID>  (488) 
nan

>  <Standardized_SMILES>  (488) 
CC(C)(C)CC(=O)OCC1(CO)C/C(=C/c2ccc(OC(F)(F)F)cc2)C(=O)O1

>  <Name>  (488) 
nan

>  <Pocket>  (488) 
nan

>  <ATP_Site>  (488) 
nan

>  <Peripheral>  (488) 
nan

>  <Num_H_Atoms_ProtBoundConf>  (488) 
nan

>  <Num_Resolved_Atoms>  (488) 
nan

>  <Num_Not_Resolved_Atoms>  (488) 
nan

$$$$
CHEMBL4538461
     RDKit          3D

  0  0  0  0  0  0  0  0  0  0999 V3000
M  V30 BEGIN CTAB
M  V30 COUNTS 37 39 0 0 0
M  V30 BEGIN ATOM
M  V30 1 C 3.602800 -6.364425 3.376519 0
M  V30 2 O 2.408930 -6.470131 2.614477 0
M  V30 3 C 2.038806 -5.398305 1.836456 0
M  V30 4 O 2.834421 -4.399268 1.888842 0
M  V30 5 N 0.860757 -5.340309 1.004916 0
M  V30 6 C 0.655045 -4.127624 0.269863 0
M  V30 7 N -0.033123 -3.065481 0.727482 0
M  V30 8 C -0.054490 -2.077778 -0.188218 0
M  V30 9 C -0.620261 -0.824995 -0.181655 0
M  V30 10 C -0.456579 -0.037839 -1.303251 0
M  V30 11 O -1.050207 1.237709 -1.258449 0
M  V30 12 S -0.093992 2.526778 -0.639899 0
M  V30 13 O 1.176340 2.004311 -0.030378 0
M  V30 14 O 0.263798 3.433570 -1.788914 0
M  V30 15 C -0.965558 3.478989 0.532373 0
M  V30 16 C -1.726065 4.590156 0.150888 0
M  V30 17 Cl -1.820753 5.052970 -1.521871 0
M  V30 18 C -2.373136 5.269049 1.161463 0
M  V30 19 C -2.350880 4.970663 2.504453 0
M  V30 20 C -1.596983 3.873180 2.862438 0
M  V30 21 C -0.924230 3.151235 1.892432 0
M  V30 22 Cl 0.047547 1.742509 2.323820 0
M  V30 23 C 0.250295 -0.445285 -2.439110 0
M  V30 24 C 0.790028 -1.713697 -2.373996 0
M  V30 25 C 0.666398 -2.555256 -1.286258 0
M  V30 26 N 1.074309 -3.793789 -0.964387 0
M  V30 27 H 4.178979 -7.323376 3.389629 0
M  V30 28 H 4.305479 -5.616677 2.905781 0
M  V30 29 H 3.440422 -6.023189 4.412513 0
M  V30 30 H 0.263956 -6.196390 1.017959 0
M  V30 31 H -1.168632 -0.471060 0.662660 0
M  V30 32 H -2.976446 6.145372 0.884618 0
M  V30 33 H -2.887609 5.556460 3.229255 0
M  V30 34 H -1.511706 3.551529 3.892281 0
M  V30 35 H 0.356385 0.202732 -3.300307 0
M  V30 36 H 1.357770 -2.090883 -3.237659 0
M  V30 37 H 1.635833 -4.407881 -1.583792 0
M  V30 END ATOM
M  V30 BEGIN BOND
M  V30 1 1 1 2
M  V30 2 1 2 3
M  V30 3 2 3 4
M  V30 4 1 3 5
M  V30 5 1 5 6
M  V30 6 2 6 7
M  V30 7 1 7 8
M  V30 8 2 8 9
M  V30 9 1 9 10
M  V30 10 1 10 11
M  V30 11 1 11 12
M  V30 12 2 12 13
M  V30 13 2 12 14
M  V30 14 1 12 15
M  V30 15 2 15 16
M  V30 16 1 16 17
M  V30 17 1 16 18
M  V30 18 2 18 19
M  V30 19 1 19 20
M  V30 20 2 20 21
M  V30 21 1 21 22
M  V30 22 2 10 23
M  V30 23 1 23 24
M  V30 24 2 24 25
M  V30 25 1 25 26
M  V30 26 1 26 6
M  V30 27 1 25 8
M  V30 28 1 21 15
M  V30 29 1 1 27
M  V30 30 1 1 28
M  V30 31 1 1 29
M  V30 32 1 5 30
M  V30 33 1 9 31
M  V30 34 1 18 32
M  V30 35 1 19 33
M  V30 36 1 20 34
M  V30 37 1 23 35
M  V30 38 1 24 36
M  V30 39 1 26 37
M  V30 END BOND
M  V30 END CTAB
M  END
>  <Dataset>  (489) 
ChEMBL_Kinases

>  <Ligand_Instance>  (489) 
nan

>  <PDB_ID>  (489) 
nan

>  <Standardized_SMILES>  (489) 
COC(=O)Nc1nc2cc(OS(=O)(=O)c3c(Cl)cccc3Cl)ccc2[nH]1

>  <Name>  (489) 
nan

>  <Pocket>  (489) 
nan

>  <ATP_Site>  (489) 
nan

>  <Peripheral>  (489) 
nan

>  <Num_H_Atoms_ProtBoundConf>  (489) 
nan

>  <Num_Resolved_Atoms>  (489) 
nan

>  <Num_Not_Resolved_Atoms>  (489) 
nan

$$$$
CHEMBL4538448
     RDKit          3D

  0  0  0  0  0  0  0  0  0  0999 V3000
M  V30 BEGIN CTAB
M  V30 COUNTS 32 34 0 0 0
M  V30 BEGIN ATOM
M  V30 1 N 1.898749 -5.123997 6.218084 0
M  V30 2 C 1.602631 -4.866837 5.120972 0
M  V30 3 C 1.256867 -4.552598 3.762138 0
M  V30 4 C 1.013878 -5.537776 2.815143 0
M  V30 5 C 0.675495 -5.217203 1.506337 0
M  V30 6 C 0.563874 -3.903165 1.088037 0
M  V30 7 N 0.204985 -3.455110 -0.216372 0
M  V30 8 C 0.265113 -2.050236 -0.421740 0
M  V30 9 N -0.813311 -1.485727 0.169132 0
M  V30 10 C -1.054740 -0.160029 0.165028 0
M  V30 11 C -0.151739 0.695863 -0.480576 0
M  V30 12 C -0.378593 2.130497 -0.495022 0
M  V30 13 C 0.590721 3.107615 -0.518054 0
M  V30 14 C 0.390723 4.468103 -0.526501 0
M  V30 15 C -0.933157 4.850237 -0.509270 0
M  V30 16 C -2.035040 3.992167 -0.485620 0
M  V30 17 C -1.679374 2.658517 -0.479978 0
M  V30 18 C 0.942152 0.093116 -1.077316 0
M  V30 19 N 1.157766 -1.241836 -1.056324 0
M  V30 20 C 0.827820 -2.989299 2.116273 0
M  V30 21 N 1.157549 -3.252541 3.388597 0
M  V30 22 H 1.088128 -6.581843 3.097609 0
M  V30 23 H 0.482490 -5.975405 0.739591 0
M  V30 24 H -0.076656 -4.179482 -0.920369 0
M  V30 25 H -1.893398 0.332032 0.620227 0
M  V30 26 H 1.618765 2.761038 -0.529774 0
M  V30 27 H 1.200217 5.179585 -0.544833 0
M  V30 28 H -1.120917 5.935503 -0.515125 0
M  V30 29 H -3.049860 4.316690 -0.471566 0
M  V30 30 H -2.501882 1.953859 -0.461069 0
M  V30 31 H 1.676783 0.681994 -1.593216 0
M  V30 32 H 0.771849 -1.928030 1.902929 0
M  V30 END ATOM
M  V30 BEGIN BOND
M  V30 1 3 1 2
M  V30 2 1 2 3
M  V30 3 2 3 4
M  V30 4 1 4 5
M  V30 5 2 5 6
M  V30 6 1 6 7
M  V30 7 1 7 8
M  V30 8 2 8 9
M  V30 9 1 9 10
M  V30 10 2 10 11
M  V30 11 1 11 12
M  V30 12 2 12 13
M  V30 13 1 13 14
M  V30 14 2 14 15
M  V30 15 1 15 16
M  V30 16 2 16 17
M  V30 17 1 11 18
M  V30 18 2 18 19
M  V30 19 1 6 20
M  V30 20 2 20 21
M  V30 21 1 21 3
M  V30 22 1 19 8
M  V30 23 1 17 12
M  V30 24 1 4 22
M  V30 25 1 5 23
M  V30 26 1 7 24
M  V30 27 1 10 25
M  V30 28 1 13 26
M  V30 29 1 14 27
M  V30 30 1 15 28
M  V30 31 1 16 29
M  V30 32 1 17 30
M  V30 33 1 18 31
M  V30 34 1 20 32
M  V30 END BOND
M  V30 END CTAB
M  END
>  <Dataset>  (490) 
ChEMBL_Kinases

>  <Ligand_Instance>  (490) 
nan

>  <PDB_ID>  (490) 
nan

>  <Standardized_SMILES>  (490) 
N#Cc1ccc(Nc2ncc(-c3ccccc3)cn2)cn1

>  <Name>  (490) 
nan

>  <Pocket>  (490) 
nan

>  <ATP_Site>  (490) 
nan

>  <Peripheral>  (490) 
nan

>  <Num_H_Atoms_ProtBoundConf>  (490) 
nan

>  <Num_Resolved_Atoms>  (490) 
nan

>  <Num_Not_Resolved_Atoms>  (490) 
nan

$$$$
CHEMBL4538177
     RDKit          3D

  0  0  0  0  0  0  0  0  0  0999 V3000
M  V30 BEGIN CTAB
M  V30 COUNTS 32 33 0 0 0
M  V30 BEGIN ATOM
M  V30 1 C -0.859478 -2.304460 3.305710 0
M  V30 2 C -0.705891 -3.394741 2.280873 0
M  V30 3 C -0.963525 -4.773792 2.768400 0
M  V30 4 N 0.571660 -3.233317 1.585158 0
M  V30 5 C 0.600073 -2.027743 0.739785 0
M  V30 6 S 0.576501 -0.328111 1.123612 0
M  V30 7 C 0.650147 0.218957 -0.668006 0
M  V30 8 C 0.634531 1.623937 -1.068767 0
M  V30 9 O 0.591523 1.863627 -2.289996 0
M  V30 10 C 0.663337 2.695208 -0.181300 0
M  V30 11 C 0.592908 4.008689 -0.435310 0
M  V30 12 C 0.652737 4.903014 0.586064 0
M  V30 13 Cl 0.578910 6.654401 0.465056 0
M  V30 14 C 0.792490 4.368857 1.938360 0
M  V30 15 S 0.832658 2.496315 1.641780 0
M  V30 16 C 0.686244 -0.961060 -1.359437 0
M  V30 17 N 0.759460 -0.770782 -2.786958 0
M  V30 18 C 0.658798 -2.111456 -0.612339 0
M  V30 19 C 0.701895 -3.375688 -1.360272 0
M  V30 20 N 0.732426 -4.404045 -1.946105 0
M  V30 21 H 0.087712 -2.096163 3.844182 0
M  V30 22 H -1.589589 -2.669316 4.064572 0
M  V30 23 H -1.251428 -1.350583 2.904094 0
M  V30 24 H -1.506181 -3.183269 1.505157 0
M  V30 25 H -1.844273 -5.267924 2.264175 0
M  V30 26 H -1.221212 -4.700986 3.857239 0
M  V30 27 H -0.108596 -5.459385 2.568271 0
M  V30 28 H 1.377920 -3.882594 1.662407 0
M  V30 29 H 0.489504 4.393861 -1.437268 0
M  V30 30 H 0.855915 4.980961 2.907437 0
M  V30 31 H -0.176195 -0.628403 -3.223923 0
M  V30 32 H -0.163095 -0.628306 -3.235278 0
M  V30 END ATOM
M  V30 BEGIN BOND
M  V30 1 1 1 2
M  V30 2 1 2 3
M  V30 3 1 2 4
M  V30 4 1 4 5
M  V30 5 1 5 6
M  V30 6 1 6 7
M  V30 7 1 7 8
M  V30 8 2 8 9
M  V30 9 1 8 10
M  V30 10 2 10 11
M  V30 11 1 11 12
M  V30 12 1 12 13
M  V30 13 2 12 14
M  V30 14 1 14 15
M  V30 15 2 7 16
M  V30 16 1 16 17
M  V30 17 1 16 18
M  V30 18 1 18 19
M  V30 19 3 19 20
M  V30 20 2 18 5
M  V30 21 1 15 10
M  V30 22 1 1 21
M  V30 23 1 1 22
M  V30 24 1 1 23
M  V30 25 1 2 24
M  V30 26 1 3 25
M  V30 27 1 3 26
M  V30 28 1 3 27
M  V30 29 1 4 28
M  V30 30 1 11 29
M  V30 31 1 14 30
M  V30 32 1 17 31
M  V30 33 1 17 32
M  V30 END BOND
M  V30 END CTAB
M  END
>  <Dataset>  (491) 
ChEMBL_Kinases

>  <Ligand_Instance>  (491) 
nan

>  <PDB_ID>  (491) 
nan

>  <Standardized_SMILES>  (491) 
CC(C)Nc1sc(C(=O)c2cc(Cl)cs2)c(N)c1C#N

>  <Name>  (491) 
nan

>  <Pocket>  (491) 
nan

>  <ATP_Site>  (491) 
nan

>  <Peripheral>  (491) 
nan

>  <Num_H_Atoms_ProtBoundConf>  (491) 
nan

>  <Num_Resolved_Atoms>  (491) 
nan

>  <Num_Not_Resolved_Atoms>  (491) 
nan

$$$$
CHEMBL4641090
     RDKit          3D

  0  0  0  0  0  0  0  0  0  0999 V3000
M  V30 BEGIN CTAB
M  V30 COUNTS 56 58 0 0 0
M  V30 BEGIN ATOM
M  V30 1 C 0.714572 -0.060641 4.940205 0
M  V30 2 C 0.365650 -1.508063 4.560506 0
M  V30 3 C 1.551104 -2.426523 4.637614 0
M  V30 4 N -0.311336 -1.522302 3.270146 0
M  V30 5 C 0.195748 -1.046178 2.031675 0
M  V30 6 C 1.459920 -0.510830 2.011986 0
M  V30 7 C 1.999865 -0.006705 0.833568 0
M  V30 8 N 3.297541 0.581974 0.637752 0
M  V30 9 C 3.434998 1.858651 -0.024664 0
M  V30 10 C 4.680882 2.408202 -0.263140 0
M  V30 11 C 4.872818 3.630379 -0.873309 0
M  V30 12 N 3.759369 4.287326 -1.238855 0
M  V30 13 N 3.576036 5.471979 -1.840597 0
M  V30 14 C 2.241531 5.699773 -1.993868 0
M  V30 15 C 1.542792 4.605304 -1.465128 0
M  V30 16 C 2.538231 3.771442 -1.016352 0
M  V30 17 N 2.335780 2.557350 -0.411310 0
M  V30 18 N 1.209435 -0.080983 -0.264918 0
M  V30 19 C -0.019639 -0.605432 -0.239158 0
M  V30 20 C -0.593081 -1.115154 0.901958 0
M  V30 21 C -1.911596 -1.697866 0.830993 0
M  V30 22 O -2.629039 -2.389755 1.576812 0
M  V30 23 N -2.726106 -1.522402 -0.328820 0
M  V30 24 C -4.027023 -2.021072 -0.563006 0
M  V30 25 C -4.217196 -3.494097 -0.625252 0 CFG=1
M  V30 26 F -5.595655 -3.682739 -0.861717 0
M  V30 27 C -3.447109 -4.209169 -1.699031 0
M  V30 28 C -1.958139 -4.082304 -1.603835 0
M  V30 29 C -3.843420 -3.753121 -3.092120 0
M  V30 30 O -3.772340 -5.565228 -1.633072 0
M  V30 31 H 1.783067 0.025477 5.189588 0
M  V30 32 H 0.392979 0.581446 4.077239 0
M  V30 33 H 0.133708 0.302788 5.811192 0
M  V30 34 H -0.331420 -1.833747 5.362878 0
M  V30 35 H 1.528080 -3.096279 5.553420 0
M  V30 36 H 1.595489 -3.161258 3.790871 0
M  V30 37 H 2.517369 -1.872066 4.717499 0
M  V30 38 H -1.264614 -1.935623 3.311121 0
M  V30 39 H 2.138464 -0.427655 2.841461 0
M  V30 40 H 4.155886 0.104530 0.963442 0
M  V30 41 H 5.523500 1.814866 0.064692 0
M  V30 42 H 5.873872 4.028078 -1.041712 0
M  V30 43 H 1.793332 6.570903 -2.445624 0
M  V30 44 H 0.448188 4.512242 -1.452321 0
M  V30 45 H -0.464616 -0.559942 -1.240308 0
M  V30 46 H -2.378835 -0.951780 -1.169837 0
M  V30 47 H -4.551738 -1.439306 -1.371786 0
M  V30 48 H -4.652003 -1.709267 0.357943 0
M  V30 49 H -4.014511 -3.931422 0.357402 0
M  V30 50 H -1.563770 -3.202369 -2.142829 0
M  V30 51 H -1.499492 -4.998461 -2.091103 0
M  V30 52 H -1.670793 -4.150491 -0.553991 0
M  V30 53 H -4.922993 -3.557570 -3.192375 0
M  V30 54 H -3.603129 -4.595458 -3.779757 0
M  V30 55 H -3.190788 -2.921305 -3.445389 0
M  V30 56 H -3.876323 -5.974007 -2.543935 0
M  V30 END ATOM
M  V30 BEGIN BOND
M  V30 1 1 1 2
M  V30 2 1 2 3
M  V30 3 1 2 4
M  V30 4 1 4 5
M  V30 5 2 5 6
M  V30 6 1 6 7
M  V30 7 1 7 8
M  V30 8 1 8 9
M  V30 9 1 9 10
M  V30 10 2 10 11
M  V30 11 1 11 12
M  V30 12 1 12 13
M  V30 13 2 13 14
M  V30 14 1 14 15
M  V30 15 2 15 16
M  V30 16 1 16 17
M  V30 17 2 7 18
M  V30 18 1 18 19
M  V30 19 2 19 20
M  V30 20 1 20 21
M  V30 21 2 21 22
M  V30 22 1 21 23
M  V30 23 1 23 24
M  V30 24 1 24 25
M  V30 25 1 25 26
M  V30 26 1 25 27
M  V30 27 1 27 28
M  V30 28 1 27 29
M  V30 29 1 27 30
M  V30 30 1 20 5
M  V30 31 2 17 9
M  V30 32 1 16 12
M  V30 33 1 1 31
M  V30 34 1 1 32
M  V30 35 1 1 33
M  V30 36 1 2 34
M  V30 37 1 3 35
M  V30 38 1 3 36
M  V30 39 1 3 37
M  V30 40 1 4 38
M  V30 41 1 6 39
M  V30 42 1 8 40
M  V30 43 1 10 41
M  V30 44 1 11 42
M  V30 45 1 14 43
M  V30 46 1 15 44
M  V30 47 1 19 45
M  V30 48 1 23 46
M  V30 49 1 24 47
M  V30 50 1 24 48
M  V30 51 1 25 49 CFG=1
M  V30 52 1 28 50
M  V30 53 1 28 51
M  V30 54 1 28 52
M  V30 55 1 29 53
M  V30 56 1 29 54
M  V30 57 1 29 55
M  V30 58 1 30 56
M  V30 END BOND
M  V30 END CTAB
M  END
>  <Dataset>  (492) 
ChEMBL_Kinases

>  <Ligand_Instance>  (492) 
nan

>  <PDB_ID>  (492) 
nan

>  <Standardized_SMILES>  (492) 
CC(C)Nc1cc(Nc2ccn3nccc3n2)ncc1C(=O)NC[C@@H](F)C(C)(C)O

>  <Name>  (492) 
nan

>  <Pocket>  (492) 
nan

>  <ATP_Site>  (492) 
nan

>  <Peripheral>  (492) 
nan

>  <Num_H_Atoms_ProtBoundConf>  (492) 
nan

>  <Num_Resolved_Atoms>  (492) 
nan

>  <Num_Not_Resolved_Atoms>  (492) 
nan

$$$$
CHEMBL4538136
     RDKit          3D

  0  0  0  0  0  0  0  0  0  0999 V3000
M  V30 BEGIN CTAB
M  V30 COUNTS 51 55 0 0 0
M  V30 BEGIN ATOM
M  V30 1 C 1.579803 -3.723567 6.028962 0
M  V30 2 O 1.932570 -3.491641 4.679442 0
M  V30 3 C 2.131633 -2.181225 4.277074 0
M  V30 4 C 2.052060 -0.988214 4.962414 0
M  V30 5 C 2.295249 0.204545 4.345051 0
M  V30 6 C 2.630312 0.232571 3.001485 0
M  V30 7 C 2.723007 -0.936549 2.270499 0
M  V30 8 N 3.070385 -0.869551 0.892629 0
M  V30 9 C 3.294215 0.425539 0.350243 0
M  V30 10 N 4.545074 0.891993 0.442959 0
M  V30 11 C 4.976570 2.080127 0.000133 0
M  V30 12 N 4.045717 2.849487 -0.584834 0
M  V30 13 C 2.811870 2.441572 -0.700438 0
M  V30 14 S 1.337290 3.191695 -1.412094 0
M  V30 15 C 0.219157 1.897390 -1.090124 0
M  V30 16 C 1.048256 0.846933 -0.399318 0
M  V30 17 C 2.348569 1.221383 -0.250696 0
M  V30 18 C 0.193695 -0.316935 -0.076833 0
M  V30 19 C -0.752174 -0.567104 -1.244289 0
M  V30 20 N -1.726512 0.469994 -1.321519 0
M  V30 21 C -2.834124 0.204487 -2.172531 0
M  V30 22 C -3.629489 -0.971821 -1.804395 0
M  V30 23 C -3.352813 -2.228064 -2.292728 0
M  V30 24 C -4.122663 -3.328755 -1.928033 0
M  V30 25 C -5.175004 -3.112622 -1.057352 0
M  V30 26 C -5.451020 -1.848968 -0.567912 0
M  V30 27 C -4.678269 -0.741351 -0.933406 0
M  V30 28 C -1.216569 1.795624 -1.398524 0
M  V30 29 C 2.470735 -2.146734 2.919047 0
M  V30 30 H 0.892409 -2.941237 6.350813 0
M  V30 31 H 1.059847 -4.716993 6.027164 0
M  V30 32 H 2.470110 -3.785814 6.696328 0
M  V30 33 H 1.784302 -1.146880 5.996203 0
M  V30 34 H 2.207116 1.080914 4.968022 0
M  V30 35 H 2.812306 1.212933 2.567457 0
M  V30 36 H 3.145181 -1.764574 0.343948 0
M  V30 37 H 5.990683 2.433117 0.086918 0
M  V30 38 H -0.434968 -0.122538 0.815562 0
M  V30 39 H 0.787979 -1.222008 0.133393 0
M  V30 40 H -0.109005 -0.504721 -2.152253 0
M  V30 41 H -1.171240 -1.568038 -1.183041 0
M  V30 42 H -2.439616 0.027671 -3.213864 0
M  V30 43 H -3.447225 1.127054 -2.248062 0
M  V30 44 H -2.531054 -2.404213 -2.974509 0
M  V30 45 H -3.919152 -4.324289 -2.302478 0
M  V30 46 H -5.810744 -3.955670 -0.742336 0
M  V30 47 H -6.269559 -1.686160 0.107717 0
M  V30 48 H -4.947912 0.222040 -0.513561 0
M  V30 49 H -1.815953 2.493117 -0.760666 0
M  V30 50 H -1.345255 2.130138 -2.459731 0
M  V30 51 H 2.571923 -3.010795 2.246725 0
M  V30 END ATOM
M  V30 BEGIN BOND
M  V30 1 1 1 2
M  V30 2 1 2 3
M  V30 3 2 3 4
M  V30 4 1 4 5
M  V30 5 2 5 6
M  V30 6 1 6 7
M  V30 7 1 7 8
M  V30 8 1 8 9
M  V30 9 2 9 10
M  V30 10 1 10 11
M  V30 11 2 11 12
M  V30 12 1 12 13
M  V30 13 1 13 14
M  V30 14 1 14 15
M  V30 15 2 15 16
M  V30 16 1 16 17
M  V30 17 1 16 18
M  V30 18 1 18 19
M  V30 19 1 19 20
M  V30 20 1 20 21
M  V30 21 1 21 22
M  V30 22 2 22 23
M  V30 23 1 23 24
M  V30 24 2 24 25
M  V30 25 1 25 26
M  V30 26 2 26 27
M  V30 27 1 20 28
M  V30 28 2 7 29
M  V30 29 1 29 3
M  V30 30 1 17 9
M  V30 31 1 27 22
M  V30 32 2 17 13
M  V30 33 1 28 15
M  V30 34 1 1 30
M  V30 35 1 1 31
M  V30 36 1 1 32
M  V30 37 1 4 33
M  V30 38 1 5 34
M  V30 39 1 6 35
M  V30 40 1 8 36
M  V30 41 1 11 37
M  V30 42 1 18 38
M  V30 43 1 18 39
M  V30 44 1 19 40
M  V30 45 1 19 41
M  V30 46 1 21 42
M  V30 47 1 21 43
M  V30 48 1 23 44
M  V30 49 1 24 45
M  V30 50 1 25 46
M  V30 51 1 26 47
M  V30 52 1 27 48
M  V30 53 1 28 49
M  V30 54 1 28 50
M  V30 55 1 29 51
M  V30 END BOND
M  V30 END CTAB
M  END
>  <Dataset>  (493) 
ChEMBL_Kinases

>  <Ligand_Instance>  (493) 
nan

>  <PDB_ID>  (493) 
nan

>  <Standardized_SMILES>  (493) 
COc1cccc(Nc2ncnc3sc4c(c23)CCN(Cc2ccccc2)C4)c1

>  <Name>  (493) 
nan

>  <Pocket>  (493) 
nan

>  <ATP_Site>  (493) 
nan

>  <Peripheral>  (493) 
nan

>  <Num_H_Atoms_ProtBoundConf>  (493) 
nan

>  <Num_Resolved_Atoms>  (493) 
nan

>  <Num_Not_Resolved_Atoms>  (493) 
nan

$$$$
CHEMBL4641105
     RDKit          3D

  0  0  0  0  0  0  0  0  0  0999 V3000
M  V30 BEGIN CTAB
M  V30 COUNTS 52 55 0 0 0
M  V30 BEGIN ATOM
M  V30 1 C -0.563914 -3.853638 5.906437 0
M  V30 2 C 0.727895 -4.400286 5.393886 0
M  V30 3 C 1.202899 -3.722879 4.161455 0
M  V30 4 C 2.020567 -2.611736 4.143682 0
M  V30 5 C 2.433668 -2.024468 2.958673 0
M  V30 6 C 2.028504 -2.548294 1.748770 0
M  V30 7 N 2.365425 -2.067282 0.452346 0
M  V30 8 C 2.440597 -0.809538 -0.012229 0
M  V30 9 C 2.806186 -0.802226 -1.338692 0
M  V30 10 C 3.028005 0.287939 -2.318956 0
M  V30 11 S 1.604115 0.745620 -3.282330 0
M  V30 12 C 0.284942 1.504928 -2.358228 0
M  V30 13 N 0.323205 1.709572 -1.091745 0
M  V30 14 C -0.801668 2.334454 -0.428742 0
M  V30 15 C -1.687144 1.271243 0.125976 0
M  V30 16 C -1.172142 0.195631 0.818723 0
M  V30 17 C -1.890415 -0.843364 1.373932 0
M  V30 18 C -3.260136 -0.782054 1.209337 0
M  V30 19 C -3.858798 0.257479 0.530772 0
M  V30 20 C -3.064793 1.256535 0.006400 0
M  V30 21 C -1.585804 3.232505 -1.340361 0
M  V30 22 C -1.960401 2.521173 -2.613509 0
M  V30 23 O -3.108447 2.438440 -3.173251 0
M  V30 24 N -0.818300 1.873216 -3.220928 0
M  V30 25 C -0.867839 1.628476 -4.664911 0
M  V30 26 N 2.946231 -2.126485 -1.643630 0
M  V30 27 N 2.682572 -2.860375 -0.575813 0
M  V30 28 C 1.200481 -3.673343 1.767827 0
M  V30 29 C 0.793506 -4.252186 2.952178 0
M  V30 30 H -0.329446 -3.055538 6.631132 0
M  V30 31 H -1.189061 -3.390010 5.111021 0
M  V30 32 H -1.105988 -4.645880 6.457184 0
M  V30 33 H 1.469640 -4.387365 6.209778 0
M  V30 34 H 0.538112 -5.489888 5.167645 0
M  V30 35 H 2.340339 -2.198058 5.091993 0
M  V30 36 H 3.066080 -1.164680 2.910183 0
M  V30 37 H 2.251084 0.083730 0.545352 0
M  V30 38 H 3.498492 1.156120 -1.786759 0
M  V30 39 H 3.827522 -0.061148 -3.031124 0
M  V30 40 H -0.467644 2.952725 0.435954 0
M  V30 41 H -0.100369 0.153949 0.946749 0
M  V30 42 H -1.362459 -1.645996 1.903835 0
M  V30 43 H -3.841978 -1.607216 1.649974 0
M  V30 44 H -4.934183 0.289599 0.411223 0
M  V30 45 H -3.565725 2.036948 -0.506566 0
M  V30 46 H -0.914918 4.099083 -1.621037 0
M  V30 47 H -2.447700 3.676595 -0.839149 0
M  V30 48 H -1.639043 0.832915 -4.824103 0
M  V30 49 H 0.139348 1.287387 -4.963795 0
M  V30 50 H -1.115243 2.558561 -5.177672 0
M  V30 51 H 0.846078 -4.134599 0.846996 0
M  V30 52 H 0.152405 -5.122839 2.927803 0
M  V30 END ATOM
M  V30 BEGIN BOND
M  V30 1 1 1 2
M  V30 2 1 2 3
M  V30 3 2 3 4
M  V30 4 1 4 5
M  V30 5 2 5 6
M  V30 6 1 6 7
M  V30 7 1 7 8
M  V30 8 2 8 9
M  V30 9 1 9 10
M  V30 10 1 10 11
M  V30 11 1 11 12
M  V30 12 2 12 13
M  V30 13 1 13 14
M  V30 14 1 14 15
M  V30 15 2 15 16
M  V30 16 1 16 17
M  V30 17 2 17 18
M  V30 18 1 18 19
M  V30 19 2 19 20
M  V30 20 1 14 21
M  V30 21 1 21 22
M  V30 22 2 22 23
M  V30 23 1 22 24
M  V30 24 1 24 25
M  V30 25 1 9 26
M  V30 26 2 26 27
M  V30 27 1 6 28
M  V30 28 2 28 29
M  V30 29 1 29 3
M  V30 30 1 27 7
M  V30 31 1 24 12
M  V30 32 1 20 15
M  V30 33 1 1 30
M  V30 34 1 1 31
M  V30 35 1 1 32
M  V30 36 1 2 33
M  V30 37 1 2 34
M  V30 38 1 4 35
M  V30 39 1 5 36
M  V30 40 1 8 37
M  V30 41 1 10 38
M  V30 42 1 10 39
M  V30 43 1 14 40
M  V30 44 1 16 41
M  V30 45 1 17 42
M  V30 46 1 18 43
M  V30 47 1 19 44
M  V30 48 1 20 45
M  V30 49 1 21 46
M  V30 50 1 21 47
M  V30 51 1 25 48
M  V30 52 1 25 49
M  V30 53 1 25 50
M  V30 54 1 28 51
M  V30 55 1 29 52
M  V30 END BOND
M  V30 END CTAB
M  END
>  <Dataset>  (494) 
ChEMBL_Kinases

>  <Ligand_Instance>  (494) 
nan

>  <PDB_ID>  (494) 
nan

>  <Standardized_SMILES>  (494) 
CCc1ccc(-n2cc(CSC3=NC(c4ccccc4)CC(=O)N3C)nn2)cc1

>  <Name>  (494) 
nan

>  <Pocket>  (494) 
nan

>  <ATP_Site>  (494) 
nan

>  <Peripheral>  (494) 
nan

>  <Num_H_Atoms_ProtBoundConf>  (494) 
nan

>  <Num_Resolved_Atoms>  (494) 
nan

>  <Num_Not_Resolved_Atoms>  (494) 
nan

$$$$
CHEMBL4641148
     RDKit          3D

  0  0  0  0  0  0  0  0  0  0999 V3000
M  V30 BEGIN CTAB
M  V30 COUNTS 49 52 0 0 0
M  V30 BEGIN ATOM
M  V30 1 O -0.077127 -0.949904 1.842844 0
M  V30 2 C 0.685991 -0.159165 1.210060 0
M  V30 3 N 2.022332 0.083694 1.641971 0
M  V30 4 C 2.528540 -0.590394 2.839161 0
M  V30 5 C 3.953180 -0.127583 3.012967 0
M  V30 6 C 4.798163 -0.492576 1.814936 0
M  V30 7 C 6.059906 0.344262 1.917536 0
M  V30 8 O 6.592645 0.272654 3.178630 0
M  V30 9 C 6.112518 -0.789622 3.932687 0
M  V30 10 C 4.625727 -0.622074 4.248318 0
M  V30 11 C 0.197649 0.531059 0.002097 0
M  V30 12 N 0.883760 1.408964 -0.779494 0
M  V30 13 N 0.101493 1.815790 -1.778809 0
M  V30 14 C -1.106031 1.236077 -1.699190 0
M  V30 15 C -2.298742 1.230410 -2.383964 0
M  V30 16 C -3.383748 0.452217 -1.969754 0
M  V30 17 C -3.304691 -0.356340 -0.839664 0
M  V30 18 C -4.564722 -1.033923 -0.630826 0
M  V30 19 C -5.700105 -0.246479 -0.512147 0
M  V30 20 N -6.942452 -0.729592 -0.291901 0
M  V30 21 C -7.154134 -2.044231 -0.171702 0
M  V30 22 C -6.032548 -2.834890 -0.288717 0
M  V30 23 C -4.737897 -2.390978 -0.514762 0
M  V30 24 C -3.600397 -3.323829 -0.650231 0
M  V30 25 O -3.306444 -3.414170 -2.032595 0
M  V30 26 C -2.107650 -0.343647 -0.160584 0
M  V30 27 C -1.046844 0.427625 -0.579724 0
M  V30 28 H 2.597045 0.757438 1.062850 0
M  V30 29 H 2.454878 -1.695467 2.740679 0
M  V30 30 H 1.948603 -0.303040 3.735196 0
M  V30 31 H 3.916056 0.983043 3.055734 0
M  V30 32 H 4.346023 -0.257700 0.847139 0
M  V30 33 H 5.028530 -1.582455 1.787041 0
M  V30 34 H 6.783902 0.110707 1.112191 0
M  V30 35 H 5.745318 1.403638 1.749423 0
M  V30 36 H 6.327528 -1.784980 3.503315 0
M  V30 37 H 6.650618 -0.746571 4.902161 0
M  V30 38 H 4.575807 0.161255 5.059128 0
M  V30 39 H 4.253572 -1.579862 4.632674 0
M  V30 40 H 0.345888 2.496993 -2.552502 0
M  V30 41 H -2.323447 1.875621 -3.264563 0
M  V30 42 H -4.237783 0.582226 -2.641302 0
M  V30 43 H -5.625307 0.835801 -0.596134 0
M  V30 44 H -8.098642 -2.535737 0.004321 0
M  V30 45 H -6.132922 -3.914401 -0.199952 0
M  V30 46 H -3.919321 -4.370932 -0.389625 0
M  V30 47 H -2.673190 -3.037416 -0.175571 0
M  V30 48 H -2.448693 -3.880369 -2.195670 0
M  V30 49 H -2.119934 -0.978597 0.711920 0
M  V30 END ATOM
M  V30 BEGIN BOND
M  V30 1 2 1 2
M  V30 2 1 2 3
M  V30 3 1 3 4
M  V30 4 1 4 5
M  V30 5 1 5 6
M  V30 6 1 6 7
M  V30 7 1 7 8
M  V30 8 1 8 9
M  V30 9 1 9 10
M  V30 10 1 2 11
M  V30 11 2 11 12
M  V30 12 1 12 13
M  V30 13 1 13 14
M  V30 14 2 14 15
M  V30 15 1 15 16
M  V30 16 2 16 17
M  V30 17 1 17 18
M  V30 18 2 18 19
M  V30 19 1 19 20
M  V30 20 2 20 21
M  V30 21 1 21 22
M  V30 22 2 22 23
M  V30 23 1 23 24
M  V30 24 1 24 25
M  V30 25 1 17 26
M  V30 26 2 26 27
M  V30 27 1 10 5
M  V30 28 1 27 11
M  V30 29 1 27 14
M  V30 30 1 23 18
M  V30 31 1 3 28
M  V30 32 1 4 29
M  V30 33 1 4 30
M  V30 34 1 5 31
M  V30 35 1 6 32
M  V30 36 1 6 33
M  V30 37 1 7 34
M  V30 38 1 7 35
M  V30 39 1 9 36
M  V30 40 1 9 37
M  V30 41 1 10 38
M  V30 42 1 10 39
M  V30 43 1 13 40
M  V30 44 1 15 41
M  V30 45 1 16 42
M  V30 46 1 19 43
M  V30 47 1 21 44
M  V30 48 1 22 45
M  V30 49 1 24 46
M  V30 50 1 24 47
M  V30 51 1 25 48
M  V30 52 1 26 49
M  V30 END BOND
M  V30 END CTAB
M  END
>  <Dataset>  (495) 
ChEMBL_Kinases

>  <Ligand_Instance>  (495) 
nan

>  <PDB_ID>  (495) 
nan

>  <Standardized_SMILES>  (495) 
O=C(NCC1CCOCC1)c1n[nH]c2ccc(-c3cnccc3CO)cc12

>  <Name>  (495) 
nan

>  <Pocket>  (495) 
nan

>  <ATP_Site>  (495) 
nan

>  <Peripheral>  (495) 
nan

>  <Num_H_Atoms_ProtBoundConf>  (495) 
nan

>  <Num_Resolved_Atoms>  (495) 
nan

>  <Num_Not_Resolved_Atoms>  (495) 
nan

$$$$
CHEMBL4641149
     RDKit          3D

  0  0  0  0  0  0  0  0  0  0999 V3000
M  V30 BEGIN CTAB
M  V30 COUNTS 41 44 0 0 0
M  V30 BEGIN ATOM
M  V30 1 O 1.750069 -3.981817 3.931160 0
M  V30 2 C 2.227956 -3.802898 2.642793 0
M  V30 3 C 2.603776 -4.880020 1.868723 0
M  V30 4 C 3.067056 -4.623406 0.603442 0
M  V30 5 C 3.142063 -3.323205 0.150698 0
M  V30 6 C 2.759742 -2.228289 0.937521 0
M  V30 7 C 2.955329 -0.980063 0.218253 0
M  V30 8 C 4.223965 -0.748384 -0.322331 0
M  V30 9 N 4.579775 0.362404 -0.994159 0
M  V30 10 C 3.687847 1.351278 -1.187141 0
M  V30 11 C 2.418470 1.180067 -0.677112 0
M  V30 12 C 1.456138 2.139318 -0.839704 0
M  V30 13 C 0.196727 1.937451 -0.325830 0
M  V30 14 C -0.194305 0.816200 0.361380 0
M  V30 15 O -1.432481 0.544220 0.902844 0
M  V30 16 C -2.553026 1.388616 0.849160 0 CFG=1
M  V30 17 C -3.716017 0.750446 0.121768 0
M  V30 18 C -4.550065 0.146823 1.218299 0
M  V30 19 N -4.161227 0.739482 2.471122 0
M  V30 20 C -3.076419 1.654585 2.238837 0
M  V30 21 C 0.791580 -0.154840 0.522360 0
M  V30 22 C 2.056638 0.042444 0.009802 0
M  V30 23 C 2.295468 -2.495572 2.209044 0
M  V30 24 H 0.785441 -3.702783 4.131498 0
M  V30 25 H 2.499650 -5.850740 2.332375 0
M  V30 26 H 3.351462 -5.485560 0.027526 0
M  V30 27 H 3.530953 -3.272857 -0.878936 0
M  V30 28 H 5.034618 -1.468199 -0.236070 0
M  V30 29 H 3.864644 2.278600 -1.707275 0
M  V30 30 H 1.673510 3.068446 -1.374337 0
M  V30 31 H -0.532069 2.713771 -0.473650 0
M  V30 32 H -2.336736 2.328438 0.309748 0
M  V30 33 H -4.316221 1.490143 -0.462371 0
M  V30 34 H -3.312020 -0.065332 -0.503605 0
M  V30 35 H -4.456700 -0.957819 1.226545 0
M  V30 36 H -5.626661 0.399957 1.043365 0
M  V30 37 H -3.942702 0.021220 3.198100 0
M  V30 38 H -2.267369 1.562414 2.981181 0
M  V30 39 H -3.493739 2.687698 2.229931 0
M  V30 40 H 0.533857 -1.062808 1.048756 0
M  V30 41 H 2.033855 -1.615477 2.751373 0
M  V30 END ATOM
M  V30 BEGIN BOND
M  V30 1 1 1 2
M  V30 2 2 2 3
M  V30 3 1 3 4
M  V30 4 2 4 5
M  V30 5 1 5 6
M  V30 6 1 6 7
M  V30 7 2 7 8
M  V30 8 1 8 9
M  V30 9 2 9 10
M  V30 10 1 10 11
M  V30 11 2 11 12
M  V30 12 1 12 13
M  V30 13 2 13 14
M  V30 14 1 14 15
M  V30 15 1 15 16
M  V30 16 1 16 17
M  V30 17 1 17 18
M  V30 18 1 18 19
M  V30 19 1 19 20
M  V30 20 1 14 21
M  V30 21 2 21 22
M  V30 22 2 6 23
M  V30 23 1 23 2
M  V30 24 1 22 7
M  V30 25 1 22 11
M  V30 26 1 20 16
M  V30 27 1 1 24
M  V30 28 1 3 25
M  V30 29 1 4 26
M  V30 30 1 5 27
M  V30 31 1 8 28
M  V30 32 1 10 29
M  V30 33 1 12 30
M  V30 34 1 13 31
M  V30 35 1 16 32 CFG=3
M  V30 36 1 17 33
M  V30 37 1 17 34
M  V30 38 1 18 35
M  V30 39 1 18 36
M  V30 40 1 19 37
M  V30 41 1 20 38
M  V30 42 1 20 39
M  V30 43 1 21 40
M  V30 44 1 23 41
M  V30 END BOND
M  V30 END CTAB
M  END
>  <Dataset>  (496) 
ChEMBL_Kinases

>  <Ligand_Instance>  (496) 
nan

>  <PDB_ID>  (496) 
nan

>  <Standardized_SMILES>  (496) 
Oc1cccc(-c2cncc3ccc(O[C@H]4CCNC4)cc23)c1

>  <Name>  (496) 
nan

>  <Pocket>  (496) 
nan

>  <ATP_Site>  (496) 
nan

>  <Peripheral>  (496) 
nan

>  <Num_H_Atoms_ProtBoundConf>  (496) 
nan

>  <Num_Resolved_Atoms>  (496) 
nan

>  <Num_Not_Resolved_Atoms>  (496) 
nan

$$$$
CHEMBL4641174
     RDKit          3D

  0  0  0  0  0  0  0  0  0  0999 V3000
M  V30 BEGIN CTAB
M  V30 COUNTS 46 50 0 0 0
M  V30 BEGIN ATOM
M  V30 1 C 1.605400 -4.554637 -2.796271 0
M  V30 2 C 0.709093 -4.811532 -1.771517 0
M  V30 3 C 0.042006 -3.721182 -1.250428 0
M  V30 4 C 0.256680 -2.443847 -1.725170 0
M  V30 5 C -0.456524 -1.421814 -1.140457 0
M  V30 6 C -0.311611 -0.111763 -1.544215 0
M  V30 7 C -0.959737 1.087605 -1.039243 0
M  V30 8 C -1.594697 1.886153 -2.000770 0
M  V30 9 N -2.255628 3.012910 -1.672533 0
M  V30 10 C -2.352027 3.448710 -0.405662 0
M  V30 11 C -1.737010 2.691362 0.592465 0
M  V30 12 C -1.762723 3.047210 1.945282 0
M  V30 13 C -1.128765 2.263038 2.895835 0
M  V30 14 C -0.449539 1.100738 2.530059 0
M  V30 15 O 0.117454 0.449006 3.590522 0
M  V30 16 C 0.862883 -0.738223 3.542674 0 CFG=1
M  V30 17 C 2.228669 -0.503707 4.158376 0
M  V30 18 C 2.000042 -0.817400 5.604280 0
M  V30 19 N 0.728143 -1.469652 5.733055 0
M  V30 20 C 0.304754 -1.837819 4.399320 0
M  V30 21 C -0.437403 0.769567 1.193275 0
M  V30 22 C -1.066925 1.548126 0.254519 0
M  V30 23 C 0.602028 0.114789 -2.582672 0
M  V30 24 C 1.337168 -0.896396 -3.193535 0
M  V30 25 C 1.150164 -2.190854 -2.746107 0
M  V30 26 C 1.813383 -3.272991 -3.264427 0
M  V30 27 H 2.176563 -5.345620 -3.268889 0
M  V30 28 H 0.553707 -5.821514 -1.412009 0
M  V30 29 H -0.664728 -3.925196 -0.441998 0
M  V30 30 H -1.156393 -1.585094 -0.362599 0
M  V30 31 H -1.576965 1.627307 -3.043031 0
M  V30 32 H -2.864087 4.340160 -0.065627 0
M  V30 33 H -2.295623 3.947490 2.184127 0
M  V30 34 H -1.216993 2.641468 3.922931 0
M  V30 35 H 0.960666 -1.129892 2.492366 0
M  V30 36 H 2.566248 0.549500 3.999807 0
M  V30 37 H 2.968009 -1.213341 3.707800 0
M  V30 38 H 2.824935 -1.431513 6.023700 0
M  V30 39 H 1.980615 0.124979 6.192421 0
M  V30 40 H 0.031240 -0.939215 6.275614 0
M  V30 41 H 0.717562 -2.812604 4.073041 0
M  V30 42 H -0.803951 -1.901350 4.380015 0
M  V30 43 H 0.097696 -0.117327 0.956175 0
M  V30 44 H 0.794744 1.114289 -2.980543 0
M  V30 45 H 2.026897 -0.700668 -3.981623 0
M  V30 46 H 2.522875 -3.095719 -4.070431 0
M  V30 END ATOM
M  V30 BEGIN BOND
M  V30 1 2 1 2
M  V30 2 1 2 3
M  V30 3 2 3 4
M  V30 4 1 4 5
M  V30 5 2 5 6
M  V30 6 1 6 7
M  V30 7 2 7 8
M  V30 8 1 8 9
M  V30 9 2 9 10
M  V30 10 1 10 11
M  V30 11 2 11 12
M  V30 12 1 12 13
M  V30 13 2 13 14
M  V30 14 1 14 15
M  V30 15 1 15 16
M  V30 16 1 16 17
M  V30 17 1 17 18
M  V30 18 1 18 19
M  V30 19 1 19 20
M  V30 20 1 14 21
M  V30 21 2 21 22
M  V30 22 1 6 23
M  V30 23 2 23 24
M  V30 24 1 24 25
M  V30 25 2 25 26
M  V30 26 1 26 1
M  V30 27 1 25 4
M  V30 28 1 22 7
M  V30 29 1 22 11
M  V30 30 1 20 16
M  V30 31 1 1 27
M  V30 32 1 2 28
M  V30 33 1 3 29
M  V30 34 1 5 30
M  V30 35 1 8 31
M  V30 36 1 10 32
M  V30 37 1 12 33
M  V30 38 1 13 34
M  V30 39 1 16 35 CFG=3
M  V30 40 1 17 36
M  V30 41 1 17 37
M  V30 42 1 18 38
M  V30 43 1 18 39
M  V30 44 1 19 40
M  V30 45 1 20 41
M  V30 46 1 20 42
M  V30 47 1 21 43
M  V30 48 1 23 44
M  V30 49 1 24 45
M  V30 50 1 26 46
M  V30 END BOND
M  V30 END CTAB
M  END
>  <Dataset>  (497) 
ChEMBL_Kinases

>  <Ligand_Instance>  (497) 
nan

>  <PDB_ID>  (497) 
nan

>  <Standardized_SMILES>  (497) 
c1ccc2cc(-c3cncc4ccc(O[C@H]5CCNC5)cc34)ccc2c1

>  <Name>  (497) 
nan

>  <Pocket>  (497) 
nan

>  <ATP_Site>  (497) 
nan

>  <Peripheral>  (497) 
nan

>  <Num_H_Atoms_ProtBoundConf>  (497) 
nan

>  <Num_Resolved_Atoms>  (497) 
nan

>  <Num_Not_Resolved_Atoms>  (497) 
nan

$$$$
CHEMBL4641214
     RDKit          3D

  0  0  0  0  0  0  0  0  0  0999 V3000
M  V30 BEGIN CTAB
M  V30 COUNTS 71 75 0 0 0
M  V30 BEGIN ATOM
M  V30 1 C 2.424585 -4.395085 1.814830 0
M  V30 2 N 1.120175 -5.003493 1.716384 0
M  V30 3 C 1.031180 -6.308077 2.295837 0
M  V30 4 C 0.090573 -4.083890 2.175086 0
M  V30 5 C -0.060018 -2.906187 1.199697 0 CFG=1
M  V30 6 C -0.448083 -3.458000 -0.120690 0
M  V30 7 C -1.264859 -2.625348 -1.028116 0
M  V30 8 C -1.997112 -1.459902 -0.427570 0 CFG=2
M  V30 9 N -1.381865 -0.180787 -0.444642 0
M  V30 10 C -0.836787 1.124081 -0.432306 0
M  V30 11 C -1.625152 2.160887 -0.023425 0
M  V30 12 C -3.014403 2.094267 0.331717 0
M  V30 13 O -3.373177 0.924372 0.084480 0
M  V30 14 N -4.062416 2.868286 0.844566 0
M  V30 15 C -4.227533 4.228818 1.287343 0
M  V30 16 C -4.145781 4.170503 2.803371 0
M  V30 17 O -4.886254 3.094526 3.239491 0
M  V30 18 C -5.897968 2.728283 2.364559 0
M  V30 19 C -5.379284 2.218893 1.038773 0
M  V30 20 C -1.102943 3.423806 0.036792 0
M  V30 21 N 0.168244 3.624009 -0.307059 0
M  V30 22 C 1.039741 2.704584 -0.722998 0
M  V30 23 C 2.353501 2.909472 -1.082461 0
M  V30 24 C 3.178046 1.892964 -1.502406 0
M  V30 25 C 2.568289 0.662991 -1.529357 0
M  V30 26 C 3.314995 -0.513419 -1.956222 0
M  V30 27 C 2.738602 -1.765038 -1.996472 0
M  V30 28 C 3.403150 -2.874826 -2.395491 0
M  V30 29 Cl 2.738996 -4.491094 -2.479097 0
M  V30 30 C 4.712868 -2.801701 -2.787567 0
M  V30 31 O 5.482256 -3.892432 -3.215600 0
M  V30 32 C 5.366185 -1.582398 -2.776535 0
M  V30 33 Cl 7.037381 -1.412119 -3.267412 0
M  V30 34 C 4.632311 -0.463867 -2.354485 0
M  V30 35 N 1.289649 0.456798 -1.181026 0
M  V30 36 C 0.480842 1.461603 -0.767079 0
M  V30 37 C -2.303791 -1.919574 1.013873 0
M  V30 38 C -1.015769 -1.934004 1.811866 0
M  V30 39 H 2.394463 -3.503031 2.508873 0
M  V30 40 H 2.753256 -4.025734 0.836579 0
M  V30 41 H 3.100367 -5.187572 2.234285 0
M  V30 42 H 0.565902 -6.198020 3.297452 0
M  V30 43 H 2.072490 -6.723694 2.381890 0
M  V30 44 H 0.415283 -6.949050 1.643255 0
M  V30 45 H 0.429092 -3.712483 3.163322 0
M  V30 46 H -0.842326 -4.639583 2.312082 0
M  V30 47 H 0.945800 -2.422633 1.207267 0
M  V30 48 H -0.965698 -4.452776 0.062430 0
M  V30 49 H 0.491082 -3.718137 -0.669803 0
M  V30 50 H -0.659073 -2.196797 -1.871714 0
M  V30 51 H -1.991507 -3.303609 -1.561468 0
M  V30 52 H -3.018758 -1.485844 -0.916947 0
M  V30 53 H -0.583021 -0.715996 -0.804934 0
M  V30 54 H -3.562683 4.970960 0.856330 0
M  V30 55 H -5.258815 4.573667 1.035256 0
M  V30 56 H -4.448351 5.147251 3.221436 0
M  V30 57 H -3.090284 3.998695 3.144798 0
M  V30 58 H -6.647621 3.549517 2.226845 0
M  V30 59 H -6.451997 1.890112 2.844695 0
M  V30 60 H -5.195369 1.153646 1.116753 0
M  V30 61 H -6.085481 2.521785 0.260523 0
M  V30 62 H -1.465164 4.385618 0.309882 0
M  V30 63 H 2.653840 3.933074 -0.998050 0
M  V30 64 H 4.201875 2.092924 -1.773580 0
M  V30 65 H 1.698830 -1.887984 -1.692740 0
M  V30 66 H 6.458206 -3.967550 -3.009812 0
M  V30 67 H 5.180550 0.458648 -2.363133 0
M  V30 68 H -2.635053 -2.973264 0.918010 0
M  V30 69 H -3.100868 -1.359540 1.480117 0
M  V30 70 H -1.242198 -2.182463 2.851610 0
M  V30 71 H -0.627869 -0.877468 1.757447 0
M  V30 END ATOM
M  V30 BEGIN BOND
M  V30 1 1 1 2
M  V30 2 1 2 3
M  V30 3 1 2 4
M  V30 4 1 4 5
M  V30 5 1 5 6
M  V30 6 1 6 7
M  V30 7 1 7 8
M  V30 8 1 8 9
M  V30 9 1 9 10
M  V30 10 1 10 11
M  V30 11 1 11 12
M  V30 12 2 12 13
M  V30 13 1 12 14
M  V30 14 1 14 15
M  V30 15 1 15 16
M  V30 16 1 16 17
M  V30 17 1 17 18
M  V30 18 1 18 19
M  V30 19 2 11 20
M  V30 20 1 20 21
M  V30 21 2 21 22
M  V30 22 1 22 23
M  V30 23 2 23 24
M  V30 24 1 24 25
M  V30 25 1 25 26
M  V30 26 2 26 27
M  V30 27 1 27 28
M  V30 28 1 28 29
M  V30 29 2 28 30
M  V30 30 1 30 31
M  V30 31 1 30 32
M  V30 32 1 32 33
M  V30 33 2 32 34
M  V30 34 2 25 35
M  V30 35 1 35 36
M  V30 36 1 8 37
M  V30 37 1 37 38
M  V30 38 1 38 5
M  V30 39 2 36 10
M  V30 40 1 19 14
M  V30 41 1 36 22
M  V30 42 1 34 26
M  V30 43 1 1 39
M  V30 44 1 1 40
M  V30 45 1 1 41
M  V30 46 1 3 42
M  V30 47 1 3 43
M  V30 48 1 3 44
M  V30 49 1 4 45
M  V30 50 1 4 46
M  V30 51 1 5 47 CFG=3
M  V30 52 1 6 48
M  V30 53 1 6 49
M  V30 54 1 7 50
M  V30 55 1 7 51
M  V30 56 1 8 52 CFG=3
M  V30 57 1 9 53
M  V30 58 1 15 54
M  V30 59 1 15 55
M  V30 60 1 16 56
M  V30 61 1 16 57
M  V30 62 1 18 58
M  V30 63 1 18 59
M  V30 64 1 19 60
M  V30 65 1 19 61
M  V30 66 1 20 62
M  V30 67 1 23 63
M  V30 68 1 24 64
M  V30 69 1 27 65
M  V30 70 1 31 66
M  V30 71 1 34 67
M  V30 72 1 37 68
M  V30 73 1 37 69
M  V30 74 1 38 70
M  V30 75 1 38 71
M  V30 END BOND
M  V30 END CTAB
M  END
>  <Dataset>  (498) 
ChEMBL_Kinases

>  <Ligand_Instance>  (498) 
nan

>  <PDB_ID>  (498) 
nan

>  <Standardized_SMILES>  (498) 
CN(C)C[C@H]1CC[C@H](Nc2c(C(=O)N3CCOCC3)cnc3ccc(-c4cc(Cl)c(O)c(Cl)c4)nc23)CC1

>  <Name>  (498) 
nan

>  <Pocket>  (498) 
nan

>  <ATP_Site>  (498) 
nan

>  <Peripheral>  (498) 
nan

>  <Num_H_Atoms_ProtBoundConf>  (498) 
nan

>  <Num_Resolved_Atoms>  (498) 
nan

>  <Num_Not_Resolved_Atoms>  (498) 
nan

$$$$
CHEMBL4641072
     RDKit          3D

  0  0  0  0  0  0  0  0  0  0999 V3000
M  V30 BEGIN CTAB
M  V30 COUNTS 66 71 0 0 0
M  V30 BEGIN ATOM
M  V30 1 C 3.509994 -0.668689 3.064287 0
M  V30 2 C 4.119542 -1.350036 1.844768 0
M  V30 3 O 4.597911 -2.623732 2.038454 0
M  V30 4 C 3.249390 -1.091075 0.663617 0
M  V30 5 N 3.913020 0.190501 0.489580 0
M  V30 6 C 3.483323 1.434701 -0.051255 0
M  V30 7 C 2.200963 1.620058 -0.513752 0
M  V30 8 C 1.711935 2.789242 -1.042079 0
M  V30 9 N 0.397221 3.031894 -1.494192 0
M  V30 10 C -0.888462 2.592397 -1.124926 0
M  V30 11 C -1.203030 1.746808 -0.095637 0
M  V30 12 C -2.485837 1.366767 0.218477 0
M  V30 13 O -2.918720 0.528999 1.219887 0
M  V30 14 C -3.235542 -0.797790 1.113605 0
M  V30 15 C -4.548863 -1.105540 1.469474 0
M  V30 16 N -4.757398 -2.425826 1.330678 0
M  V30 17 C -5.946666 -3.236448 1.571290 0
M  V30 18 C -5.873438 -4.697151 1.573895 0
M  V30 19 C -5.847169 -3.988599 2.899393 0
M  V30 20 N -3.629473 -2.958925 0.902519 0
M  V30 21 C -2.688343 -2.005843 0.759954 0
M  V30 22 C -1.269092 -2.049856 0.315036 0
M  V30 23 C -1.159343 -1.846410 -1.182397 0
M  V30 24 C 0.237515 -2.238575 -1.598256 0
M  V30 25 O 0.487460 -3.581243 -1.366729 0
M  V30 26 C 0.534993 -3.783544 0.011133 0
M  V30 27 C -0.764064 -3.433135 0.664442 0
M  V30 28 C -3.520918 1.861241 -0.541711 0
M  V30 29 C -3.209731 2.712555 -1.579158 0
M  V30 30 N -1.937706 3.040511 -1.829042 0
M  V30 31 C 2.658848 3.800151 -1.069760 0
M  V30 32 C 3.945104 3.720607 -0.640441 0
M  V30 33 C 4.344923 2.506957 -0.124987 0
M  V30 34 C 5.713371 2.421389 0.329368 0
M  V30 35 N 6.808493 2.367387 0.677937 0
M  V30 36 C 5.058889 -0.405354 1.077416 0
M  V30 37 H 2.487298 -1.085258 3.177416 0
M  V30 38 H 3.346651 0.390571 2.737235 0
M  V30 39 H 4.097302 -0.781530 3.973191 0
M  V30 40 H 4.067044 -3.012087 2.783709 0
M  V30 41 H 3.361327 -1.785023 -0.192305 0
M  V30 42 H 2.186274 -0.920225 0.933441 0
M  V30 43 H 1.568699 0.758731 -0.450603 0
M  V30 44 H 0.431938 3.704441 -2.311462 0
M  V30 45 H -0.445753 1.348596 0.522053 0
M  V30 46 H -5.412057 -0.519945 1.824443 0
M  V30 47 H -6.876983 -2.679127 1.393632 0
M  V30 48 H -4.983734 -5.224762 1.208818 0
M  V30 49 H -6.846748 -5.231974 1.398103 0
M  V30 50 H -4.907040 -4.028438 3.446397 0
M  V30 51 H -6.742461 -3.960650 3.542307 0
M  V30 52 H -0.661988 -1.306769 0.824278 0
M  V30 53 H -1.848115 -2.538869 -1.726929 0
M  V30 54 H -1.341494 -0.804107 -1.458127 0
M  V30 55 H 1.004221 -1.660491 -1.076669 0
M  V30 56 H 0.373300 -2.089544 -2.705070 0
M  V30 57 H 0.653960 -4.901826 0.130681 0
M  V30 58 H 1.408824 -3.300570 0.482877 0
M  V30 59 H -0.662657 -3.555157 1.758603 0
M  V30 60 H -1.535346 -4.145688 0.322156 0
M  V30 61 H -4.560588 1.662361 -0.424867 0
M  V30 62 H -3.977579 3.142203 -2.222925 0
M  V30 63 H 2.348231 4.761399 -1.476132 0
M  V30 64 H 4.612745 4.572386 -0.704535 0
M  V30 65 H 5.695816 -0.964741 0.380685 0
M  V30 66 H 5.626596 0.137395 1.845948 0
M  V30 END ATOM
M  V30 BEGIN BOND
M  V30 1 1 1 2
M  V30 2 1 2 3
M  V30 3 1 2 4
M  V30 4 1 4 5
M  V30 5 1 5 6
M  V30 6 2 6 7
M  V30 7 1 7 8
M  V30 8 1 8 9
M  V30 9 1 9 10
M  V30 10 2 10 11
M  V30 11 1 11 12
M  V30 12 1 12 13
M  V30 13 1 13 14
M  V30 14 2 14 15
M  V30 15 1 15 16
M  V30 16 1 16 17
M  V30 17 1 17 18
M  V30 18 1 18 19
M  V30 19 1 16 20
M  V30 20 2 20 21
M  V30 21 1 21 22
M  V30 22 1 22 23
M  V30 23 1 23 24
M  V30 24 1 24 25
M  V30 25 1 25 26
M  V30 26 1 26 27
M  V30 27 2 12 28
M  V30 28 1 28 29
M  V30 29 2 29 30
M  V30 30 2 8 31
M  V30 31 1 31 32
M  V30 32 2 32 33
M  V30 33 1 33 34
M  V30 34 3 34 35
M  V30 35 1 5 36
M  V30 36 1 36 2
M  V30 37 1 33 6
M  V30 38 1 30 10
M  V30 39 1 21 14
M  V30 40 1 27 22
M  V30 41 1 19 17
M  V30 42 1 1 37
M  V30 43 1 1 38
M  V30 44 1 1 39
M  V30 45 1 3 40
M  V30 46 1 4 41
M  V30 47 1 4 42
M  V30 48 1 7 43
M  V30 49 1 9 44
M  V30 50 1 11 45
M  V30 51 1 15 46
M  V30 52 1 17 47
M  V30 53 1 18 48
M  V30 54 1 18 49
M  V30 55 1 19 50
M  V30 56 1 19 51
M  V30 57 1 22 52
M  V30 58 1 23 53
M  V30 59 1 23 54
M  V30 60 1 24 55
M  V30 61 1 24 56
M  V30 62 1 26 57
M  V30 63 1 26 58
M  V30 64 1 27 59
M  V30 65 1 27 60
M  V30 66 1 28 61
M  V30 67 1 29 62
M  V30 68 1 31 63
M  V30 69 1 32 64
M  V30 70 1 36 65
M  V30 71 1 36 66
M  V30 END BOND
M  V30 END CTAB
M  END
>  <Dataset>  (499) 
ChEMBL_Kinases

>  <Ligand_Instance>  (499) 
nan

>  <PDB_ID>  (499) 
nan

>  <Standardized_SMILES>  (499) 
CC1(O)CN(c2cc(Nc3cc(Oc4cn(C5CC5)nc4C4CCOCC4)ccn3)ccc2C#N)C1

>  <Name>  (499) 
nan

>  <Pocket>  (499) 
nan

>  <ATP_Site>  (499) 
nan

>  <Peripheral>  (499) 
nan

>  <Num_H_Atoms_ProtBoundConf>  (499) 
nan

>  <Num_Resolved_Atoms>  (499) 
nan

>  <Num_Not_Resolved_Atoms>  (499) 
nan

$$$$
CHEMBL464238
     RDKit          3D

  0  0  0  0  0  0  0  0  0  0999 V3000
M  V30 BEGIN CTAB
M  V30 COUNTS 47 48 0 0 0
M  V30 BEGIN ATOM
M  V30 1 O 0.940194 -2.345773 1.019277 0
M  V30 2 C 1.190857 -1.162616 0.667294 0
M  V30 3 N 2.359835 -0.949070 -0.109769 0
M  V30 4 O 3.171942 -1.969576 -0.458944 0
M  V30 5 C 2.736494 -2.478006 -1.667413 0
M  V30 6 C 3.580872 -3.636266 -2.145958 0
M  V30 7 O 3.590443 -4.698713 -1.272641 0
M  V30 8 C 0.248926 -0.139122 1.098761 0
M  V30 9 C 0.494504 1.162558 0.731901 0
M  V30 10 C -0.348187 2.188544 1.103124 0
M  V30 11 C -0.330237 3.635634 0.813775 0
M  V30 12 O -0.033072 4.389768 1.858917 0
M  V30 13 C 1.082564 4.401525 2.573686 0
M  V30 14 C 1.503272 3.177406 3.326148 0
M  V30 15 O 0.550450 2.761634 4.269130 0
M  V30 16 C -1.467252 1.842697 1.872027 0
M  V30 17 F -2.421058 2.711052 2.339347 0
M  V30 18 C -1.694960 0.514819 2.231753 0
M  V30 19 F -2.765213 0.137671 2.974715 0
M  V30 20 C -0.840128 -0.518233 1.854073 0
M  V30 21 N -1.073319 -1.851263 2.217322 0
M  V30 22 C -1.864683 -2.625514 1.339081 0
M  V30 23 C -2.371440 -2.069460 0.182237 0
M  V30 24 C -3.148626 -2.847689 -0.667589 0
M  V30 25 C -3.444925 -4.173074 -0.408826 0
M  V30 26 I -4.634432 -5.282986 -1.755085 0
M  V30 27 C -2.937218 -4.750793 0.761528 0
M  V30 28 C -2.175124 -3.950260 1.573845 0
M  V30 29 F -1.697195 -4.533960 2.698184 0
M  V30 30 H 2.567900 0.029083 -0.401816 0
M  V30 31 H 2.861415 -1.664049 -2.427644 0
M  V30 32 H 1.690013 -2.833357 -1.663847 0
M  V30 33 H 3.162605 -3.959841 -3.120768 0
M  V30 34 H 4.588695 -3.227152 -2.377414 0
M  V30 35 H 3.470459 -4.299406 -0.356008 0
M  V30 36 H 1.321943 1.530599 0.145136 0
M  V30 37 H 0.416604 3.853510 -0.023159 0
M  V30 38 H -1.342643 3.911827 0.362840 0
M  V30 39 H 1.991837 4.721523 1.980595 0
M  V30 40 H 1.038080 5.221821 3.375038 0
M  V30 41 H 1.944400 2.372511 2.741303 0
M  V30 42 H 2.374043 3.516238 4.000621 0
M  V30 43 H -0.152353 3.426906 4.419781 0
M  V30 44 H -0.702337 -2.300710 3.086453 0
M  V30 45 H -2.165153 -1.025645 -0.066812 0
M  V30 46 H -3.525376 -2.370407 -1.563728 0
M  V30 47 H -3.153332 -5.788656 0.991122 0
M  V30 END ATOM
M  V30 BEGIN BOND
M  V30 1 2 1 2
M  V30 2 1 2 3
M  V30 3 1 3 4
M  V30 4 1 4 5
M  V30 5 1 5 6
M  V30 6 1 6 7
M  V30 7 1 2 8
M  V30 8 2 8 9
M  V30 9 1 9 10
M  V30 10 1 10 11
M  V30 11 1 11 12
M  V30 12 1 12 13
M  V30 13 1 13 14
M  V30 14 1 14 15
M  V30 15 2 10 16
M  V30 16 1 16 17
M  V30 17 1 16 18
M  V30 18 1 18 19
M  V30 19 2 18 20
M  V30 20 1 20 21
M  V30 21 1 21 22
M  V30 22 2 22 23
M  V30 23 1 23 24
M  V30 24 2 24 25
M  V30 25 1 25 26
M  V30 26 1 25 27
M  V30 27 2 27 28
M  V30 28 1 28 29
M  V30 29 1 20 8
M  V30 30 1 28 22
M  V30 31 1 3 30
M  V30 32 1 5 31
M  V30 33 1 5 32
M  V30 34 1 6 33
M  V30 35 1 6 34
M  V30 36 1 7 35
M  V30 37 1 9 36
M  V30 38 1 11 37
M  V30 39 1 11 38
M  V30 40 1 13 39
M  V30 41 1 13 40
M  V30 42 1 14 41
M  V30 43 1 14 42
M  V30 44 1 15 43
M  V30 45 1 21 44
M  V30 46 1 23 45
M  V30 47 1 24 46
M  V30 48 1 27 47
M  V30 END BOND
M  V30 END CTAB
M  END
>  <Dataset>  (500) 
ChEMBL_Kinases

>  <Ligand_Instance>  (500) 
nan

>  <PDB_ID>  (500) 
nan

>  <Standardized_SMILES>  (500) 
O=C(NOCCO)c1cc(COCCO)c(F)c(F)c1Nc1ccc(I)cc1F

>  <Name>  (500) 
nan

>  <Pocket>  (500) 
nan

>  <ATP_Site>  (500) 
nan

>  <Peripheral>  (500) 
nan

>  <Num_H_Atoms_ProtBoundConf>  (500) 
nan

>  <Num_Resolved_Atoms>  (500) 
nan

>  <Num_Not_Resolved_Atoms>  (500) 
nan

$$$$
CHEMBL4642436
     RDKit          3D

  0  0  0  0  0  0  0  0  0  0999 V3000
M  V30 BEGIN CTAB
M  V30 COUNTS 42 45 0 0 0
M  V30 BEGIN ATOM
M  V30 1 C -2.733511 1.427762 2.665606 0
M  V30 2 C -3.871153 1.221997 1.651411 0 CFG=2
M  V30 3 C -3.683520 -0.102300 1.039043 0
M  V30 4 N -3.308301 -0.107659 -0.357696 0
M  V30 5 C -2.556504 -1.212694 -0.917339 0
M  V30 6 S -3.387367 -2.577740 -1.569669 0
M  V30 7 N -1.808370 -3.473127 -2.047617 0
M  V30 8 C -0.880018 -2.591343 -1.635526 0
M  V30 9 C 0.467883 -2.836958 -1.789833 0
M  V30 10 C 1.418600 -1.932120 -1.368457 0
M  V30 11 C 2.851296 -2.144336 -1.509908 0
M  V30 12 C 3.750342 -1.116862 -1.691981 0
M  V30 13 C 5.113965 -1.218887 -1.835677 0
M  V30 14 C 5.611747 -2.509913 -1.788123 0
M  V30 15 C 4.791311 -3.630633 -1.607336 0
M  V30 16 C 3.415797 -3.424745 -1.470565 0
M  V30 17 C 1.024393 -0.749763 -0.777074 0
M  V30 18 N -0.297043 -0.542832 -0.642388 0
M  V30 19 C -1.243496 -1.405949 -1.043435 0
M  V30 20 C -3.710426 1.020116 -1.156144 0
M  V30 21 C -3.620809 2.324955 -0.410600 0 CFG=2
M  V30 22 C -2.247946 2.946137 -0.601841 0
M  V30 23 O -4.064102 2.300917 0.861983 0
M  V30 24 H -2.499567 0.429198 3.106226 0
M  V30 25 H -1.822363 1.816075 2.215399 0
M  V30 26 H -3.064355 2.062772 3.512269 0
M  V30 27 H -4.780044 1.166667 2.327261 0
M  V30 28 H -2.919189 -0.706606 1.565598 0
M  V30 29 H -4.630563 -0.714069 1.119853 0
M  V30 30 H 0.904619 -3.717338 -2.233799 0
M  V30 31 H 3.328462 -0.116248 -1.724921 0
M  V30 32 H 5.719160 -0.350290 -1.972285 0
M  V30 33 H 6.683459 -2.667435 -1.894886 0
M  V30 34 H 5.163786 -4.632396 -1.568748 0
M  V30 35 H 2.717901 -4.262491 -1.325981 0
M  V30 36 H 1.754621 -0.009229 -0.431399 0
M  V30 37 H -4.716600 0.820719 -1.566732 0
M  V30 38 H -3.027472 1.119176 -2.032209 0
M  V30 39 H -4.304874 3.020745 -0.971261 0
M  V30 40 H -2.288737 4.035998 -0.339258 0
M  V30 41 H -2.004511 2.876130 -1.697704 0
M  V30 42 H -1.445125 2.443981 -0.065636 0
M  V30 END ATOM
M  V30 BEGIN BOND
M  V30 1 1 1 2
M  V30 2 1 2 3
M  V30 3 1 3 4
M  V30 4 1 4 5
M  V30 5 1 5 6
M  V30 6 1 6 7
M  V30 7 2 7 8
M  V30 8 1 8 9
M  V30 9 2 9 10
M  V30 10 1 10 11
M  V30 11 2 11 12
M  V30 12 1 12 13
M  V30 13 2 13 14
M  V30 14 1 14 15
M  V30 15 2 15 16
M  V30 16 1 10 17
M  V30 17 2 17 18
M  V30 18 1 18 19
M  V30 19 1 4 20
M  V30 20 1 20 21
M  V30 21 1 21 22
M  V30 22 1 21 23
M  V30 23 1 23 2
M  V30 24 2 19 5
M  V30 25 1 19 8
M  V30 26 1 16 11
M  V30 27 1 1 24
M  V30 28 1 1 25
M  V30 29 1 1 26
M  V30 30 1 2 27 CFG=1
M  V30 31 1 3 28
M  V30 32 1 3 29
M  V30 33 1 9 30
M  V30 34 1 12 31
M  V30 35 1 13 32
M  V30 36 1 14 33
M  V30 37 1 15 34
M  V30 38 1 16 35
M  V30 39 1 17 36
M  V30 40 1 20 37
M  V30 41 1 20 38
M  V30 42 1 21 39 CFG=3
M  V30 43 1 22 40
M  V30 44 1 22 41
M  V30 45 1 22 42
M  V30 END BOND
M  V30 END CTAB
M  END
>  <Dataset>  (501) 
ChEMBL_Kinases

>  <Ligand_Instance>  (501) 
nan

>  <PDB_ID>  (501) 
nan

>  <Standardized_SMILES>  (501) 
C[C@@H]1CN(c2snc3cc(-c4ccccc4)cnc23)C[C@H](C)O1

>  <Name>  (501) 
nan

>  <Pocket>  (501) 
nan

>  <ATP_Site>  (501) 
nan

>  <Peripheral>  (501) 
nan

>  <Num_H_Atoms_ProtBoundConf>  (501) 
nan

>  <Num_Resolved_Atoms>  (501) 
nan

>  <Num_Not_Resolved_Atoms>  (501) 
nan

$$$$
CHEMBL4535071
     RDKit          3D

  0  0  0  0  0  0  0  0  0  0999 V3000
M  V30 BEGIN CTAB
M  V30 COUNTS 43 45 0 0 0
M  V30 BEGIN ATOM
M  V30 1 C -2.427040 -5.450960 1.086736 0
M  V30 2 C -1.822522 -4.331616 0.228931 0
M  V30 3 C -2.631974 -3.097016 0.579308 0
M  V30 4 N -0.433535 -4.187159 0.510776 0
M  V30 5 C 0.593456 -3.409847 -0.002332 0
M  V30 6 S 1.027401 -1.709335 0.405721 0
M  V30 7 C 2.425285 -1.581182 -0.699947 0
M  V30 8 C 3.318554 -0.403518 -0.879045 0
M  V30 9 O 4.323581 -0.223006 -1.533774 0
M  V30 10 C 2.879197 0.793738 -0.088496 0
M  V30 11 C 3.454182 2.019942 0.110937 0
M  V30 12 C 2.762885 2.882202 0.890977 0
M  V30 13 C 1.599868 2.569162 1.433803 0
M  V30 14 C 0.709078 3.409588 2.314391 0
M  V30 15 C 1.002275 4.691976 2.703157 0
M  V30 16 C 0.099690 5.361770 3.514783 0
M  V30 17 C -1.076418 4.759470 3.931197 0
M  V30 18 C -1.339876 3.464081 3.519156 0
M  V30 19 O -2.524641 2.963406 3.983929 0
M  V30 20 C -0.456575 2.785071 2.714257 0
M  V30 21 S 1.306390 0.932907 0.890780 0
M  V30 22 C 2.489372 -2.848113 -1.325938 0
M  V30 23 N 3.539484 -3.011468 -2.278034 0
M  V30 24 C 1.540005 -3.729027 -0.933946 0
M  V30 25 C 1.527918 -5.069163 -1.531517 0
M  V30 26 N 1.529343 -6.156840 -1.999102 0
M  V30 27 H -2.861851 -6.249390 0.467992 0
M  V30 28 H -1.583796 -5.938193 1.663785 0
M  V30 29 H -3.117569 -5.062784 1.860228 0
M  V30 30 H -1.948315 -4.552666 -0.849749 0
M  V30 31 H -3.022968 -3.173866 1.642176 0
M  V30 32 H -2.066152 -2.173424 0.546999 0
M  V30 33 H -3.551314 -3.071783 -0.038511 0
M  V30 34 H -0.000340 -4.775464 1.275924 0
M  V30 35 H 4.408349 2.187318 -0.376559 0
M  V30 36 H 3.178948 3.885078 1.088814 0
M  V30 37 H 1.947558 5.075716 2.324683 0
M  V30 38 H 0.387226 6.374373 3.789692 0
M  V30 39 H -1.743699 5.344673 4.569281 0
M  V30 40 H -3.284147 2.685131 3.409578 0
M  V30 41 H -0.797862 1.779952 2.473213 0
M  V30 42 H 3.571735 -3.094632 -3.305980 0
M  V30 43 H 3.043782 -3.044481 -3.199484 0
M  V30 END ATOM
M  V30 BEGIN BOND
M  V30 1 1 1 2
M  V30 2 1 2 3
M  V30 3 1 2 4
M  V30 4 1 4 5
M  V30 5 1 5 6
M  V30 6 1 6 7
M  V30 7 1 7 8
M  V30 8 2 8 9
M  V30 9 1 8 10
M  V30 10 2 10 11
M  V30 11 1 11 12
M  V30 12 2 12 13
M  V30 13 1 13 14
M  V30 14 2 14 15
M  V30 15 1 15 16
M  V30 16 2 16 17
M  V30 17 1 17 18
M  V30 18 1 18 19
M  V30 19 2 18 20
M  V30 20 1 13 21
M  V30 21 2 7 22
M  V30 22 1 22 23
M  V30 23 1 22 24
M  V30 24 1 24 25
M  V30 25 3 25 26
M  V30 26 2 24 5
M  V30 27 1 21 10
M  V30 28 1 20 14
M  V30 29 1 1 27
M  V30 30 1 1 28
M  V30 31 1 1 29
M  V30 32 1 2 30
M  V30 33 1 3 31
M  V30 34 1 3 32
M  V30 35 1 3 33
M  V30 36 1 4 34
M  V30 37 1 11 35
M  V30 38 1 12 36
M  V30 39 1 15 37
M  V30 40 1 16 38
M  V30 41 1 17 39
M  V30 42 1 19 40
M  V30 43 1 20 41
M  V30 44 1 23 42
M  V30 45 1 23 43
M  V30 END BOND
M  V30 END CTAB
M  END
>  <Dataset>  (502) 
ChEMBL_Kinases

>  <Ligand_Instance>  (502) 
nan

>  <PDB_ID>  (502) 
nan

>  <Standardized_SMILES>  (502) 
CC(C)Nc1sc(C(=O)c2ccc(-c3cccc(O)c3)s2)c(N)c1C#N

>  <Name>  (502) 
nan

>  <Pocket>  (502) 
nan

>  <ATP_Site>  (502) 
nan

>  <Peripheral>  (502) 
nan

>  <Num_H_Atoms_ProtBoundConf>  (502) 
nan

>  <Num_Resolved_Atoms>  (502) 
nan

>  <Num_Not_Resolved_Atoms>  (502) 
nan

$$$$
CHEMBL4535046
     RDKit          3D

  0  0  0  0  0  0  0  0  0  0999 V3000
M  V30 BEGIN CTAB
M  V30 COUNTS 45 48 0 0 0
M  V30 BEGIN ATOM
M  V30 1 C 3.491532 -4.466638 3.994097 0
M  V30 2 N 3.486385 -3.304364 3.138803 0
M  V30 3 C 4.377712 -2.828507 2.145081 0
M  V30 4 O 5.413675 -3.499942 1.894626 0
M  V30 5 C 4.148415 -1.601634 1.402712 0
M  V30 6 C 5.086165 -1.249002 0.456966 0
M  V30 7 C 4.906082 -0.086652 -0.282519 0
M  V30 8 C 3.807768 0.744586 -0.106593 0
M  V30 9 C 3.563355 1.989784 -0.862044 0
M  V30 10 C 2.868701 0.395956 0.837888 0
M  V30 11 N 1.686441 1.140783 1.154358 0
M  V30 12 C 0.529745 1.534548 0.455676 0
M  V30 13 N 0.285261 2.562007 -0.357937 0
M  V30 14 N -0.889261 2.775308 -0.924216 0
M  V30 15 C -1.969053 1.976478 -0.740464 0
M  V30 16 C -1.760319 0.900404 0.094787 0
M  V30 17 C -0.531958 0.674191 0.689344 0
M  V30 18 C -0.755734 -0.488864 1.437720 0
M  V30 19 N -2.021079 -0.863246 1.256959 0
M  V30 20 N -2.652446 -0.030129 0.441676 0
M  V30 21 C -4.014340 -0.304183 0.156340 0
M  V30 22 C -4.966900 0.173246 1.049738 0
M  V30 23 C -6.295198 -0.090142 0.795075 0
M  V30 24 C -6.736868 -0.802466 -0.298993 0
M  V30 25 C -5.746465 -1.250105 -1.149531 0
M  V30 26 C -4.375109 -1.032501 -0.974230 0
M  V30 27 C 3.070404 -0.765698 1.561127 0
M  V30 28 H 4.417314 -5.072649 3.929922 0
M  V30 29 H 3.343995 -4.210651 5.079969 0
M  V30 30 H 2.647366 -5.130491 3.652721 0
M  V30 31 H 2.617990 -2.777056 3.373846 0
M  V30 32 H 5.974548 -1.832096 0.248219 0
M  V30 33 H 5.633537 0.200896 -1.024894 0
M  V30 34 H 4.472571 2.280144 -1.411756 0
M  V30 35 H 3.244340 2.826487 -0.216036 0
M  V30 36 H 2.774482 1.747956 -1.615912 0
M  V30 37 H 1.585449 1.510519 2.103581 0
M  V30 38 H -2.939058 2.151291 -1.206521 0
M  V30 39 H -0.019662 -0.965734 2.037290 0
M  V30 40 H -4.692926 0.745076 1.937200 0
M  V30 41 H -7.094951 0.261452 1.466471 0
M  V30 42 H -7.777013 -1.025341 -0.523483 0
M  V30 43 H -6.077298 -1.814264 -2.018319 0
M  V30 44 H -3.643980 -1.402046 -1.667340 0
M  V30 45 H 2.355221 -1.069717 2.308740 0
M  V30 END ATOM
M  V30 BEGIN BOND
M  V30 1 1 1 2
M  V30 2 1 2 3
M  V30 3 2 3 4
M  V30 4 1 3 5
M  V30 5 2 5 6
M  V30 6 1 6 7
M  V30 7 2 7 8
M  V30 8 1 8 9
M  V30 9 1 8 10
M  V30 10 1 10 11
M  V30 11 1 11 12
M  V30 12 2 12 13
M  V30 13 1 13 14
M  V30 14 2 14 15
M  V30 15 1 15 16
M  V30 16 2 16 17
M  V30 17 1 17 18
M  V30 18 2 18 19
M  V30 19 1 19 20
M  V30 20 1 20 21
M  V30 21 2 21 22
M  V30 22 1 22 23
M  V30 23 2 23 24
M  V30 24 1 24 25
M  V30 25 2 25 26
M  V30 26 2 10 27
M  V30 27 1 27 5
M  V30 28 1 17 12
M  V30 29 1 26 21
M  V30 30 1 20 16
M  V30 31 1 1 28
M  V30 32 1 1 29
M  V30 33 1 1 30
M  V30 34 1 2 31
M  V30 35 1 6 32
M  V30 36 1 7 33
M  V30 37 1 9 34
M  V30 38 1 9 35
M  V30 39 1 9 36
M  V30 40 1 11 37
M  V30 41 1 15 38
M  V30 42 1 18 39
M  V30 43 1 22 40
M  V30 44 1 23 41
M  V30 45 1 24 42
M  V30 46 1 25 43
M  V30 47 1 26 44
M  V30 48 1 27 45
M  V30 END BOND
M  V30 END CTAB
M  END
>  <Dataset>  (503) 
ChEMBL_Kinases

>  <Ligand_Instance>  (503) 
nan

>  <PDB_ID>  (503) 
nan

>  <Standardized_SMILES>  (503) 
CNC(=O)c1ccc(C)c(Nc2nncc3c2cnn3-c2ccccc2)c1

>  <Name>  (503) 
nan

>  <Pocket>  (503) 
nan

>  <ATP_Site>  (503) 
nan

>  <Peripheral>  (503) 
nan

>  <Num_H_Atoms_ProtBoundConf>  (503) 
nan

>  <Num_Resolved_Atoms>  (503) 
nan

>  <Num_Not_Resolved_Atoms>  (503) 
nan

$$$$
CHEMBL4642456
     RDKit          3D

  0  0  0  0  0  0  0  0  0  0999 V3000
M  V30 BEGIN CTAB
M  V30 COUNTS 52 56 0 0 0
M  V30 BEGIN ATOM
M  V30 1 C 1.770267 -4.140446 -1.896713 0
M  V30 2 N 2.826486 -4.955723 -1.408287 0
M  V30 3 C 4.050263 -4.194144 -1.255830 0
M  V30 4 C 3.901418 -3.010064 -0.323877 0
M  V30 5 N 2.716138 -3.235708 0.479577 0
M  V30 6 C 1.701336 -2.280052 0.747261 0
M  V30 7 C 1.722294 -0.989934 0.265484 0
M  V30 8 C 0.704477 -0.104491 0.559778 0
M  V30 9 C 0.648055 1.261730 0.097531 0
M  V30 10 C -0.413848 1.586842 -0.725358 0
M  V30 11 C -0.479470 2.896592 -1.176416 0
M  V30 12 N 0.440700 3.823286 -0.838312 0
M  V30 13 C 1.465988 3.482450 -0.035435 0
M  V30 14 C 1.614948 2.206404 0.461796 0
M  V30 15 C -0.355479 -0.524724 1.354226 0
M  V30 16 C -1.486758 0.308227 1.735598 0
M  V30 17 C -1.187729 1.413380 2.491807 0
M  V30 18 C -2.216385 2.246941 2.887988 0
M  V30 19 C -3.548299 2.037024 2.567270 0
M  V30 20 C -4.549751 2.897973 2.985282 0
M  V30 21 C -5.863026 2.615609 2.620608 0
M  V30 22 C -6.127011 1.488012 1.854798 0
M  V30 23 C -5.106288 0.659294 1.460263 0
M  V30 24 F -5.409502 -0.423200 0.718292 0
M  V30 25 C -3.796290 0.925543 1.814039 0
M  V30 26 C -2.808150 0.079631 1.404250 0
M  V30 27 N -0.333093 -1.805438 1.806350 0
M  V30 28 N 0.655053 -2.636405 1.510271 0
M  V30 29 C 2.624209 -4.576656 1.027778 0
M  V30 30 C 2.488630 -5.537930 -0.125246 0
M  V30 31 H 1.411039 -4.497591 -2.884700 0
M  V30 32 H 2.024752 -3.066625 -2.022579 0
M  V30 33 H 0.892846 -4.247011 -1.220349 0
M  V30 34 H 4.804081 -4.937522 -0.864786 0
M  V30 35 H 4.411859 -3.799173 -2.232199 0
M  V30 36 H 3.909062 -2.050518 -0.860824 0
M  V30 37 H 4.777282 -3.036494 0.385761 0
M  V30 38 H 2.532363 -0.651900 -0.347477 0
M  V30 39 H -1.190021 0.939548 -1.052099 0
M  V30 40 H -1.286440 3.212951 -1.823026 0
M  V30 41 H 2.246704 4.174277 0.280815 0
M  V30 42 H 2.424786 1.902224 1.106667 0
M  V30 43 H -0.185643 1.659180 2.789778 0
M  V30 44 H -1.960747 3.119819 3.488041 0
M  V30 45 H -4.187408 3.731446 3.574335 0
M  V30 46 H -6.556448 3.356804 3.004059 0
M  V30 47 H -7.188519 1.351103 1.619139 0
M  V30 48 H -3.015694 -0.799691 0.806719 0
M  V30 49 H 1.738446 -4.676675 1.716917 0
M  V30 50 H 3.513477 -4.800246 1.646302 0
M  V30 51 H 1.430484 -5.881511 -0.183036 0
M  V30 52 H 3.168893 -6.412960 -0.008545 0
M  V30 END ATOM
M  V30 BEGIN BOND
M  V30 1 1 1 2
M  V30 2 1 2 3
M  V30 3 1 3 4
M  V30 4 1 4 5
M  V30 5 1 5 6
M  V30 6 2 6 7
M  V30 7 1 7 8
M  V30 8 1 8 9
M  V30 9 2 9 10
M  V30 10 1 10 11
M  V30 11 2 11 12
M  V30 12 1 12 13
M  V30 13 2 13 14
M  V30 14 2 8 15
M  V30 15 1 15 16
M  V30 16 2 16 17
M  V30 17 1 17 18
M  V30 18 2 18 19
M  V30 19 1 19 20
M  V30 20 2 20 21
M  V30 21 1 21 22
M  V30 22 2 22 23
M  V30 23 1 23 24
M  V30 24 1 23 25
M  V30 25 2 25 26
M  V30 26 1 15 27
M  V30 27 2 27 28
M  V30 28 1 5 29
M  V30 29 1 29 30
M  V30 30 1 30 2
M  V30 31 1 28 6
M  V30 32 1 14 9
M  V30 33 1 26 16
M  V30 34 1 25 19
M  V30 35 1 1 31
M  V30 36 1 1 32
M  V30 37 1 1 33
M  V30 38 1 3 34
M  V30 39 1 3 35
M  V30 40 1 4 36
M  V30 41 1 4 37
M  V30 42 1 7 38
M  V30 43 1 10 39
M  V30 44 1 11 40
M  V30 45 1 13 41
M  V30 46 1 14 42
M  V30 47 1 17 43
M  V30 48 1 18 44
M  V30 49 1 20 45
M  V30 50 1 21 46
M  V30 51 1 22 47
M  V30 52 1 26 48
M  V30 53 1 29 49
M  V30 54 1 29 50
M  V30 55 1 30 51
M  V30 56 1 30 52
M  V30 END BOND
M  V30 END CTAB
M  END
>  <Dataset>  (504) 
ChEMBL_Kinases

>  <Ligand_Instance>  (504) 
nan

>  <PDB_ID>  (504) 
nan

>  <Standardized_SMILES>  (504) 
CN1CCN(c2cc(-c3ccncc3)c(-c3ccc4cccc(F)c4c3)nn2)CC1

>  <Name>  (504) 
nan

>  <Pocket>  (504) 
nan

>  <ATP_Site>  (504) 
nan

>  <Peripheral>  (504) 
nan

>  <Num_H_Atoms_ProtBoundConf>  (504) 
nan

>  <Num_Resolved_Atoms>  (504) 
nan

>  <Num_Not_Resolved_Atoms>  (504) 
nan

$$$$
CHEMBL4535001
     RDKit          3D

  0  0  0  0  0  0  0  0  0  0999 V3000
M  V30 BEGIN CTAB
M  V30 COUNTS 54 56 0 0 0
M  V30 BEGIN ATOM
M  V30 1 C 1.500002 -7.001293 2.233652 0
M  V30 2 C 1.825977 -5.642464 1.729530 0
M  V30 3 N 2.488832 -4.679291 2.409727 0
M  V30 4 N 2.583964 -3.616420 1.627241 0
M  V30 5 C 2.007561 -3.843125 0.454279 0
M  V30 6 N 1.914416 -2.940353 -0.642440 0
M  V30 7 C 2.449117 -1.646336 -0.608486 0
M  V30 8 N 3.717482 -1.484475 -0.965048 0
M  V30 9 C 4.304282 -0.260901 -0.960438 0
M  V30 10 N 3.561711 0.807988 -0.580121 0
M  V30 11 C 2.288159 0.699235 -0.214079 0
M  V30 12 C 1.491248 1.751367 0.177178 0
M  V30 13 C 0.186385 1.641900 0.549450 0
M  V30 14 O -0.649313 2.639063 0.945851 0
M  V30 15 C -0.451152 3.992602 1.101203 0
M  V30 16 C 0.564762 4.414588 2.120237 0
M  V30 17 O 0.214839 3.949560 3.401024 0
M  V30 18 C -0.441790 0.385746 0.551083 0
M  V30 19 S -2.079174 -0.009995 0.949106 0
M  V30 20 O -2.373311 0.595025 2.329977 0
M  V30 21 O -2.199940 -1.500838 1.096080 0
M  V30 22 C -3.295738 0.643704 -0.126090 0
M  V30 23 C -3.334385 2.143764 -0.221654 0
M  V30 24 C -4.652877 0.236241 0.467326 0
M  V30 25 C -3.194498 0.106760 -1.538388 0
M  V30 26 C 0.394400 -0.671229 0.147799 0
M  V30 27 C 1.712912 -0.549463 -0.225927 0
M  V30 28 C 1.510172 -5.127516 0.478643 0
M  V30 29 C 0.786973 -5.793238 -0.629011 0
M  V30 30 H 2.237931 -7.325065 2.995661 0
M  V30 31 H 0.477828 -6.994304 2.654685 0
M  V30 32 H 1.529572 -7.682090 1.337952 0
M  V30 33 H 2.880767 -4.702081 3.375346 0
M  V30 34 H 1.443355 -3.192994 -1.530127 0
M  V30 35 H 5.327598 -0.084265 -1.240997 0
M  V30 36 H 1.968801 2.705589 0.164646 0
M  V30 37 H -1.388276 4.552634 1.354013 0
M  V30 38 H -0.074083 4.391502 0.111492 0
M  V30 39 H 0.455451 5.539942 2.212999 0
M  V30 40 H 1.610262 4.226048 1.878241 0
M  V30 41 H -0.190317 3.072055 3.273679 0
M  V30 42 H -4.342879 2.423591 -0.669565 0
M  V30 43 H -2.600122 2.566252 -0.938178 0
M  V30 44 H -3.348919 2.659158 0.760925 0
M  V30 45 H -5.469074 0.347742 -0.276320 0
M  V30 46 H -4.625959 -0.739509 0.954892 0
M  V30 47 H -4.863018 0.994438 1.259144 0
M  V30 48 H -2.616129 0.743840 -2.203715 0
M  V30 49 H -2.889354 -0.946562 -1.485566 0
M  V30 50 H -4.241294 0.100929 -1.961585 0
M  V30 51 H -0.002742 -1.697040 0.115057 0
M  V30 52 H 0.591893 -6.854830 -0.426574 0
M  V30 53 H -0.162463 -5.208270 -0.770346 0
M  V30 54 H 1.351116 -5.660766 -1.594763 0
M  V30 END ATOM
M  V30 BEGIN BOND
M  V30 1 1 1 2
M  V30 2 1 2 3
M  V30 3 1 3 4
M  V30 4 2 4 5
M  V30 5 1 5 6
M  V30 6 1 6 7
M  V30 7 2 7 8
M  V30 8 1 8 9
M  V30 9 2 9 10
M  V30 10 1 10 11
M  V30 11 2 11 12
M  V30 12 1 12 13
M  V30 13 1 13 14
M  V30 14 1 14 15
M  V30 15 1 15 16
M  V30 16 1 16 17
M  V30 17 2 13 18
M  V30 18 1 18 19
M  V30 19 2 19 20
M  V30 20 2 19 21
M  V30 21 1 19 22
M  V30 22 1 22 23
M  V30 23 1 22 24
M  V30 24 1 22 25
M  V30 25 1 18 26
M  V30 26 2 26 27
M  V30 27 1 5 28
M  V30 28 1 28 29
M  V30 29 2 28 2
M  V30 30 1 27 7
M  V30 31 1 27 11
M  V30 32 1 1 30
M  V30 33 1 1 31
M  V30 34 1 1 32
M  V30 35 1 3 33
M  V30 36 1 6 34
M  V30 37 1 9 35
M  V30 38 1 12 36
M  V30 39 1 15 37
M  V30 40 1 15 38
M  V30 41 1 16 39
M  V30 42 1 16 40
M  V30 43 1 17 41
M  V30 44 1 23 42
M  V30 45 1 23 43
M  V30 46 1 23 44
M  V30 47 1 24 45
M  V30 48 1 24 46
M  V30 49 1 24 47
M  V30 50 1 25 48
M  V30 51 1 25 49
M  V30 52 1 25 50
M  V30 53 1 26 51
M  V30 54 1 29 52
M  V30 55 1 29 53
M  V30 56 1 29 54
M  V30 END BOND
M  V30 END CTAB
M  END
>  <Dataset>  (505) 
ChEMBL_Kinases

>  <Ligand_Instance>  (505) 
nan

>  <PDB_ID>  (505) 
nan

>  <Standardized_SMILES>  (505) 
Cc1[nH]nc(Nc2ncnc3cc(OCCO)c(S(=O)(=O)C(C)(C)C)cc23)c1C

>  <Name>  (505) 
nan

>  <Pocket>  (505) 
nan

>  <ATP_Site>  (505) 
nan

>  <Peripheral>  (505) 
nan

>  <Num_H_Atoms_ProtBoundConf>  (505) 
nan

>  <Num_Resolved_Atoms>  (505) 
nan

>  <Num_Not_Resolved_Atoms>  (505) 
nan

$$$$
CHEMBL4534989
     RDKit          3D

  0  0  0  0  0  0  0  0  0  0999 V3000
M  V30 BEGIN CTAB
M  V30 COUNTS 38 41 0 0 0
M  V30 BEGIN ATOM
M  V30 1 C 0.734242 -1.003216 4.589248 0
M  V30 2 C 1.334030 -1.478389 3.306226 0
M  V30 3 C 1.719512 -2.800319 3.201532 0
M  V30 4 C 2.277157 -3.283340 2.039391 0
M  V30 5 C 2.438069 -2.409656 0.987789 0
M  V30 6 C 2.055421 -1.078197 1.077893 0
M  V30 7 C 2.205009 -0.108281 -0.009379 0
M  V30 8 N 3.328675 0.328033 -0.620016 0
M  V30 9 C 2.998355 1.229582 -1.576161 0
M  V30 10 N 1.672246 1.352822 -1.559104 0
M  V30 11 C 0.874204 2.215197 -2.415963 0
M  V30 12 C 1.127580 0.550404 -0.611513 0
M  V30 13 C -0.273536 0.359606 -0.237551 0
M  V30 14 C -1.070388 1.408112 0.211580 0
M  V30 15 C -2.390960 1.173008 0.554019 0
M  V30 16 C -2.956970 -0.082307 0.465666 0
M  V30 17 N -4.175217 -0.593081 0.722163 0
M  V30 18 C -4.177615 -1.916753 0.453592 0
M  V30 19 C -2.899267 -2.220901 0.013403 0
M  V30 20 N -2.162103 -1.090154 0.025445 0
M  V30 21 C -0.876557 -0.879053 -0.311518 0
M  V30 22 C 1.493172 -0.597143 2.253718 0
M  V30 23 H 0.660932 0.105254 4.596361 0
M  V30 24 H -0.312364 -1.406904 4.632968 0
M  V30 25 H 1.260387 -1.384158 5.481870 0
M  V30 26 H 1.610651 -3.534227 4.014226 0
M  V30 27 H 2.615078 -4.282641 1.834290 0
M  V30 28 H 2.868727 -2.673718 0.013216 0
M  V30 29 H 3.629700 1.783466 -2.260048 0
M  V30 30 H 1.198572 1.990028 -3.458475 0
M  V30 31 H -0.195903 2.030140 -2.305847 0
M  V30 32 H 1.080950 3.284481 -2.192320 0
M  V30 33 H -0.640202 2.399502 0.286085 0
M  V30 34 H -3.044060 1.964491 0.907902 0
M  V30 35 H -4.927172 -2.694711 0.517354 0
M  V30 36 H -2.513293 -3.186564 -0.296944 0
M  V30 37 H -0.259616 -1.710494 -0.663379 0
M  V30 38 H 1.167272 0.418950 2.414461 0
M  V30 END ATOM
M  V30 BEGIN BOND
M  V30 1 1 1 2
M  V30 2 2 2 3
M  V30 3 1 3 4
M  V30 4 2 4 5
M  V30 5 1 5 6
M  V30 6 1 6 7
M  V30 7 1 7 8
M  V30 8 2 8 9
M  V30 9 1 9 10
M  V30 10 1 10 11
M  V30 11 1 10 12
M  V30 12 1 12 13
M  V30 13 1 13 14
M  V30 14 2 14 15
M  V30 15 1 15 16
M  V30 16 2 16 17
M  V30 17 1 17 18
M  V30 18 2 18 19
M  V30 19 1 19 20
M  V30 20 1 20 21
M  V30 21 2 6 22
M  V30 22 1 22 2
M  V30 23 2 12 7
M  V30 24 2 21 13
M  V30 25 1 20 16
M  V30 26 1 1 23
M  V30 27 1 1 24
M  V30 28 1 1 25
M  V30 29 1 3 26
M  V30 30 1 4 27
M  V30 31 1 5 28
M  V30 32 1 9 29
M  V30 33 1 11 30
M  V30 34 1 11 31
M  V30 35 1 11 32
M  V30 36 1 14 33
M  V30 37 1 15 34
M  V30 38 1 18 35
M  V30 39 1 19 36
M  V30 40 1 21 37
M  V30 41 1 22 38
M  V30 END BOND
M  V30 END CTAB
M  END
>  <Dataset>  (506) 
ChEMBL_Kinases

>  <Ligand_Instance>  (506) 
nan

>  <PDB_ID>  (506) 
nan

>  <Standardized_SMILES>  (506) 
Cc1cccc(-c2ncn(C)c2-c2ccc3nccn3c2)c1

>  <Name>  (506) 
nan

>  <Pocket>  (506) 
nan

>  <ATP_Site>  (506) 
nan

>  <Peripheral>  (506) 
nan

>  <Num_H_Atoms_ProtBoundConf>  (506) 
nan

>  <Num_Resolved_Atoms>  (506) 
nan

>  <Num_Not_Resolved_Atoms>  (506) 
nan

$$$$
CHEMBL4642467
     RDKit          3D

  0  0  0  0  0  0  0  0  0  0999 V3000
M  V30 BEGIN CTAB
M  V30 COUNTS 50 53 0 0 0
M  V30 BEGIN ATOM
M  V30 1 C -1.097979 -6.343446 2.738634 0
M  V30 2 O -1.158217 -6.075229 1.368064 0
M  V30 3 C -0.845887 -4.863742 0.765842 0
M  V30 4 C -0.425451 -3.732272 1.433854 0
M  V30 5 C -0.145443 -2.586684 0.718457 0
M  V30 6 C -0.254914 -2.478745 -0.646992 0
M  V30 7 C 0.054110 -1.241140 -1.356748 0
M  V30 8 C -0.050276 -1.112417 -2.723497 0
M  V30 9 C 0.264095 0.105747 -3.315565 0
M  V30 10 C 0.683409 1.201249 -2.553387 0
M  V30 11 N 0.971857 2.354335 -3.195078 0
M  V30 12 S 1.445938 3.379228 -1.700900 0
M  V30 13 C 1.201882 2.207275 -0.583291 0
M  V30 14 N 1.398782 2.352057 0.868517 0
M  V30 15 C 1.241387 1.434183 1.995321 0
M  V30 16 C 0.088755 1.978386 2.813051 0 CFG=1
M  V30 17 C -0.395734 0.961439 3.787953 0
M  V30 18 O 0.561757 3.151018 3.395736 0
M  V30 19 C 0.811193 4.075233 2.412533 0 CFG=1
M  V30 20 C 1.332505 5.324372 3.107577 0
M  V30 21 C 1.830325 3.603890 1.386700 0
M  V30 22 C 0.771196 1.029359 -1.217687 0
M  V30 23 N 0.461682 -0.156333 -0.674899 0
M  V30 24 C -0.675891 -3.623155 -1.282077 0
M  V30 25 C -0.972816 -4.806283 -0.617242 0
M  V30 26 O -1.398494 -5.941461 -1.324120 0
M  V30 27 C -1.521440 -5.867519 -2.716594 0
M  V30 28 H -0.202776 -6.997800 2.953209 0
M  V30 29 H -1.993027 -6.977907 3.007762 0
M  V30 30 H -1.055107 -5.475074 3.398253 0
M  V30 31 H -0.330765 -3.790698 2.509964 0
M  V30 32 H 0.171348 -1.767904 1.325510 0
M  V30 33 H -0.377946 -1.966173 -3.326544 0
M  V30 34 H 0.145155 0.086535 -4.386561 0
M  V30 35 H 2.178141 1.377589 2.589974 0
M  V30 36 H 1.050269 0.427105 1.575234 0
M  V30 37 H -0.698567 2.255216 2.056527 0
M  V30 38 H -1.173074 0.351185 3.249661 0
M  V30 39 H 0.408880 0.255412 4.043793 0
M  V30 40 H -0.908085 1.410216 4.649525 0
M  V30 41 H -0.114503 4.319427 1.846925 0
M  V30 42 H 1.539579 6.102477 2.363932 0
M  V30 43 H 2.278216 5.063931 3.626157 0
M  V30 44 H 0.599488 5.660836 3.853500 0
M  V30 45 H 2.788511 3.456047 1.932903 0
M  V30 46 H 1.940439 4.398388 0.627218 0
M  V30 47 H -0.800108 -3.664790 -2.345393 0
M  V30 48 H -2.335873 -5.114921 -2.930202 0
M  V30 49 H -1.803898 -6.856171 -3.117022 0
M  V30 50 H -0.581107 -5.523709 -3.219222 0
M  V30 END ATOM
M  V30 BEGIN BOND
M  V30 1 1 1 2
M  V30 2 1 2 3
M  V30 3 2 3 4
M  V30 4 1 4 5
M  V30 5 2 5 6
M  V30 6 1 6 7
M  V30 7 1 7 8
M  V30 8 2 8 9
M  V30 9 1 9 10
M  V30 10 2 10 11
M  V30 11 1 11 12
M  V30 12 1 12 13
M  V30 13 1 13 14
M  V30 14 1 14 15
M  V30 15 1 15 16
M  V30 16 1 16 17
M  V30 17 1 16 18
M  V30 18 1 18 19
M  V30 19 1 19 20
M  V30 20 1 19 21
M  V30 21 2 13 22
M  V30 22 1 22 23
M  V30 23 1 6 24
M  V30 24 2 24 25
M  V30 25 1 25 26
M  V30 26 1 26 27
M  V30 27 1 25 3
M  V30 28 2 23 7
M  V30 29 1 22 10
M  V30 30 1 21 14
M  V30 31 1 1 28
M  V30 32 1 1 29
M  V30 33 1 1 30
M  V30 34 1 4 31
M  V30 35 1 5 32
M  V30 36 1 8 33
M  V30 37 1 9 34
M  V30 38 1 15 35
M  V30 39 1 15 36
M  V30 40 1 16 37 CFG=3
M  V30 41 1 17 38
M  V30 42 1 17 39
M  V30 43 1 17 40
M  V30 44 1 19 41 CFG=3
M  V30 45 1 20 42
M  V30 46 1 20 43
M  V30 47 1 20 44
M  V30 48 1 21 45
M  V30 49 1 21 46
M  V30 50 1 24 47
M  V30 51 1 27 48
M  V30 52 1 27 49
M  V30 53 1 27 50
M  V30 END BOND
M  V30 END CTAB
M  END
>  <Dataset>  (507) 
ChEMBL_Kinases

>  <Ligand_Instance>  (507) 
nan

>  <PDB_ID>  (507) 
nan

>  <Standardized_SMILES>  (507) 
COc1ccc(-c2ccc3nsc(N4C[C@@H](C)O[C@@H](C)C4)c3n2)cc1OC

>  <Name>  (507) 
nan

>  <Pocket>  (507) 
nan

>  <ATP_Site>  (507) 
nan

>  <Peripheral>  (507) 
nan

>  <Num_H_Atoms_ProtBoundConf>  (507) 
nan

>  <Num_Resolved_Atoms>  (507) 
nan

>  <Num_Not_Resolved_Atoms>  (507) 
nan

$$$$
CHEMBL4534841
     RDKit          3D

  0  0  0  0  0  0  0  0  0  0999 V3000
M  V30 BEGIN CTAB
M  V30 COUNTS 49 52 0 0 0
M  V30 BEGIN ATOM
M  V30 1 C -2.039062 -3.232598 5.285346 0
M  V30 2 C -1.358786 -2.552374 4.154373 0
M  V30 3 C -0.044206 -2.136245 4.137035 0
M  V30 4 C 0.516519 -1.506632 3.038025 0
M  V30 5 O 1.864413 -1.212236 3.339656 0
M  V30 6 C -0.266795 -1.276203 1.893291 0
M  V30 7 C 0.648856 -0.624274 1.000453 0
M  V30 8 C 1.522514 -1.218119 0.052858 0
M  V30 9 C 2.408672 -0.446501 -0.670104 0
M  V30 10 C 2.421129 0.914317 -0.446128 0
M  V30 11 C 3.402524 1.677513 -1.262025 0 CFG=1
M  V30 12 C 4.808384 1.268602 -0.989648 0
M  V30 13 C 3.062672 1.623103 -2.743491 0
M  V30 14 N 1.772392 2.173749 -3.022245 0
M  V30 15 C 1.597857 1.549020 0.459846 0
M  V30 16 C 0.709085 0.780930 1.185916 0
M  V30 17 C -1.551451 -1.695788 1.941861 0
M  V30 18 C -2.108436 -2.316581 3.022175 0
M  V30 19 N -3.394236 -2.695511 2.971224 0
M  V30 20 C -4.169284 -2.490636 1.895029 0
M  V30 21 O -5.362169 -2.849642 1.865638 0
M  V30 22 C -3.581697 -1.856043 0.805230 0
M  V30 23 C -4.391493 -1.654315 -0.284837 0
M  V30 24 F -5.663794 -2.052658 -0.279278 0
M  V30 25 C -3.806891 -1.024243 -1.361029 0
M  V30 26 C -2.477528 -0.586442 -1.418437 0
M  V30 27 C -1.793172 -0.856230 -0.259020 0
M  V30 28 C -2.289538 -1.466118 0.834251 0
M  V30 29 H -2.244276 -4.293920 5.078908 0
M  V30 30 H -1.339016 -3.224584 6.145029 0
M  V30 31 H -2.937404 -2.673004 5.619971 0
M  V30 32 H 0.438527 -2.377506 5.082165 0
M  V30 33 H 2.475503 -2.026881 3.399150 0
M  V30 34 H 1.400376 -2.291077 -0.015100 0
M  V30 35 H 3.034843 -0.966231 -1.365616 0
M  V30 36 H 3.337837 2.775182 -1.006993 0
M  V30 37 H 5.002962 1.492133 0.090516 0
M  V30 38 H 5.463406 2.017060 -1.524668 0
M  V30 39 H 5.067643 0.256537 -1.301560 0
M  V30 40 H 3.859336 2.133616 -3.284759 0
M  V30 41 H 3.057247 0.535225 -3.031767 0
M  V30 42 H 1.893921 3.202661 -3.145356 0
M  V30 43 H 1.337766 1.805864 -3.881755 0
M  V30 44 H 1.645900 2.632674 0.601296 0
M  V30 45 H 0.076959 1.306026 1.888042 0
M  V30 46 H -3.828550 -3.174836 3.801904 0
M  V30 47 H -4.491488 -0.883309 -2.211356 0
M  V30 48 H -2.239879 -0.121904 -2.356209 0
M  V30 49 H -0.855190 -0.469019 -0.482211 0
M  V30 END ATOM
M  V30 BEGIN BOND
M  V30 1 1 1 2
M  V30 2 2 2 3
M  V30 3 1 3 4
M  V30 4 1 4 5
M  V30 5 2 4 6
M  V30 6 1 6 7
M  V30 7 2 7 8
M  V30 8 1 8 9
M  V30 9 2 9 10
M  V30 10 1 10 11
M  V30 11 1 11 12
M  V30 12 1 11 13
M  V30 13 1 13 14
M  V30 14 1 10 15
M  V30 15 2 15 16
M  V30 16 1 6 17
M  V30 17 2 17 18
M  V30 18 1 18 19
M  V30 19 1 19 20
M  V30 20 2 20 21
M  V30 21 1 20 22
M  V30 22 2 22 23
M  V30 23 1 23 24
M  V30 24 1 23 25
M  V30 25 2 25 26
M  V30 26 1 26 27
M  V30 27 2 27 28
M  V30 28 1 18 2
M  V30 29 1 28 22
M  V30 30 1 16 7
M  V30 31 1 28 17
M  V30 32 1 1 29
M  V30 33 1 1 30
M  V30 34 1 1 31
M  V30 35 1 3 32
M  V30 36 1 5 33
M  V30 37 1 8 34
M  V30 38 1 9 35
M  V30 39 1 11 36 CFG=1
M  V30 40 1 12 37
M  V30 41 1 12 38
M  V30 42 1 12 39
M  V30 43 1 13 40
M  V30 44 1 13 41
M  V30 45 1 14 42
M  V30 46 1 14 43
M  V30 47 1 15 44
M  V30 48 1 16 45
M  V30 49 1 19 46
M  V30 50 1 25 47
M  V30 51 1 26 48
M  V30 52 1 27 49
M  V30 END BOND
M  V30 END CTAB
M  END
>  <Dataset>  (508) 
ChEMBL_Kinases

>  <Ligand_Instance>  (508) 
nan

>  <PDB_ID>  (508) 
nan

>  <Standardized_SMILES>  (508) 
Cc1cc(O)c(-c2ccc([C@@H](C)CN)cc2)c2c1[nH]c(=O)c1c(F)cccc12

>  <Name>  (508) 
nan

>  <Pocket>  (508) 
nan

>  <ATP_Site>  (508) 
nan

>  <Peripheral>  (508) 
nan

>  <Num_H_Atoms_ProtBoundConf>  (508) 
nan

>  <Num_Resolved_Atoms>  (508) 
nan

>  <Num_Not_Resolved_Atoms>  (508) 
nan

$$$$
CHEMBL4534660
     RDKit          3D

  0  0  0  0  0  0  0  0  0  0999 V3000
M  V30 BEGIN CTAB
M  V30 COUNTS 49 51 0 0 0
M  V30 BEGIN ATOM
M  V30 1 C 0.432164 -0.761425 3.656732 0
M  V30 2 C 0.664531 -2.081588 2.959835 0
M  V30 3 C 0.643795 -3.127638 4.100122 0
M  V30 4 O -0.466560 -2.393988 2.219349 0
M  V30 5 C 1.942063 -2.240291 2.280313 0
M  V30 6 C 2.390177 -1.379391 1.186204 0
M  V30 7 C 2.511535 0.091100 1.545822 0
M  V30 8 C 3.838834 -1.780011 0.877343 0
M  V30 9 N 1.651611 -1.432076 -0.044430 0
M  V30 10 C 0.436117 -0.832605 -0.475109 0
M  V30 11 N -0.277345 0.030865 0.267371 0
M  V30 12 C -1.398922 0.641301 -0.109727 0
M  V30 13 C -2.169756 1.600661 0.663477 0
M  V30 14 C -1.926803 2.167509 1.886434 0
M  V30 15 N -2.892066 3.015147 2.278454 0
M  V30 16 N -3.775404 3.000700 1.298095 0
M  V30 17 C -3.382544 2.160719 0.300028 0
M  V30 18 C -4.129576 1.891694 -0.957260 0
M  V30 19 F -4.422174 0.552109 -0.992673 0
M  V30 20 F -5.314776 2.592473 -0.898480 0
M  V30 21 F -3.413597 2.329511 -2.059398 0
M  V30 22 N -1.834561 0.351647 -1.342299 0
M  V30 23 C -1.214741 -0.489703 -2.175275 0
M  V30 24 C -1.708974 -0.751181 -3.434187 0
M  V30 25 N -1.097061 -1.604877 -4.302565 0
M  V30 26 C 0.043125 -2.211117 -3.891273 0
M  V30 27 C 0.525289 -1.943998 -2.638348 0
M  V30 28 C -0.062662 -1.089589 -1.733841 0
M  V30 29 H 1.397847 -0.229868 3.844828 0
M  V30 30 H -0.041752 -0.898784 4.674282 0
M  V30 31 H -0.196582 -0.095134 3.052738 0
M  V30 32 H 1.026283 -4.059235 3.630391 0
M  V30 33 H 1.262280 -2.790155 4.951539 0
M  V30 34 H -0.404320 -3.312587 4.422066 0
M  V30 35 H -0.484769 -3.321002 1.911713 0
M  V30 36 H 2.027826 -3.311490 1.917560 0
M  V30 37 H 2.751791 -2.203618 3.080420 0
M  V30 38 H 1.577312 0.629636 1.621302 0
M  V30 39 H 3.038292 0.534817 0.647298 0
M  V30 40 H 3.213769 0.281831 2.380042 0
M  V30 41 H 3.894290 -2.894842 0.885149 0
M  V30 42 H 4.097846 -1.362168 -0.115530 0
M  V30 43 H 4.478261 -1.346379 1.659798 0
M  V30 44 H 2.136141 -2.047030 -0.725941 0
M  V30 45 H -1.076122 2.006532 2.520104 0
M  V30 46 H -2.990883 3.584078 3.135722 0
M  V30 47 H -2.633722 -0.226960 -3.700632 0
M  V30 48 H 0.510769 -2.884033 -4.597075 0
M  V30 49 H 1.416624 -2.467014 -2.414888 0
M  V30 END ATOM
M  V30 BEGIN BOND
M  V30 1 1 1 2
M  V30 2 1 2 3
M  V30 3 1 2 4
M  V30 4 1 2 5
M  V30 5 1 5 6
M  V30 6 1 6 7
M  V30 7 1 6 8
M  V30 8 1 6 9
M  V30 9 1 9 10
M  V30 10 2 10 11
M  V30 11 1 11 12
M  V30 12 1 12 13
M  V30 13 2 13 14
M  V30 14 1 14 15
M  V30 15 1 15 16
M  V30 16 2 16 17
M  V30 17 1 17 18
M  V30 18 1 18 19
M  V30 19 1 18 20
M  V30 20 1 18 21
M  V30 21 2 12 22
M  V30 22 1 22 23
M  V30 23 2 23 24
M  V30 24 1 24 25
M  V30 25 2 25 26
M  V30 26 1 26 27
M  V30 27 2 27 28
M  V30 28 1 28 10
M  V30 29 1 17 13
M  V30 30 1 28 23
M  V30 31 1 1 29
M  V30 32 1 1 30
M  V30 33 1 1 31
M  V30 34 1 3 32
M  V30 35 1 3 33
M  V30 36 1 3 34
M  V30 37 1 4 35
M  V30 38 1 5 36
M  V30 39 1 5 37
M  V30 40 1 7 38
M  V30 41 1 7 39
M  V30 42 1 7 40
M  V30 43 1 8 41
M  V30 44 1 8 42
M  V30 45 1 8 43
M  V30 46 1 9 44
M  V30 47 1 14 45
M  V30 48 1 15 46
M  V30 49 1 24 47
M  V30 50 1 26 48
M  V30 51 1 27 49
M  V30 END BOND
M  V30 END CTAB
M  END
>  <Dataset>  (509) 
ChEMBL_Kinases

>  <Ligand_Instance>  (509) 
nan

>  <PDB_ID>  (509) 
nan

>  <Standardized_SMILES>  (509) 
CC(C)(O)CC(C)(C)Nc1nc(-c2c[nH]nc2C(F)(F)F)nc2cnccc12

>  <Name>  (509) 
nan

>  <Pocket>  (509) 
nan

>  <ATP_Site>  (509) 
nan

>  <Peripheral>  (509) 
nan

>  <Num_H_Atoms_ProtBoundConf>  (509) 
nan

>  <Num_Resolved_Atoms>  (509) 
nan

>  <Num_Not_Resolved_Atoms>  (509) 
nan

$$$$
CHEMBL4534648
     RDKit          3D

  0  0  0  0  0  0  0  0  0  0999 V3000
M  V30 BEGIN CTAB
M  V30 COUNTS 50 51 0 0 0
M  V30 BEGIN ATOM
M  V30 1 C 2.757422 -6.428062 -2.914654 0
M  V30 2 C 2.886473 -4.960057 -2.715731 0
M  V30 3 O 1.967571 -4.348960 -3.354081 0
M  V30 4 N 3.814263 -4.202234 -1.974365 0
M  V30 5 C 3.574319 -2.803444 -2.053829 0
M  V30 6 C 2.740002 -2.179806 -1.128671 0
M  V30 7 C 2.622014 -0.824047 -1.356689 0
M  V30 8 C 1.775482 -0.021779 -0.462551 0
M  V30 9 C 1.717729 -0.461424 0.860847 0
M  V30 10 C 0.940815 0.247366 1.753958 0
M  V30 11 C 0.210009 1.370894 1.427360 0
M  V30 12 O -0.581198 2.151397 2.189089 0
M  V30 13 C -0.949558 2.136412 3.502027 0
M  V30 14 C -1.679892 0.972803 4.053812 0 CFG=1
M  V30 15 N -1.897162 1.303581 5.481810 0
M  V30 16 C -3.060345 0.785556 3.521530 0
M  V30 17 C -3.217078 0.570355 2.069911 0
M  V30 18 C -2.467105 -0.689167 1.646750 0
M  V30 19 C -4.688297 0.285991 1.818609 0
M  V30 20 C 0.302739 1.768354 0.089705 0
M  V30 21 C -0.400502 2.922318 -0.412901 0
M  V30 22 N -0.973507 3.854595 -0.833037 0
M  V30 23 C 1.064389 1.096644 -0.844758 0
M  V30 24 C 3.221012 -0.105725 -2.351197 0
M  V30 25 C 4.045487 -0.800545 -3.243268 0
M  V30 26 N 4.184532 -2.139665 -3.047655 0
M  V30 27 H 3.512183 -6.996999 -2.341016 0
M  V30 28 H 2.884952 -6.669757 -4.003362 0
M  V30 29 H 1.743226 -6.788813 -2.656267 0
M  V30 30 H 4.520369 -4.834288 -1.495151 0
M  V30 31 H 2.256083 -2.706031 -0.340593 0
M  V30 32 H 2.231111 -1.315539 1.256500 0
M  V30 33 H 0.867375 -0.051292 2.778738 0
M  V30 34 H -1.583666 3.045486 3.699527 0
M  V30 35 H -0.022460 2.348742 4.113601 0
M  V30 36 H -1.121945 0.017855 4.097815 0
M  V30 37 H -2.735723 0.816285 5.851325 0
M  V30 38 H -2.129578 2.330937 5.520008 0
M  V30 39 H -3.466462 -0.135017 4.034424 0
M  V30 40 H -3.746807 1.596714 3.870462 0
M  V30 41 H -2.971333 1.431512 1.433248 0
M  V30 42 H -1.648480 -0.905714 2.334926 0
M  V30 43 H -2.063008 -0.535217 0.642546 0
M  V30 44 H -3.152142 -1.584796 1.707930 0
M  V30 45 H -5.133281 -0.309936 2.637477 0
M  V30 46 H -4.823189 -0.242143 0.854611 0
M  V30 47 H -5.205277 1.279502 1.847101 0
M  V30 48 H 1.150623 1.381506 -1.872087 0
M  V30 49 H 3.097432 0.952091 -2.487936 0
M  V30 50 H 4.531904 -0.267878 -4.036579 0
M  V30 END ATOM
M  V30 BEGIN BOND
M  V30 1 1 1 2
M  V30 2 2 2 3
M  V30 3 1 2 4
M  V30 4 1 4 5
M  V30 5 2 5 6
M  V30 6 1 6 7
M  V30 7 1 7 8
M  V30 8 2 8 9
M  V30 9 1 9 10
M  V30 10 2 10 11
M  V30 11 1 11 12
M  V30 12 1 12 13
M  V30 13 1 13 14
M  V30 14 1 14 15
M  V30 15 1 14 16
M  V30 16 1 16 17
M  V30 17 1 17 18
M  V30 18 1 17 19
M  V30 19 1 11 20
M  V30 20 1 20 21
M  V30 21 3 21 22
M  V30 22 2 20 23
M  V30 23 2 7 24
M  V30 24 1 24 25
M  V30 25 2 25 26
M  V30 26 1 26 5
M  V30 27 1 23 8
M  V30 28 1 1 27
M  V30 29 1 1 28
M  V30 30 1 1 29
M  V30 31 1 4 30
M  V30 32 1 6 31
M  V30 33 1 9 32
M  V30 34 1 10 33
M  V30 35 1 13 34
M  V30 36 1 13 35
M  V30 37 1 14 36 CFG=1
M  V30 38 1 15 37
M  V30 39 1 15 38
M  V30 40 1 16 39
M  V30 41 1 16 40
M  V30 42 1 17 41
M  V30 43 1 18 42
M  V30 44 1 18 43
M  V30 45 1 18 44
M  V30 46 1 19 45
M  V30 47 1 19 46
M  V30 48 1 19 47
M  V30 49 1 23 48
M  V30 50 1 24 49
M  V30 51 1 25 50
M  V30 END BOND
M  V30 END CTAB
M  END
>  <Dataset>  (510) 
ChEMBL_Kinases

>  <Ligand_Instance>  (510) 
nan

>  <PDB_ID>  (510) 
nan

>  <Standardized_SMILES>  (510) 
CC(=O)Nc1cc(-c2ccc(OC[C@@H](N)CC(C)C)c(C#N)c2)ccn1

>  <Name>  (510) 
nan

>  <Pocket>  (510) 
nan

>  <ATP_Site>  (510) 
nan

>  <Peripheral>  (510) 
nan

>  <Num_H_Atoms_ProtBoundConf>  (510) 
nan

>  <Num_Resolved_Atoms>  (510) 
nan

>  <Num_Not_Resolved_Atoms>  (510) 
nan

$$$$
CHEMBL4641700
     RDKit          3D

  0  0  0  0  0  0  0  0  0  0999 V3000
M  V30 BEGIN CTAB
M  V30 COUNTS 71 74 0 0 0
M  V30 BEGIN ATOM
M  V30 1 C 4.421100 -6.342796 1.083839 0
M  V30 2 C 4.863685 -4.886867 0.938637 0
M  V30 3 O 3.706712 -4.165170 0.685102 0
M  V30 4 C 3.495519 -2.847112 0.487743 0
M  V30 5 O 3.805878 -4.023458 0.681864 0
M  V30 6 C 3.464400 -1.413461 0.285530 0
M  V30 7 C 4.692170 -0.807824 0.372044 0
M  V30 8 N 4.667157 0.521432 0.181275 0
M  V30 9 C 3.518638 1.161333 -0.070378 0
M  V30 10 C 3.570842 2.523270 -0.260673 0
M  V30 11 C 2.463069 3.264780 -0.526412 0
M  V30 12 C 1.267217 2.589510 -0.599644 0
M  V30 13 C 0.016288 3.274117 -0.885758 0
M  V30 14 C -1.145898 2.522032 -0.956721 0
M  V30 15 C -2.399094 3.082369 -1.230127 0
M  V30 16 C -3.595776 2.181670 -1.286435 0
M  V30 17 C -2.491568 4.441972 -1.438085 0
M  V30 18 O -3.748627 4.987950 -1.708488 0
M  V30 19 C -1.336718 5.213148 -1.370381 0
M  V30 20 C -1.459851 6.694997 -1.595484 0
M  V30 21 C -0.100281 4.626091 -1.096800 0
M  V30 22 N 1.224087 1.255528 -0.412385 0
M  V30 23 C 2.317746 0.509581 -0.147464 0
M  V30 24 C 2.231008 -0.852602 0.033243 0
M  V30 25 N 0.992254 -1.491887 -0.042574 0
M  V30 26 C 0.488448 -2.815595 0.122152 0 CFG=1
M  V30 27 C 0.420113 -3.323104 1.526537 0
M  V30 28 C -0.942398 -3.901381 1.863979 0
M  V30 29 C -2.048095 -2.891216 1.599149 0 CFG=2
M  V30 30 C -3.323889 -3.456790 2.121546 0
M  V30 31 N -4.501332 -2.689699 2.014598 0
M  V30 32 C -5.097923 -2.453526 0.755935 0
M  V30 33 C -4.592986 -1.525350 2.840065 0
M  V30 34 C -2.051450 -2.691364 0.111169 0
M  V30 35 C -0.787263 -3.109800 -0.581133 0
M  V30 36 H 4.652216 -6.951927 0.198608 0
M  V30 37 H 4.890413 -6.813235 1.972461 0
M  V30 38 H 3.317513 -6.421242 1.266978 0
M  V30 39 H 5.601464 -4.918403 0.094200 0
M  V30 40 H 5.424672 -4.639953 1.846399 0
M  V30 41 H 5.608375 -1.339169 0.575908 0
M  V30 42 H 4.538207 3.012066 -0.192877 0
M  V30 43 H 2.544659 4.318806 -0.665539 0
M  V30 44 H -1.125477 1.450930 -0.798475 0
M  V30 45 H -3.618230 1.757767 -2.309979 0
M  V30 46 H -4.522522 2.722719 -1.097953 0
M  V30 47 H -3.481686 1.335522 -0.581159 0
M  V30 48 H -4.330541 4.451066 -2.337904 0
M  V30 49 H -2.221745 6.805048 -2.399167 0
M  V30 50 H -0.489519 7.108019 -1.896999 0
M  V30 51 H -1.854188 7.130645 -0.648958 0
M  V30 52 H 0.777312 5.244273 -1.049431 0
M  V30 53 H 0.161979 -0.874044 -0.284195 0
M  V30 54 H 1.256498 -3.501107 -0.397436 0
M  V30 55 H 0.668728 -2.477395 2.229387 0
M  V30 56 H 1.206571 -4.079107 1.689719 0
M  V30 57 H -0.918829 -4.266513 2.896106 0
M  V30 58 H -1.126707 -4.762530 1.197582 0
M  V30 59 H -1.878515 -1.925174 2.118759 0
M  V30 60 H -3.543699 -4.446094 1.592764 0
M  V30 61 H -3.178053 -3.799756 3.193763 0
M  V30 62 H -6.140645 -2.018699 0.934167 0
M  V30 63 H -5.220164 -3.357747 0.117558 0
M  V30 64 H -4.622265 -1.676980 0.128406 0
M  V30 65 H -3.909153 -0.720447 2.485421 0
M  V30 66 H -4.401574 -1.729664 3.912103 0
M  V30 67 H -5.605556 -1.061466 2.798847 0
M  V30 68 H -2.284382 -1.622753 -0.164702 0
M  V30 69 H -2.925690 -3.283754 -0.265623 0
M  V30 70 H -0.773432 -2.726397 -1.651550 0
M  V30 71 H -0.841942 -4.213511 -0.733057 0
M  V30 END ATOM
M  V30 BEGIN BOND
M  V30 1 1 1 2
M  V30 2 1 2 3
M  V30 3 1 3 4
M  V30 4 2 4 5
M  V30 5 1 4 6
M  V30 6 2 6 7
M  V30 7 1 7 8
M  V30 8 2 8 9
M  V30 9 1 9 10
M  V30 10 2 10 11
M  V30 11 1 11 12
M  V30 12 1 12 13
M  V30 13 2 13 14
M  V30 14 1 14 15
M  V30 15 1 15 16
M  V30 16 2 15 17
M  V30 17 1 17 18
M  V30 18 1 17 19
M  V30 19 1 19 20
M  V30 20 2 19 21
M  V30 21 2 12 22
M  V30 22 1 22 23
M  V30 23 2 23 24
M  V30 24 1 24 25
M  V30 25 1 25 26
M  V30 26 1 26 27
M  V30 27 1 27 28
M  V30 28 1 28 29
M  V30 29 1 29 30
M  V30 30 1 30 31
M  V30 31 1 31 32
M  V30 32 1 31 33
M  V30 33 1 29 34
M  V30 34 1 34 35
M  V30 35 1 24 6
M  V30 36 1 35 26
M  V30 37 1 23 9
M  V30 38 1 21 13
M  V30 39 1 1 36
M  V30 40 1 1 37
M  V30 41 1 1 38
M  V30 42 1 2 39
M  V30 43 1 2 40
M  V30 44 1 7 41
M  V30 45 1 10 42
M  V30 46 1 11 43
M  V30 47 1 14 44
M  V30 48 1 16 45
M  V30 49 1 16 46
M  V30 50 1 16 47
M  V30 51 1 18 48
M  V30 52 1 20 49
M  V30 53 1 20 50
M  V30 54 1 20 51
M  V30 55 1 21 52
M  V30 56 1 25 53
M  V30 57 1 26 54 CFG=3
M  V30 58 1 27 55
M  V30 59 1 27 56
M  V30 60 1 28 57
M  V30 61 1 28 58
M  V30 62 1 29 59 CFG=1
M  V30 63 1 30 60
M  V30 64 1 30 61
M  V30 65 1 32 62
M  V30 66 1 32 63
M  V30 67 1 32 64
M  V30 68 1 33 65
M  V30 69 1 33 66
M  V30 70 1 33 67
M  V30 71 1 34 68
M  V30 72 1 34 69
M  V30 73 1 35 70
M  V30 74 1 35 71
M  V30 END BOND
M  V30 END CTAB
M  END
>  <Dataset>  (511) 
ChEMBL_Kinases

>  <Ligand_Instance>  (511) 
nan

>  <PDB_ID>  (511) 
nan

>  <Standardized_SMILES>  (511) 
CCOC(=O)c1cnc2ccc(-c3cc(C)c(O)c(C)c3)nc2c1N[C@H]1CC[C@H](CN(C)C)CC1

>  <Name>  (511) 
nan

>  <Pocket>  (511) 
nan

>  <ATP_Site>  (511) 
nan

>  <Peripheral>  (511) 
nan

>  <Num_H_Atoms_ProtBoundConf>  (511) 
nan

>  <Num_Resolved_Atoms>  (511) 
nan

>  <Num_Not_Resolved_Atoms>  (511) 
nan

$$$$
CHEMBL4534499
     RDKit          3D

  0  0  0  0  0  0  0  0  0  0999 V3000
M  V30 BEGIN CTAB
M  V30 COUNTS 52 55 0 0 0
M  V30 BEGIN ATOM
M  V30 1 C 3.140525 -3.424973 -0.273186 0
M  V30 2 C 3.157084 -2.411256 0.893496 0 CFG=1
M  V30 3 C 4.428945 -1.683282 0.895093 0
M  V30 4 N 4.616647 -0.701500 1.923198 0
M  V30 5 C 3.819933 0.470844 1.847534 0
M  V30 6 C 4.801363 -1.221181 3.239463 0
M  V30 7 C 1.897496 -1.693090 0.881637 0
M  V30 8 C 1.710404 -0.853062 -0.203817 0
M  V30 9 C 0.534769 -0.124163 -0.321238 0
M  V30 10 C -0.452698 -0.263725 0.687431 0
M  V30 11 C -1.648988 0.528737 0.663268 0
M  V30 12 C -1.268260 1.672072 1.385523 0
M  V30 13 O -0.064259 2.053362 2.016399 0
M  V30 14 C -2.205066 2.700545 1.571489 0
M  V30 15 C -3.482439 2.619880 1.066849 0
M  V30 16 Cl -4.694677 3.858835 1.259554 0
M  V30 17 C -3.811595 1.494402 0.372616 0
M  V30 18 N -5.045785 1.366947 -0.140520 0
M  V30 19 C -5.444298 0.291288 -0.834859 0
M  V30 20 O -6.600265 0.182607 -1.310370 0
M  V30 21 C -4.508514 -0.712342 -1.007418 0
M  V30 22 C -4.910022 -1.822905 -1.717511 0
M  V30 23 C -3.980237 -2.824467 -1.887642 0
M  V30 24 C -2.674597 -2.791022 -1.395064 0
M  V30 25 C -2.390182 -1.638061 -0.706466 0
M  V30 26 C -3.242822 -0.616875 -0.498935 0
M  V30 27 C -2.914010 0.495024 0.187568 0
M  V30 28 C -0.218527 -1.124861 1.765315 0
M  V30 29 C 0.927824 -1.839588 1.885730 0
M  V30 30 H 2.097859 -3.647616 -0.504061 0
M  V30 31 H 3.671996 -4.352070 0.034782 0
M  V30 32 H 3.714335 -3.007681 -1.131171 0
M  V30 33 H 3.156586 -3.067937 1.815548 0
M  V30 34 H 5.242571 -2.452004 1.079507 0
M  V30 35 H 4.731682 -1.239005 -0.073046 0
M  V30 36 H 2.807275 0.304313 2.213856 0
M  V30 37 H 4.278756 1.236579 2.517584 0
M  V30 38 H 3.823316 0.828270 0.785591 0
M  V30 39 H 4.614070 -0.365937 3.950867 0
M  V30 40 H 5.816765 -1.632521 3.436890 0
M  V30 41 H 4.086872 -1.999289 3.531718 0
M  V30 42 H 2.434474 -0.720577 -0.984138 0
M  V30 43 H 0.345007 0.542065 -1.151761 0
M  V30 44 H 0.518577 2.706666 1.497754 0
M  V30 45 H -2.043193 3.636653 2.108024 0
M  V30 46 H -5.759315 2.120979 -0.014316 0
M  V30 47 H -5.910542 -1.874952 -2.109015 0
M  V30 48 H -4.361082 -3.672494 -2.456874 0
M  V30 49 H -2.122225 -3.682743 -1.646475 0
M  V30 50 H -1.404997 -1.796601 -0.426399 0
M  V30 51 H -0.965476 -1.239296 2.543930 0
M  V30 52 H 1.113284 -2.509534 2.719758 0
M  V30 END ATOM
M  V30 BEGIN BOND
M  V30 1 1 1 2
M  V30 2 1 2 3
M  V30 3 1 3 4
M  V30 4 1 4 5
M  V30 5 1 4 6
M  V30 6 1 2 7
M  V30 7 2 7 8
M  V30 8 1 8 9
M  V30 9 2 9 10
M  V30 10 1 10 11
M  V30 11 2 11 12
M  V30 12 1 12 13
M  V30 13 1 12 14
M  V30 14 2 14 15
M  V30 15 1 15 16
M  V30 16 1 15 17
M  V30 17 1 17 18
M  V30 18 1 18 19
M  V30 19 2 19 20
M  V30 20 1 19 21
M  V30 21 2 21 22
M  V30 22 1 22 23
M  V30 23 2 23 24
M  V30 24 1 24 25
M  V30 25 2 25 26
M  V30 26 1 26 27
M  V30 27 1 10 28
M  V30 28 2 28 29
M  V30 29 1 29 7
M  V30 30 1 27 11
M  V30 31 2 27 17
M  V30 32 1 26 21
M  V30 33 1 1 30
M  V30 34 1 1 31
M  V30 35 1 1 32
M  V30 36 1 2 33 CFG=1
M  V30 37 1 3 34
M  V30 38 1 3 35
M  V30 39 1 5 36
M  V30 40 1 5 37
M  V30 41 1 5 38
M  V30 42 1 6 39
M  V30 43 1 6 40
M  V30 44 1 6 41
M  V30 45 1 8 42
M  V30 46 1 9 43
M  V30 47 1 13 44
M  V30 48 1 14 45
M  V30 49 1 18 46
M  V30 50 1 22 47
M  V30 51 1 23 48
M  V30 52 1 24 49
M  V30 53 1 25 50
M  V30 54 1 28 51
M  V30 55 1 29 52
M  V30 END BOND
M  V30 END CTAB
M  END
>  <Dataset>  (512) 
ChEMBL_Kinases

>  <Ligand_Instance>  (512) 
nan

>  <PDB_ID>  (512) 
nan

>  <Standardized_SMILES>  (512) 
C[C@@H](CN(C)C)c1ccc(-c2c(O)cc(Cl)c3[nH]c(=O)c4ccccc4c23)cc1

>  <Name>  (512) 
nan

>  <Pocket>  (512) 
nan

>  <ATP_Site>  (512) 
nan

>  <Peripheral>  (512) 
nan

>  <Num_H_Atoms_ProtBoundConf>  (512) 
nan

>  <Num_Resolved_Atoms>  (512) 
nan

>  <Num_Not_Resolved_Atoms>  (512) 
nan

$$$$
CHEMBL4534418
     RDKit          3D

  0  0  0  0  0  0  0  0  0  0999 V3000
M  V30 BEGIN CTAB
M  V30 COUNTS 35 37 0 0 0
M  V30 BEGIN ATOM
M  V30 1 O 0.594659 -2.413014 -1.435089 0
M  V30 2 C 0.667270 -3.191962 -0.454096 0
M  V30 3 O -0.354603 -4.112220 -0.616505 0
M  V30 4 C 1.581294 -3.226695 0.676015 0
M  V30 5 C 1.439522 -4.246581 1.578224 0
M  V30 6 C 2.295277 -4.351609 2.651605 0
M  V30 7 C 3.316967 -3.449838 2.863458 0
M  V30 8 C 3.394905 -2.451358 1.912719 0
M  V30 9 C 2.565385 -2.295075 0.816623 0
M  V30 10 N 2.786342 -1.220809 -0.057650 0
M  V30 11 C 1.924768 -0.151689 -0.336737 0
M  V30 12 N 0.778736 0.302284 0.018973 0
M  V30 13 C 0.344321 1.420891 -0.558339 0
M  V30 14 C -0.979333 1.917760 -0.127266 0
M  V30 15 C -1.528857 3.067032 -0.657742 0
M  V30 16 C -2.749265 3.599183 -0.316141 0
M  V30 17 C -3.495547 2.937559 0.635224 0
M  V30 18 C -3.013257 1.782166 1.211146 0
M  V30 19 N -3.753627 1.070582 2.196296 0 CHG=1 VAL=4
M  V30 20 O -4.865904 1.522803 2.532881 0
M  V30 21 O -3.218125 -0.075740 2.732384 0 CHG=-1 VAL=1
M  V30 22 C -1.785389 1.322290 0.810663 0
M  V30 23 C 1.075424 2.123543 -1.531786 0
M  V30 24 S 2.581654 1.052154 -1.642150 0
M  V30 25 H -1.267879 -3.912141 -0.983827 0
M  V30 26 H 0.654520 -4.985903 1.463778 0
M  V30 27 H 2.166060 -5.164949 3.353081 0
M  V30 28 H 4.015639 -3.485206 3.686326 0
M  V30 29 H 4.189966 -1.723514 2.050627 0
M  V30 30 H 3.728520 -1.378155 -0.464290 0
M  V30 31 H -0.997711 3.641893 -1.413110 0
M  V30 32 H -3.135007 4.492111 -0.753337 0
M  V30 33 H -4.459942 3.321261 0.932804 0
M  V30 34 H -1.422445 0.413693 1.273630 0
M  V30 35 H 0.819826 2.977797 -2.019101 0
M  V30 END ATOM
M  V30 BEGIN BOND
M  V30 1 2 1 2
M  V30 2 1 2 3
M  V30 3 1 2 4
M  V30 4 2 4 5
M  V30 5 1 5 6
M  V30 6 2 6 7
M  V30 7 1 7 8
M  V30 8 2 8 9
M  V30 9 1 9 10
M  V30 10 1 10 11
M  V30 11 2 11 12
M  V30 12 1 12 13
M  V30 13 1 13 14
M  V30 14 2 14 15
M  V30 15 1 15 16
M  V30 16 2 16 17
M  V30 17 1 17 18
M  V30 18 1 18 19
M  V30 19 2 19 20
M  V30 20 1 19 21
M  V30 21 2 18 22
M  V30 22 2 13 23
M  V30 23 1 23 24
M  V30 24 1 9 4
M  V30 25 1 24 11
M  V30 26 1 22 14
M  V30 27 1 3 25
M  V30 28 1 5 26
M  V30 29 1 6 27
M  V30 30 1 7 28
M  V30 31 1 8 29
M  V30 32 1 10 30
M  V30 33 1 15 31
M  V30 34 1 16 32
M  V30 35 1 17 33
M  V30 36 1 22 34
M  V30 37 1 23 35
M  V30 END BOND
M  V30 END CTAB
M  END
>  <Dataset>  (513) 
ChEMBL_Kinases

>  <Ligand_Instance>  (513) 
nan

>  <PDB_ID>  (513) 
nan

>  <Standardized_SMILES>  (513) 
O=C(O)c1ccccc1Nc1nc(-c2cccc([N+](=O)[O-])c2)cs1

>  <Name>  (513) 
nan

>  <Pocket>  (513) 
nan

>  <ATP_Site>  (513) 
nan

>  <Peripheral>  (513) 
nan

>  <Num_H_Atoms_ProtBoundConf>  (513) 
nan

>  <Num_Resolved_Atoms>  (513) 
nan

>  <Num_Not_Resolved_Atoms>  (513) 
nan

$$$$
CHEMBL4642504
     RDKit          3D

  0  0  0  0  0  0  0  0  0  0999 V3000
M  V30 BEGIN CTAB
M  V30 COUNTS 50 53 0 0 0
M  V30 BEGIN ATOM
M  V30 1 C -1.275681 3.501952 -0.960189 0
M  V30 2 O -0.528321 2.393496 -0.534118 0
M  V30 3 C 0.822573 2.523080 -0.064390 0
M  V30 4 N 1.886192 3.287064 0.212417 0
M  V30 5 N 2.851206 2.493401 0.671903 0
M  V30 6 C 4.039050 3.181611 0.989697 0
M  V30 7 C 4.696440 3.865751 -0.004230 0
M  V30 8 C 5.866614 4.438255 0.491376 0
M  V30 9 C 6.278076 4.313632 1.806684 0
M  V30 10 C 5.535900 3.595619 2.742310 0
M  V30 11 N 4.406851 3.034506 2.296490 0
M  V30 12 C 2.211874 1.274310 0.613987 0
M  V30 13 C 0.809352 1.136687 0.126900 0
M  V30 14 C 0.900421 -0.303112 0.369766 0
M  V30 15 O -0.243293 -0.601180 -0.078621 0
M  V30 16 N 1.542475 -1.509278 0.817866 0
M  V30 17 C 0.665131 -2.598465 0.574014 0
M  V30 18 C 0.983573 -3.160264 -0.671396 0
M  V30 19 C 0.228049 -4.266696 -1.072954 0
M  V30 20 C -0.741938 -4.669706 -0.188255 0
M  V30 21 C -1.075559 -4.118521 1.062673 0
M  V30 22 C -2.129652 -4.621595 1.921527 0
M  V30 23 N -1.976194 -5.464433 2.978024 0
M  V30 24 N -3.185851 -5.690082 3.507147 0
M  V30 25 C -4.013036 -4.980452 2.755947 0
M  V30 26 N -3.447119 -4.291403 1.757113 0
M  V30 27 C -4.153785 -3.458685 0.832012 0
M  V30 28 C -4.075671 -1.992695 1.190424 0
M  V30 29 C -3.749206 -3.653472 -0.615792 0
M  V30 30 N -0.298823 -3.056766 1.374575 0
M  V30 31 H -0.685256 4.267301 -1.503031 0
M  V30 32 H -2.082679 3.197941 -1.676712 0
M  V30 33 H -1.742901 4.066194 -0.095251 0
M  V30 34 H 4.307750 3.908684 -0.989492 0
M  V30 35 H 6.459552 5.008692 -0.256027 0
M  V30 36 H 7.199022 4.806191 2.065968 0
M  V30 37 H 5.843657 3.493278 3.769373 0
M  V30 38 H 3.144029 0.736040 1.028515 0
M  V30 39 H 2.438636 -1.132972 1.169492 0
M  V30 40 H 1.747191 -2.849427 -1.384159 0
M  V30 41 H 0.357206 -4.801336 -1.999317 0
M  V30 42 H -1.334843 -5.528654 -0.485135 0
M  V30 43 H -5.096344 -4.973612 2.963565 0
M  V30 44 H -5.240963 -3.733027 0.867291 0
M  V30 45 H -5.076726 -1.494630 1.125361 0
M  V30 46 H -3.690950 -1.795092 2.203103 0
M  V30 47 H -3.394252 -1.453668 0.484268 0
M  V30 48 H -4.598609 -3.338833 -1.292303 0
M  V30 49 H -3.539473 -4.698866 -0.873808 0
M  V30 50 H -2.942180 -2.928200 -0.855330 0
M  V30 END ATOM
M  V30 BEGIN BOND
M  V30 1 1 1 2
M  V30 2 1 2 3
M  V30 3 2 3 4
M  V30 4 1 4 5
M  V30 5 1 5 6
M  V30 6 2 6 7
M  V30 7 1 7 8
M  V30 8 2 8 9
M  V30 9 1 9 10
M  V30 10 2 10 11
M  V30 11 1 5 12
M  V30 12 2 12 13
M  V30 13 1 13 14
M  V30 14 2 14 15
M  V30 15 1 14 16
M  V30 16 1 16 17
M  V30 17 2 17 18
M  V30 18 1 18 19
M  V30 19 2 19 20
M  V30 20 1 20 21
M  V30 21 1 21 22
M  V30 22 2 22 23
M  V30 23 1 23 24
M  V30 24 2 24 25
M  V30 25 1 25 26
M  V30 26 1 26 27
M  V30 27 1 27 28
M  V30 28 1 27 29
M  V30 29 2 21 30
M  V30 30 1 13 3
M  V30 31 1 30 17
M  V30 32 1 11 6
M  V30 33 1 26 22
M  V30 34 1 1 31
M  V30 35 1 1 32
M  V30 36 1 1 33
M  V30 37 1 7 34
M  V30 38 1 8 35
M  V30 39 1 9 36
M  V30 40 1 10 37
M  V30 41 1 12 38
M  V30 42 1 16 39
M  V30 43 1 18 40
M  V30 44 1 19 41
M  V30 45 1 20 42
M  V30 46 1 25 43
M  V30 47 1 27 44
M  V30 48 1 28 45
M  V30 49 1 28 46
M  V30 50 1 28 47
M  V30 51 1 29 48
M  V30 52 1 29 49
M  V30 53 1 29 50
M  V30 END BOND
M  V30 END CTAB
M  END
>  <Dataset>  (514) 
ChEMBL_Kinases

>  <Ligand_Instance>  (514) 
nan

>  <PDB_ID>  (514) 
nan

>  <Standardized_SMILES>  (514) 
COc1nn(-c2ccccn2)cc1C(=O)Nc1cccc(-c2nncn2C(C)C)n1

>  <Name>  (514) 
nan

>  <Pocket>  (514) 
nan

>  <ATP_Site>  (514) 
nan

>  <Peripheral>  (514) 
nan

>  <Num_H_Atoms_ProtBoundConf>  (514) 
nan

>  <Num_Resolved_Atoms>  (514) 
nan

>  <Num_Not_Resolved_Atoms>  (514) 
nan

$$$$
CHEMBL4642529
     RDKit          3D

  0  0  0  0  0  0  0  0  0  0999 V3000
M  V30 BEGIN CTAB
M  V30 COUNTS 57 60 0 0 0
M  V30 BEGIN ATOM
M  V30 1 C 4.598351 -0.999431 1.969479 0
M  V30 2 N 3.623608 -1.896749 1.525553 0
M  V30 3 C 2.740124 -2.415261 2.516153 0
M  V30 4 C 3.308785 -2.109004 0.191732 0
M  V30 5 C 2.586975 -1.005922 -0.477340 0 CFG=1
M  V30 6 C 3.234528 0.329857 -0.573064 0
M  V30 7 C 2.106124 1.328793 -0.815119 0
M  V30 8 C 1.001971 0.861603 -1.665330 0 CFG=2
M  V30 9 N -0.218147 0.797776 -0.906548 0
M  V30 10 C -1.137420 1.634606 -0.228209 0
M  V30 11 C -1.029608 2.996332 -0.193946 0
M  V30 12 C 0.004128 3.688957 -0.893573 0
M  V30 13 N 0.830046 4.265110 -1.468158 0
M  V30 14 C -1.904678 3.852453 0.488694 0
M  V30 15 N -2.910835 3.248743 1.144542 0
M  V30 16 C -3.064894 1.915631 1.143758 0
M  V30 17 C -4.112391 1.344261 1.828099 0
M  V30 18 C -4.329052 -0.015315 1.866152 0
M  V30 19 C -3.413162 -0.757720 1.164252 0
M  V30 20 C -3.566960 -2.206046 1.142046 0
M  V30 21 C -4.555646 -2.928910 1.771532 0
M  V30 22 C -4.652883 -4.302322 1.714886 0
M  V30 23 Cl -5.928441 -5.163732 2.533760 0
M  V30 24 C -3.743152 -5.028751 1.008710 0
M  V30 25 O -3.832222 -6.401984 0.945950 0
M  V30 26 C -2.723940 -4.379627 0.351734 0
M  V30 27 Cl -1.556377 -5.301909 -0.553314 0
M  V30 28 C -2.674567 -3.016056 0.441431 0
M  V30 29 N -2.388419 -0.231665 0.492539 0
M  V30 30 C -2.201209 1.086602 0.471575 0
M  V30 31 C 1.215243 -0.406924 -2.407413 0
M  V30 32 C 2.233104 -1.352186 -1.922050 0
M  V30 33 H 5.131402 -1.481358 2.864853 0
M  V30 34 H 4.135950 -0.096392 2.416246 0
M  V30 35 H 5.347016 -0.685268 1.233820 0
M  V30 36 H 2.300527 -3.360117 2.139496 0
M  V30 37 H 3.218408 -2.548051 3.509456 0
M  V30 38 H 1.875577 -1.706098 2.643509 0
M  V30 39 H 2.738915 -3.091382 0.087001 0
M  V30 40 H 4.242093 -2.349642 -0.431337 0
M  V30 41 H 1.569349 -0.872656 0.011436 0
M  V30 42 H 3.855623 0.362900 -1.503337 0
M  V30 43 H 3.777322 0.697431 0.291750 0
M  V30 44 H 1.733870 1.593846 0.196456 0
M  V30 45 H 2.624967 2.220322 -1.265120 0
M  V30 46 H 0.809417 1.684362 -2.431596 0
M  V30 47 H -0.508819 -0.219568 -0.855444 0
M  V30 48 H -1.824731 4.924381 0.520424 0
M  V30 49 H -4.776496 2.010306 2.347872 0
M  V30 50 H -5.170307 -0.383455 2.422660 0
M  V30 51 H -5.297841 -2.390494 2.342032 0
M  V30 52 H -4.164332 -6.883172 0.118320 0
M  V30 53 H -1.855343 -2.528076 -0.089730 0
M  V30 54 H 1.489452 -0.152797 -3.475857 0
M  V30 55 H 0.243910 -0.974530 -2.549632 0
M  V30 56 H 1.863360 -2.390597 -1.905957 0
M  V30 57 H 3.163742 -1.324855 -2.554740 0
M  V30 END ATOM
M  V30 BEGIN BOND
M  V30 1 1 1 2
M  V30 2 1 2 3
M  V30 3 1 2 4
M  V30 4 1 4 5
M  V30 5 1 5 6
M  V30 6 1 6 7
M  V30 7 1 7 8
M  V30 8 1 8 9
M  V30 9 1 9 10
M  V30 10 2 10 11
M  V30 11 1 11 12
M  V30 12 3 12 13
M  V30 13 1 11 14
M  V30 14 2 14 15
M  V30 15 1 15 16
M  V30 16 2 16 17
M  V30 17 1 17 18
M  V30 18 2 18 19
M  V30 19 1 19 20
M  V30 20 2 20 21
M  V30 21 1 21 22
M  V30 22 1 22 23
M  V30 23 2 22 24
M  V30 24 1 24 25
M  V30 25 1 24 26
M  V30 26 1 26 27
M  V30 27 2 26 28
M  V30 28 1 19 29
M  V30 29 2 29 30
M  V30 30 1 8 31
M  V30 31 1 31 32
M  V30 32 1 32 5
M  V30 33 1 30 10
M  V30 34 1 30 16
M  V30 35 1 28 20
M  V30 36 1 1 33
M  V30 37 1 1 34
M  V30 38 1 1 35
M  V30 39 1 3 36
M  V30 40 1 3 37
M  V30 41 1 3 38
M  V30 42 1 4 39
M  V30 43 1 4 40
M  V30 44 1 5 41 CFG=1
M  V30 45 1 6 42
M  V30 46 1 6 43
M  V30 47 1 7 44
M  V30 48 1 7 45
M  V30 49 1 8 46 CFG=3
M  V30 50 1 9 47
M  V30 51 1 14 48
M  V30 52 1 17 49
M  V30 53 1 18 50
M  V30 54 1 21 51
M  V30 55 1 25 52
M  V30 56 1 28 53
M  V30 57 1 31 54
M  V30 58 1 31 55
M  V30 59 1 32 56
M  V30 60 1 32 57
M  V30 END BOND
M  V30 END CTAB
M  END
>  <Dataset>  (515) 
ChEMBL_Kinases

>  <Ligand_Instance>  (515) 
nan

>  <PDB_ID>  (515) 
nan

>  <Standardized_SMILES>  (515) 
CN(C)C[C@H]1CC[C@H](Nc2c(C#N)cnc3ccc(-c4cc(Cl)c(O)c(Cl)c4)nc23)CC1

>  <Name>  (515) 
nan

>  <Pocket>  (515) 
nan

>  <ATP_Site>  (515) 
nan

>  <Peripheral>  (515) 
nan

>  <Num_H_Atoms_ProtBoundConf>  (515) 
nan

>  <Num_Resolved_Atoms>  (515) 
nan

>  <Num_Not_Resolved_Atoms>  (515) 
nan

$$$$
CHEMBL4642539
     RDKit          3D

  0  0  0  0  0  0  0  0  0  0999 V3000
M  V30 BEGIN CTAB
M  V30 COUNTS 42 43 0 0 0
M  V30 BEGIN ATOM
M  V30 1 C -4.518808 -1.604550 -1.895136 0
M  V30 2 N -3.339500 -1.204574 -1.141774 0
M  V30 3 C -3.833698 -1.010433 0.178339 0
M  V30 4 C -2.709614 -0.550878 1.092727 0
M  V30 5 N -3.327883 -0.397863 2.416823 0
M  V30 6 C -2.091042 -1.117264 -1.816574 0
M  V30 7 N -2.172234 -1.426203 -3.120848 0
M  V30 8 C -1.060003 -1.398991 -3.876913 0
M  V30 9 C 0.111791 -1.051381 -3.260895 0
M  V30 10 C 1.246586 -1.047363 -4.170646 0
M  V30 11 N 1.205508 -1.384359 -5.549479 0
M  V30 12 O 2.471207 -0.837473 -4.288286 0
M  V30 13 C 0.232371 -0.729621 -1.931446 0
M  V30 14 N 1.512663 -0.410930 -1.432611 0
M  V30 15 C 1.919706 0.010391 -0.143716 0
M  V30 16 C 3.239715 -0.000951 0.279584 0
M  V30 17 C 3.669522 0.411683 1.507844 0
M  V30 18 C 2.746178 0.879867 2.417033 0
M  V30 19 C 1.435675 0.916025 2.060806 0
M  V30 20 C 0.541665 1.449340 3.117121 0
M  V30 21 F 0.752545 0.784219 4.320796 0
M  V30 22 F 0.842851 2.796619 3.270591 0
M  V30 23 F -0.783788 1.333617 2.781123 0
M  V30 24 C 1.048755 0.489310 0.812006 0
M  V30 25 N -0.927523 -0.778892 -1.237158 0
M  V30 26 H -4.900285 -2.574595 -1.513110 0
M  V30 27 H -5.281792 -0.799016 -1.892243 0
M  V30 28 H -4.254510 -1.800423 -2.975662 0
M  V30 29 H -4.667862 -0.286158 0.229569 0
M  V30 30 H -4.157130 -1.995658 0.583467 0
M  V30 31 H -1.872484 -1.246994 1.157980 0
M  V30 32 H -2.337652 0.441932 0.735957 0
M  V30 33 H -2.654741 -0.650738 3.167560 0
M  V30 34 H -3.679006 0.572493 2.487581 0
M  V30 35 H -1.145862 -1.653588 -4.935768 0
M  V30 36 H 0.902465 -0.889572 -6.435517 0
M  V30 37 H 1.444954 -2.202570 -6.187017 0
M  V30 38 H 2.318467 -0.477133 -2.061113 0
M  V30 39 H 3.994980 -0.369553 -0.423980 0
M  V30 40 H 4.726165 0.358016 1.737137 0
M  V30 41 H 3.144700 1.194625 3.376636 0
M  V30 42 H 0.008323 0.538970 0.577833 0
M  V30 END ATOM
M  V30 BEGIN BOND
M  V30 1 1 1 2
M  V30 2 1 2 3
M  V30 3 1 3 4
M  V30 4 1 4 5
M  V30 5 1 2 6
M  V30 6 2 6 7
M  V30 7 1 7 8
M  V30 8 2 8 9
M  V30 9 1 9 10
M  V30 10 1 10 11
M  V30 11 2 10 12
M  V30 12 1 9 13
M  V30 13 1 13 14
M  V30 14 1 14 15
M  V30 15 2 15 16
M  V30 16 1 16 17
M  V30 17 2 17 18
M  V30 18 1 18 19
M  V30 19 1 19 20
M  V30 20 1 20 21
M  V30 21 1 20 22
M  V30 22 1 20 23
M  V30 23 2 19 24
M  V30 24 2 13 25
M  V30 25 1 25 6
M  V30 26 1 24 15
M  V30 27 1 1 26
M  V30 28 1 1 27
M  V30 29 1 1 28
M  V30 30 1 3 29
M  V30 31 1 3 30
M  V30 32 1 4 31
M  V30 33 1 4 32
M  V30 34 1 5 33
M  V30 35 1 5 34
M  V30 36 1 8 35
M  V30 37 1 11 36
M  V30 38 1 11 37
M  V30 39 1 14 38
M  V30 40 1 16 39
M  V30 41 1 17 40
M  V30 42 1 18 41
M  V30 43 1 24 42
M  V30 END BOND
M  V30 END CTAB
M  END
>  <Dataset>  (516) 
ChEMBL_Kinases

>  <Ligand_Instance>  (516) 
nan

>  <PDB_ID>  (516) 
nan

>  <Standardized_SMILES>  (516) 
CN(CCN)c1ncc(C(N)=O)c(Nc2cccc(C(F)(F)F)c2)n1

>  <Name>  (516) 
nan

>  <Pocket>  (516) 
nan

>  <ATP_Site>  (516) 
nan

>  <Peripheral>  (516) 
nan

>  <Num_H_Atoms_ProtBoundConf>  (516) 
nan

>  <Num_Resolved_Atoms>  (516) 
nan

>  <Num_Not_Resolved_Atoms>  (516) 
nan

$$$$
CHEMBL4534302
     RDKit          3D

  0  0  0  0  0  0  0  0  0  0999 V3000
M  V30 BEGIN CTAB
M  V30 COUNTS 72 76 0 0 0
M  V30 BEGIN ATOM
M  V30 1 C 1.657581 -3.544546 4.556789 0
M  V30 2 C 2.346677 -2.215502 4.691567 0
M  V30 3 C 1.740994 -1.148165 3.824245 0 CFG=2
M  V30 4 C 0.296725 -0.866614 4.108653 0
M  V30 5 O 0.117175 -0.600713 5.469420 0
M  V30 6 N 1.989326 -1.437736 2.413254 0
M  V30 7 C 1.541797 -0.642795 1.316087 0
M  V30 8 C 2.291083 0.401063 0.877278 0
M  V30 9 C 1.867200 1.188322 -0.198215 0
M  V30 10 N 2.625344 2.275750 -0.676843 0
M  V30 11 C 2.304413 3.144455 -1.751457 0
M  V30 12 C 3.358093 4.225676 -2.015620 0
M  V30 13 C 2.869888 5.041408 -3.162660 0
M  V30 14 C 2.279269 6.375458 -2.780097 0
M  V30 15 O 2.952407 6.994164 -1.757042 0
M  V30 16 C 2.758692 6.226064 -0.613352 0
M  V30 17 C 3.684696 5.014344 -0.790659 0
M  V30 18 N 0.679717 0.838349 -0.756983 0
M  V30 19 N 0.045839 1.388396 -1.769476 0
M  V30 20 C -1.104527 0.735476 -2.014555 0
M  V30 21 C -1.209450 -0.296993 -1.098710 0
M  V30 22 C -2.218397 -1.354605 -0.850881 0
M  V30 23 C -2.693169 -1.663848 0.405289 0
M  V30 24 C -3.624060 -2.670704 0.580754 0
M  V30 25 C -4.035320 -3.329341 -0.560564 0
M  V30 26 C -5.025433 -4.426520 -0.455669 0
M  V30 27 O -6.200734 -4.693554 -0.737139 0
M  V30 28 N -4.415872 -5.560131 0.191367 0
M  V30 29 C -5.082643 -6.795623 0.458360 0
M  V30 30 C -4.283634 -8.038543 -0.044608 0
M  V30 31 C -4.632465 -7.796235 1.403434 0
M  V30 32 C -3.577354 -3.044574 -1.851980 0
M  V30 33 C -4.058650 -3.792604 -3.035885 0
M  V30 34 C -2.643967 -2.029774 -1.999319 0
M  V30 35 C -0.053962 -0.206406 -0.306730 0
M  V30 36 N 0.373219 -0.945894 0.725677 0
M  V30 37 H 2.352447 -4.295817 5.004521 0
M  V30 38 H 1.534928 -3.815358 3.496237 0
M  V30 39 H 0.707212 -3.590319 5.122127 0
M  V30 40 H 3.389483 -2.370210 4.297371 0
M  V30 41 H 2.423787 -1.898915 5.735077 0
M  V30 42 H 2.361421 -0.221664 4.018454 0
M  V30 43 H -0.330987 -1.722899 3.813585 0
M  V30 44 H 0.017980 0.078060 3.586758 0
M  V30 45 H 0.669437 0.192834 5.726596 0
M  V30 46 H 2.503669 -2.218722 1.919521 0
M  V30 47 H 3.233831 0.676516 1.325197 0
M  V30 48 H 3.538215 2.474995 -0.188825 0
M  V30 49 H 2.317937 2.522989 -2.699770 0
M  V30 50 H 1.286513 3.574805 -1.759687 0
M  V30 51 H 4.323687 3.740414 -2.329659 0
M  V30 52 H 2.132325 4.454719 -3.779180 0
M  V30 53 H 3.723534 5.252814 -3.843681 0
M  V30 54 H 1.226755 6.207885 -2.445121 0
M  V30 55 H 2.218574 7.063522 -3.652034 0
M  V30 56 H 1.736536 5.819125 -0.614220 0
M  V30 57 H 3.040738 6.740134 0.318082 0
M  V30 58 H 4.710304 5.464677 -0.836243 0
M  V30 59 H 3.636806 4.479747 0.153544 0
M  V30 60 H -1.908863 0.857488 -2.745219 0
M  V30 61 H -2.318801 -1.100487 1.248585 0
M  V30 62 H -4.015133 -2.934756 1.550926 0
M  V30 63 H -3.408927 -5.600071 0.540620 0
M  V30 64 H -6.143854 -6.835940 0.135761 0
M  V30 65 H -4.831411 -8.799289 -0.612521 0
M  V30 66 H -3.234338 -7.875094 -0.348985 0
M  V30 67 H -3.757224 -7.688641 2.072141 0
M  V30 68 H -5.375772 -8.519523 1.804766 0
M  V30 69 H -4.724351 -4.616020 -2.684820 0
M  V30 70 H -3.180505 -4.230233 -3.547619 0
M  V30 71 H -4.611557 -3.134426 -3.716794 0
M  V30 72 H -2.282622 -1.797979 -2.988587 0
M  V30 END ATOM
M  V30 BEGIN BOND
M  V30 1 1 1 2
M  V30 2 1 2 3
M  V30 3 1 3 4
M  V30 4 1 4 5
M  V30 5 1 3 6
M  V30 6 1 6 7
M  V30 7 1 7 8
M  V30 8 2 8 9
M  V30 9 1 9 10
M  V30 10 1 10 11
M  V30 11 1 11 12
M  V30 12 1 12 13
M  V30 13 1 13 14
M  V30 14 1 14 15
M  V30 15 1 15 16
M  V30 16 1 16 17
M  V30 17 1 9 18
M  V30 18 1 18 19
M  V30 19 2 19 20
M  V30 20 1 20 21
M  V30 21 1 21 22
M  V30 22 2 22 23
M  V30 23 1 23 24
M  V30 24 2 24 25
M  V30 25 1 25 26
M  V30 26 2 26 27
M  V30 27 1 26 28
M  V30 28 1 28 29
M  V30 29 1 29 30
M  V30 30 1 30 31
M  V30 31 1 25 32
M  V30 32 1 32 33
M  V30 33 2 32 34
M  V30 34 2 21 35
M  V30 35 1 35 36
M  V30 36 2 36 7
M  V30 37 1 17 12
M  V30 38 1 35 18
M  V30 39 1 34 22
M  V30 40 1 31 29
M  V30 41 1 1 37
M  V30 42 1 1 38
M  V30 43 1 1 39
M  V30 44 1 2 40
M  V30 45 1 2 41
M  V30 46 1 3 42 CFG=1
M  V30 47 1 4 43
M  V30 48 1 4 44
M  V30 49 1 5 45
M  V30 50 1 6 46
M  V30 51 1 8 47
M  V30 52 1 10 48
M  V30 53 1 11 49
M  V30 54 1 11 50
M  V30 55 1 12 51
M  V30 56 1 13 52
M  V30 57 1 13 53
M  V30 58 1 14 54
M  V30 59 1 14 55
M  V30 60 1 16 56
M  V30 61 1 16 57
M  V30 62 1 17 58
M  V30 63 1 17 59
M  V30 64 1 20 60
M  V30 65 1 23 61
M  V30 66 1 24 62
M  V30 67 1 28 63
M  V30 68 1 29 64
M  V30 69 1 30 65
M  V30 70 1 30 66
M  V30 71 1 31 67
M  V30 72 1 31 68
M  V30 73 1 33 69
M  V30 74 1 33 70
M  V30 75 1 33 71
M  V30 76 1 34 72
M  V30 END BOND
M  V30 END CTAB
M  END
>  <Dataset>  (517) 
ChEMBL_Kinases

>  <Ligand_Instance>  (517) 
nan

>  <PDB_ID>  (517) 
nan

>  <Standardized_SMILES>  (517) 
CC[C@H](CO)Nc1cc(NCC2CCOCC2)n2ncc(-c3ccc(C(=O)NC4CC4)c(C)c3)c2n1

>  <Name>  (517) 
nan

>  <Pocket>  (517) 
nan

>  <ATP_Site>  (517) 
nan

>  <Peripheral>  (517) 
nan

>  <Num_H_Atoms_ProtBoundConf>  (517) 
nan

>  <Num_Resolved_Atoms>  (517) 
nan

>  <Num_Not_Resolved_Atoms>  (517) 
nan

$$$$
CHEMBL4642561
     RDKit          3D

  0  0  0  0  0  0  0  0  0  0999 V3000
M  V30 BEGIN CTAB
M  V30 COUNTS 53 57 0 0 0
M  V30 BEGIN ATOM
M  V30 1 C 3.529600 -5.223319 3.022384 0
M  V30 2 C 2.110670 -4.958041 3.458284 0
M  V30 3 O 2.021811 -4.842481 4.838519 0
M  V30 4 C 1.626384 -3.666919 2.920584 0
M  V30 5 C 1.238440 -2.618267 2.462650 0
M  V30 6 C 0.795312 -1.373264 1.901203 0
M  V30 7 C 1.587502 -0.246085 1.971631 0
M  V30 8 C 1.174142 0.963210 1.433384 0
M  V30 9 C -0.067388 1.083329 0.796840 0
M  V30 10 N -0.205106 2.435754 0.353424 0
M  V30 11 C -0.167331 3.051545 -0.964355 0
M  V30 12 C 0.568886 4.384081 -0.939289 0
M  V30 13 O 0.228325 5.174130 0.128445 0
M  V30 14 C 0.488900 4.536093 1.341511 0
M  V30 15 C -0.449976 3.347846 1.450498 0
M  V30 16 C -0.871316 -0.031521 0.717012 0
M  V30 17 N -2.105063 0.169450 0.115402 0
M  V30 18 C -2.721388 0.462131 -1.099685 0
M  V30 19 N -4.027387 0.776191 -1.112859 0
M  V30 20 C -4.655189 1.033721 -2.267378 0
M  V30 21 N -4.033426 0.994729 -3.452960 0
M  V30 22 C -2.729495 0.688246 -3.521858 0
M  V30 23 N -1.877902 0.568828 -4.554205 0
M  V30 24 N -0.705449 0.231915 -4.039002 0
M  V30 25 C -0.806745 0.137608 -2.694224 0
M  V30 26 C -2.081573 0.420419 -2.309384 0
M  V30 27 C -0.415621 -1.210225 1.267476 0
M  V30 28 C 1.282123 -6.110267 2.943927 0
M  V30 29 N 1.390344 -7.085192 2.329312 0
M  V30 30 C 0.507201 -7.980614 1.991384 0
M  V30 31 C -0.775229 -7.708185 2.451256 0
M  V30 32 S -0.552446 -6.126253 3.356128 0
M  V30 33 H 3.770847 -4.539485 2.184875 0
M  V30 34 H 4.262785 -5.030869 3.852292 0
M  V30 35 H 3.674943 -6.266690 2.674730 0
M  V30 36 H 2.245064 -5.711963 5.253972 0
M  V30 37 H 2.547691 -0.386928 2.477738 0
M  V30 38 H 1.939574 1.741329 1.587832 0
M  V30 39 H -1.136269 3.162257 -1.443583 0
M  V30 40 H 0.479810 2.403222 -1.634677 0
M  V30 41 H 0.286327 4.912388 -1.876839 0
M  V30 42 H 1.668410 4.223720 -1.013527 0
M  V30 43 H 0.139848 5.254931 2.131218 0
M  V30 44 H 1.543669 4.267762 1.478865 0
M  V30 45 H -1.472646 3.773893 1.251831 0
M  V30 46 H -0.383522 2.883433 2.433930 0
M  V30 47 H -2.724277 0.029344 0.973222 0
M  V30 48 H -5.715055 1.285354 -2.242223 0
M  V30 49 H -2.140645 0.723570 -5.559232 0
M  V30 50 H -0.015150 -0.121255 -1.995274 0
M  V30 51 H -1.078397 -2.056548 1.182033 0
M  V30 52 H 0.346852 -8.906060 1.468345 0
M  V30 53 H -1.955403 -7.933979 2.586019 0
M  V30 END ATOM
M  V30 BEGIN BOND
M  V30 1 1 1 2
M  V30 2 1 2 3
M  V30 3 1 2 4
M  V30 4 3 4 5
M  V30 5 1 5 6
M  V30 6 2 6 7
M  V30 7 1 7 8
M  V30 8 2 8 9
M  V30 9 1 9 10
M  V30 10 1 10 11
M  V30 11 1 11 12
M  V30 12 1 12 13
M  V30 13 1 13 14
M  V30 14 1 14 15
M  V30 15 1 9 16
M  V30 16 1 16 17
M  V30 17 1 17 18
M  V30 18 2 18 19
M  V30 19 1 19 20
M  V30 20 2 20 21
M  V30 21 1 21 22
M  V30 22 1 22 23
M  V30 23 1 23 24
M  V30 24 2 24 25
M  V30 25 1 25 26
M  V30 26 2 16 27
M  V30 27 1 2 28
M  V30 28 2 28 29
M  V30 29 1 29 30
M  V30 30 2 30 31
M  V30 31 1 31 32
M  V30 32 1 27 6
M  V30 33 1 32 28
M  V30 34 1 15 10
M  V30 35 1 26 18
M  V30 36 2 26 22
M  V30 37 1 1 33
M  V30 38 1 1 34
M  V30 39 1 1 35
M  V30 40 1 3 36
M  V30 41 1 7 37
M  V30 42 1 8 38
M  V30 43 1 11 39
M  V30 44 1 11 40
M  V30 45 1 12 41
M  V30 46 1 12 42
M  V30 47 1 14 43
M  V30 48 1 14 44
M  V30 49 1 15 45
M  V30 50 1 15 46
M  V30 51 1 17 47
M  V30 52 1 20 48
M  V30 53 1 23 49
M  V30 54 1 25 50
M  V30 55 1 27 51
M  V30 56 1 30 52
M  V30 57 1 31 53
M  V30 END BOND
M  V30 END CTAB
M  END
>  <Dataset>  (518) 
ChEMBL_Kinases

>  <Ligand_Instance>  (518) 
nan

>  <PDB_ID>  (518) 
nan

>  <Standardized_SMILES>  (518) 
CC(O)(C#Cc1ccc(N2CCOCC2)c(Nc2ncnc3[nH]ncc23)c1)c1nccs1

>  <Name>  (518) 
nan

>  <Pocket>  (518) 
nan

>  <ATP_Site>  (518) 
nan

>  <Peripheral>  (518) 
nan

>  <Num_H_Atoms_ProtBoundConf>  (518) 
nan

>  <Num_Resolved_Atoms>  (518) 
nan

>  <Num_Not_Resolved_Atoms>  (518) 
nan

$$$$
CHEMBL4642620
     RDKit          3D

  0  0  0  0  0  0  0  0  0  0999 V3000
M  V30 BEGIN CTAB
M  V30 COUNTS 54 57 0 0 0
M  V30 BEGIN ATOM
M  V30 1 C -5.667134 -2.931281 0.584589 0
M  V30 2 O -4.910219 -4.001361 0.049272 0
M  V30 3 C -3.557691 -3.862141 -0.256688 0
M  V30 4 C -2.842263 -2.689946 -0.070103 0
M  V30 5 C -1.502799 -2.578318 -0.381485 0
M  V30 6 C -0.889315 -1.264202 -0.123657 0
M  V30 7 C 0.445860 -1.242473 0.220900 0
M  V30 8 N 0.995584 -0.038972 0.454115 0
M  V30 9 C 0.333884 1.125465 0.373218 0
M  V30 10 C 0.862319 2.324354 0.600363 0
M  V30 11 N 2.196864 2.720193 0.972742 0
M  V30 12 C 2.589212 4.098522 1.179702 0
M  V30 13 C 3.615846 4.133605 2.264166 0 CFG=1
M  V30 14 C 3.601398 5.457483 2.994224 0
M  V30 15 O 3.482208 3.126946 3.216310 0
M  V30 16 C 3.615509 1.850397 2.692177 0 CFG=1
M  V30 17 C 2.580489 0.986405 3.376502 0
M  V30 18 C 3.347451 1.872971 1.201645 0
M  V30 19 S -0.360610 3.537072 0.378882 0
M  V30 20 N -1.687685 2.284290 -0.057461 0
M  V30 21 C -0.997195 1.126584 0.031515 0
M  V30 22 C -1.601343 -0.087716 -0.216497 0
M  V30 23 C -0.852044 -3.658540 -0.892572 0
M  V30 24 C -1.542334 -4.835863 -1.087271 0
M  V30 25 O -0.941032 -5.955317 -1.597991 0
M  V30 26 C 0.407204 -6.051006 -1.977432 0
M  V30 27 C -2.899476 -4.958010 -0.774677 0
M  V30 28 O -3.611594 -6.147136 -0.967521 0
M  V30 29 C -4.228701 -6.275168 -2.253533 0
M  V30 30 H -6.599668 -3.347584 0.996312 0
M  V30 31 H -5.893895 -2.188177 -0.187652 0
M  V30 32 H -5.128372 -2.459528 1.457122 0
M  V30 33 H -3.473606 -1.892895 0.346109 0
M  V30 34 H 1.017724 -2.167498 0.297092 0
M  V30 35 H 1.716250 4.748540 1.394449 0
M  V30 36 H 3.065462 4.440196 0.234229 0
M  V30 37 H 4.620218 4.027186 1.807832 0
M  V30 38 H 2.600282 5.855390 3.177039 0
M  V30 39 H 4.101488 5.317862 3.980688 0
M  V30 40 H 4.249413 6.182094 2.442474 0
M  V30 41 H 4.605008 1.388012 2.857410 0
M  V30 42 H 2.417822 0.018832 2.896200 0
M  V30 43 H 2.891818 0.789007 4.421287 0
M  V30 44 H 1.592632 1.490567 3.459162 0
M  V30 45 H 4.259908 2.234986 0.685839 0
M  V30 46 H 3.156157 0.870464 0.821352 0
M  V30 47 H -2.632261 -0.230933 -0.492214 0
M  V30 48 H 0.187652 -3.561110 -1.130824 0
M  V30 49 H 1.078523 -5.815325 -1.124596 0
M  V30 50 H 0.660944 -5.352445 -2.794628 0
M  V30 51 H 0.591372 -7.116933 -2.262273 0
M  V30 52 H -4.775645 -7.230064 -2.350118 0
M  V30 53 H -4.928195 -5.403300 -2.395764 0
M  V30 54 H -3.472465 -6.187634 -3.061259 0
M  V30 END ATOM
M  V30 BEGIN BOND
M  V30 1 1 1 2
M  V30 2 1 2 3
M  V30 3 2 3 4
M  V30 4 1 4 5
M  V30 5 1 5 6
M  V30 6 1 6 7
M  V30 7 2 7 8
M  V30 8 1 8 9
M  V30 9 2 9 10
M  V30 10 1 10 11
M  V30 11 1 11 12
M  V30 12 1 12 13
M  V30 13 1 13 14
M  V30 14 1 13 15
M  V30 15 1 15 16
M  V30 16 1 16 17
M  V30 17 1 16 18
M  V30 18 1 10 19
M  V30 19 1 19 20
M  V30 20 2 20 21
M  V30 21 1 21 22
M  V30 22 2 5 23
M  V30 23 1 23 24
M  V30 24 1 24 25
M  V30 25 1 25 26
M  V30 26 2 24 27
M  V30 27 1 27 28
M  V30 28 1 28 29
M  V30 29 1 27 3
M  V30 30 2 22 6
M  V30 31 1 21 9
M  V30 32 1 18 11
M  V30 33 1 1 30
M  V30 34 1 1 31
M  V30 35 1 1 32
M  V30 36 1 4 33
M  V30 37 1 7 34
M  V30 38 1 12 35
M  V30 39 1 12 36
M  V30 40 1 13 37 CFG=3
M  V30 41 1 14 38
M  V30 42 1 14 39
M  V30 43 1 14 40
M  V30 44 1 16 41 CFG=3
M  V30 45 1 17 42
M  V30 46 1 17 43
M  V30 47 1 17 44
M  V30 48 1 18 45
M  V30 49 1 18 46
M  V30 50 1 22 47
M  V30 51 1 23 48
M  V30 52 1 26 49
M  V30 53 1 26 50
M  V30 54 1 26 51
M  V30 55 1 29 52
M  V30 56 1 29 53
M  V30 57 1 29 54
M  V30 END BOND
M  V30 END CTAB
M  END
>  <Dataset>  (519) 
ChEMBL_Kinases

>  <Ligand_Instance>  (519) 
nan

>  <PDB_ID>  (519) 
nan

>  <Standardized_SMILES>  (519) 
COc1cc(-c2cnc3c(N4C[C@@H](C)O[C@@H](C)C4)snc3c2)cc(OC)c1OC

>  <Name>  (519) 
nan

>  <Pocket>  (519) 
nan

>  <ATP_Site>  (519) 
nan

>  <Peripheral>  (519) 
nan

>  <Num_H_Atoms_ProtBoundConf>  (519) 
nan

>  <Num_Resolved_Atoms>  (519) 
nan

>  <Num_Not_Resolved_Atoms>  (519) 
nan

$$$$
CHEMBL4642622
     RDKit          3D

  0  0  0  0  0  0  0  0  0  0999 V3000
M  V30 BEGIN CTAB
M  V30 COUNTS 59 62 0 0 0
M  V30 BEGIN ATOM
M  V30 1 C 1.439121 -4.564075 4.496375 0
M  V30 2 O 1.091626 -5.551671 3.545396 0
M  V30 3 C 0.999101 -5.315068 2.181967 0
M  V30 4 C 1.260492 -4.044806 1.729444 0
M  V30 5 C 1.182304 -3.757100 0.383615 0
M  V30 6 C 1.404193 -2.508861 -0.332685 0
M  V30 7 C 2.205229 -2.589474 -1.478146 0
M  V30 8 N 2.486902 -1.490910 -2.235214 0
M  V30 9 C 1.950882 -0.306632 -1.824057 0
M  V30 10 C 1.144699 -0.178372 -0.685951 0
M  V30 11 C 0.662873 1.167759 -0.404094 0
M  V30 12 C 0.662588 1.842042 0.799278 0
M  V30 13 C 0.163000 3.122925 0.905665 0
M  V30 14 C -0.362420 3.808989 -0.164488 0
M  V30 15 N -0.863344 5.126525 -0.008598 0
M  V30 16 C -0.814491 5.873921 1.232046 0
M  V30 17 C -2.260854 5.973774 1.712852 0
M  V30 18 O -3.149156 5.683594 0.706305 0
M  V30 19 C -2.866323 6.296849 -0.490699 0
M  V30 20 C -1.494017 5.906277 -1.055162 0
M  V30 21 C -0.363841 3.140205 -1.365926 0
M  V30 22 C 0.139388 1.839623 -1.491071 0
M  V30 23 C 0.884426 -1.295250 0.045632 0
M  V30 24 C 0.043919 -1.189043 1.231106 0
M  V30 25 C 0.827662 -4.831797 -0.443249 0
M  V30 26 C 0.563960 -6.108240 0.001578 0
M  V30 27 O 0.219977 -7.137921 -0.828793 0
M  V30 28 C 0.084208 -7.066541 -2.218090 0
M  V30 29 C 0.651341 -6.362437 1.357560 0
M  V30 30 O 0.398834 -7.624502 1.872717 0
M  V30 31 C -0.926074 -7.970893 2.265007 0
M  V30 32 H 2.183046 -3.841380 4.152544 0
M  V30 33 H 1.927798 -5.117259 5.351714 0
M  V30 34 H 0.487018 -4.099314 4.874353 0
M  V30 35 H 1.538207 -3.191685 2.329291 0
M  V30 36 H 2.672835 -3.492220 -1.877928 0
M  V30 37 H 2.183007 0.566183 -2.438050 0
M  V30 38 H 1.081418 1.287509 1.626770 0
M  V30 39 H 0.230129 3.507400 1.892052 0
M  V30 40 H -0.150191 5.476171 1.992802 0
M  V30 41 H -0.521329 6.944471 1.031876 0
M  V30 42 H -2.446892 5.263966 2.543750 0
M  V30 43 H -2.482561 6.987132 2.145121 0
M  V30 44 H -3.017401 7.373505 -0.428396 0
M  V30 45 H -3.622892 5.908388 -1.222071 0
M  V30 46 H -0.929301 6.876707 -1.106600 0
M  V30 47 H -1.577764 5.415429 -2.019283 0
M  V30 48 H -0.755547 3.598579 -2.260819 0
M  V30 49 H 0.100804 1.381386 -2.478721 0
M  V30 50 H 0.639074 -0.997624 2.122302 0
M  V30 51 H -0.463938 -2.186486 1.384440 0
M  V30 52 H -0.780090 -0.459538 1.144751 0
M  V30 53 H 0.733974 -4.723726 -1.531493 0
M  V30 54 H -0.311277 -6.118398 -2.589968 0
M  V30 55 H -0.647399 -7.868376 -2.501853 0
M  V30 56 H 1.046438 -7.344627 -2.707908 0
M  V30 57 H -1.038422 -9.062034 2.339126 0
M  V30 58 H -1.617079 -7.493105 1.543875 0
M  V30 59 H -1.159003 -7.494882 3.257548 0
M  V30 END ATOM
M  V30 BEGIN BOND
M  V30 1 1 1 2
M  V30 2 1 2 3
M  V30 3 2 3 4
M  V30 4 1 4 5
M  V30 5 1 5 6
M  V30 6 2 6 7
M  V30 7 1 7 8
M  V30 8 2 8 9
M  V30 9 1 9 10
M  V30 10 1 10 11
M  V30 11 2 11 12
M  V30 12 1 12 13
M  V30 13 2 13 14
M  V30 14 1 14 15
M  V30 15 1 15 16
M  V30 16 1 16 17
M  V30 17 1 17 18
M  V30 18 1 18 19
M  V30 19 1 19 20
M  V30 20 1 14 21
M  V30 21 2 21 22
M  V30 22 2 10 23
M  V30 23 1 23 24
M  V30 24 2 5 25
M  V30 25 1 25 26
M  V30 26 1 26 27
M  V30 27 1 27 28
M  V30 28 2 26 29
M  V30 29 1 29 30
M  V30 30 1 30 31
M  V30 31 1 29 3
M  V30 32 1 23 6
M  V30 33 1 22 11
M  V30 34 1 20 15
M  V30 35 1 1 32
M  V30 36 1 1 33
M  V30 37 1 1 34
M  V30 38 1 4 35
M  V30 39 1 7 36
M  V30 40 1 9 37
M  V30 41 1 12 38
M  V30 42 1 13 39
M  V30 43 1 16 40
M  V30 44 1 16 41
M  V30 45 1 17 42
M  V30 46 1 17 43
M  V30 47 1 19 44
M  V30 48 1 19 45
M  V30 49 1 20 46
M  V30 50 1 20 47
M  V30 51 1 21 48
M  V30 52 1 22 49
M  V30 53 1 24 50
M  V30 54 1 24 51
M  V30 55 1 24 52
M  V30 56 1 25 53
M  V30 57 1 28 54
M  V30 58 1 28 55
M  V30 59 1 28 56
M  V30 60 1 31 57
M  V30 61 1 31 58
M  V30 62 1 31 59
M  V30 END BOND
M  V30 END CTAB
M  END
>  <Dataset>  (520) 
ChEMBL_Kinases

>  <Ligand_Instance>  (520) 
nan

>  <PDB_ID>  (520) 
nan

>  <Standardized_SMILES>  (520) 
COc1cc(-c2cncc(-c3ccc(N4CCOCC4)cc3)c2C)cc(OC)c1OC

>  <Name>  (520) 
nan

>  <Pocket>  (520) 
nan

>  <ATP_Site>  (520) 
nan

>  <Peripheral>  (520) 
nan

>  <Num_H_Atoms_ProtBoundConf>  (520) 
nan

>  <Num_Resolved_Atoms>  (520) 
nan

>  <Num_Not_Resolved_Atoms>  (520) 
nan

$$$$
CHEMBL4534280
     RDKit          3D

  0  0  0  0  0  0  0  0  0  0999 V3000
M  V30 BEGIN CTAB
M  V30 COUNTS 38 40 0 0 0
M  V30 BEGIN ATOM
M  V30 1 C -1.194103 -5.374915 2.109653 0
M  V30 2 C 0.032902 -4.696361 1.583354 0
M  V30 3 C 0.913699 -4.378516 2.768858 0
M  V30 4 O 0.760853 -5.562527 0.774380 0
M  V30 5 C -0.348392 -3.484639 0.843024 0
M  V30 6 C -0.646475 -2.483743 0.218491 0
M  V30 7 C -0.977830 -1.299843 -0.533523 0
M  V30 8 C -1.612221 -1.346182 -1.759631 0
M  V30 9 C -1.906773 -0.162783 -2.440205 0
M  V30 10 C -1.568763 1.079639 -1.899392 0
M  V30 11 C -0.934567 1.156447 -0.676479 0
M  V30 12 C -0.529936 2.384834 -0.005224 0
M  V30 13 C -1.117592 3.591779 0.232519 0
M  V30 14 N -0.267795 4.397621 0.923049 0
M  V30 15 C 0.895663 3.737858 1.153662 0
M  V30 16 C 2.068178 4.084869 1.796328 0
M  V30 17 N 3.069426 3.179959 1.858106 0
M  V30 18 C 2.932591 1.960038 1.304938 0
M  V30 19 N 3.915687 0.926841 1.306946 0
M  V30 20 N 1.784251 1.649099 0.687247 0
M  V30 21 C 0.730910 2.494688 0.579111 0
M  V30 22 C -0.669599 -0.044004 -0.051707 0
M  V30 23 H -1.611897 -6.003156 1.295101 0
M  V30 24 H -1.935386 -4.652909 2.472400 0
M  V30 25 H -0.856021 -6.028522 2.963643 0
M  V30 26 H 0.432212 -3.734467 3.522304 0
M  V30 27 H 1.134622 -5.340014 3.258331 0
M  V30 28 H 1.909708 -3.971497 2.462482 0
M  V30 29 H 1.508865 -5.033570 0.376465 0
M  V30 30 H -1.876731 -2.305585 -2.184010 0
M  V30 31 H -2.401193 -0.162294 -3.399181 0
M  V30 32 H -1.782027 2.008509 -2.398786 0
M  V30 33 H -2.129015 3.793188 -0.118839 0
M  V30 34 H -0.483848 5.380654 1.229108 0
M  V30 35 H 2.187112 5.059160 2.242258 0
M  V30 36 H 4.620385 1.011165 0.527703 0
M  V30 37 H 3.597117 0.378211 2.142345 0
M  V30 38 H -0.169298 -0.030164 0.917350 0
M  V30 END ATOM
M  V30 BEGIN BOND
M  V30 1 1 1 2
M  V30 2 1 2 3
M  V30 3 1 2 4
M  V30 4 1 2 5
M  V30 5 3 5 6
M  V30 6 1 6 7
M  V30 7 2 7 8
M  V30 8 1 8 9
M  V30 9 2 9 10
M  V30 10 1 10 11
M  V30 11 1 11 12
M  V30 12 2 12 13
M  V30 13 1 13 14
M  V30 14 1 14 15
M  V30 15 2 15 16
M  V30 16 1 16 17
M  V30 17 2 17 18
M  V30 18 1 18 19
M  V30 19 1 18 20
M  V30 20 2 20 21
M  V30 21 2 11 22
M  V30 22 1 22 7
M  V30 23 1 21 12
M  V30 24 1 21 15
M  V30 25 1 1 23
M  V30 26 1 1 24
M  V30 27 1 1 25
M  V30 28 1 3 26
M  V30 29 1 3 27
M  V30 30 1 3 28
M  V30 31 1 4 29
M  V30 32 1 8 30
M  V30 33 1 9 31
M  V30 34 1 10 32
M  V30 35 1 13 33
M  V30 36 1 14 34
M  V30 37 1 16 35
M  V30 38 1 19 36
M  V30 39 1 19 37
M  V30 40 1 22 38
M  V30 END BOND
M  V30 END CTAB
M  END
>  <Dataset>  (521) 
ChEMBL_Kinases

>  <Ligand_Instance>  (521) 
nan

>  <PDB_ID>  (521) 
nan

>  <Standardized_SMILES>  (521) 
CC(C)(O)C#Cc1cccc(-c2c[nH]c3cnc(N)nc23)c1

>  <Name>  (521) 
nan

>  <Pocket>  (521) 
nan

>  <ATP_Site>  (521) 
nan

>  <Peripheral>  (521) 
nan

>  <Num_H_Atoms_ProtBoundConf>  (521) 
nan

>  <Num_Resolved_Atoms>  (521) 
nan

>  <Num_Not_Resolved_Atoms>  (521) 
nan

$$$$
CHEMBL4642636
     RDKit          3D

  0  0  0  0  0  0  0  0  0  0999 V3000
M  V30 BEGIN CTAB
M  V30 COUNTS 50 53 0 0 0
M  V30 BEGIN ATOM
M  V30 1 C 0.732056 -3.054913 3.675798 0
M  V30 2 O 1.628050 -2.241620 2.955102 0
M  V30 3 C 2.837285 -2.655612 2.468753 0
M  V30 4 C 3.228209 -3.977140 2.694028 0
M  V30 5 C 4.433714 -4.444729 2.226856 0
M  V30 6 C 5.283832 -3.610113 1.522511 0
M  V30 7 C 4.857037 -2.312124 1.323323 0
M  V30 8 C 3.658455 -1.796056 1.771219 0
M  V30 9 N 3.311873 -0.443684 1.512280 0
M  V30 10 C 2.137258 0.191326 1.560219 0
M  V30 11 C 2.270440 1.521827 1.224810 0
M  V30 12 C 1.288444 2.632472 1.127590 0
M  V30 13 S 0.569379 2.779532 -0.528839 0
M  V30 14 C -0.449657 1.386553 -0.967573 0
M  V30 15 N -0.640021 0.393958 -0.165346 0
M  V30 16 C -1.463062 -0.754062 -0.489214 0
M  V30 17 C -2.784628 -0.531603 0.135353 0
M  V30 18 C -4.005314 -0.747135 -0.467805 0
M  V30 19 C -5.231305 -0.539317 0.105612 0
M  V30 20 C -5.261975 -0.068305 1.414966 0
M  V30 21 C -4.063198 0.162768 2.061690 0
M  V30 22 C -2.840829 -0.062432 1.439870 0
M  V30 23 C -1.525646 -0.923811 -1.970403 0
M  V30 24 C -1.859783 0.342551 -2.675302 0
M  V30 25 O -2.751447 0.526852 -3.543285 0
M  V30 26 N -1.042552 1.440637 -2.281993 0
M  V30 27 C -0.814582 2.584140 -3.175588 0
M  V30 28 N 3.605404 1.659539 0.967976 0
M  V30 29 N 4.195347 0.489571 1.144122 0
M  V30 30 H 1.240318 -3.431346 4.574169 0
M  V30 31 H -0.162655 -2.447141 3.914767 0
M  V30 32 H 0.411741 -3.874525 2.973192 0
M  V30 33 H 2.610979 -4.674281 3.234993 0
M  V30 34 H 4.777380 -5.447766 2.373853 0
M  V30 35 H 6.261419 -3.903401 1.115260 0
M  V30 36 H 5.509533 -1.622561 0.766945 0
M  V30 37 H 1.211986 -0.252233 1.820748 0
M  V30 38 H 1.836870 3.591427 1.298713 0
M  V30 39 H 0.497621 2.487543 1.904710 0
M  V30 40 H -1.000022 -1.649712 -0.042104 0
M  V30 41 H -4.000782 -1.113072 -1.485002 0
M  V30 42 H -6.142180 -0.744830 -0.467771 0
M  V30 43 H -6.224469 0.102337 1.885701 0
M  V30 44 H -4.178151 0.532287 3.088096 0
M  V30 45 H -1.939090 0.138862 2.003183 0
M  V30 46 H -0.525698 -1.243155 -2.329033 0
M  V30 47 H -2.232305 -1.676351 -2.316865 0
M  V30 48 H -1.723180 2.761720 -3.775312 0
M  V30 49 H 0.014757 2.391382 -3.875317 0
M  V30 50 H -0.645332 3.484311 -2.560391 0
M  V30 END ATOM
M  V30 BEGIN BOND
M  V30 1 1 1 2
M  V30 2 1 2 3
M  V30 3 2 3 4
M  V30 4 1 4 5
M  V30 5 2 5 6
M  V30 6 1 6 7
M  V30 7 2 7 8
M  V30 8 1 8 9
M  V30 9 1 9 10
M  V30 10 2 10 11
M  V30 11 1 11 12
M  V30 12 1 12 13
M  V30 13 1 13 14
M  V30 14 2 14 15
M  V30 15 1 15 16
M  V30 16 1 16 17
M  V30 17 2 17 18
M  V30 18 1 18 19
M  V30 19 2 19 20
M  V30 20 1 20 21
M  V30 21 2 21 22
M  V30 22 1 16 23
M  V30 23 1 23 24
M  V30 24 2 24 25
M  V30 25 1 24 26
M  V30 26 1 26 27
M  V30 27 1 11 28
M  V30 28 2 28 29
M  V30 29 1 8 3
M  V30 30 1 29 9
M  V30 31 1 26 14
M  V30 32 1 22 17
M  V30 33 1 1 30
M  V30 34 1 1 31
M  V30 35 1 1 32
M  V30 36 1 4 33
M  V30 37 1 5 34
M  V30 38 1 6 35
M  V30 39 1 7 36
M  V30 40 1 10 37
M  V30 41 1 12 38
M  V30 42 1 12 39
M  V30 43 1 16 40
M  V30 44 1 18 41
M  V30 45 1 19 42
M  V30 46 1 20 43
M  V30 47 1 21 44
M  V30 48 1 22 45
M  V30 49 1 23 46
M  V30 50 1 23 47
M  V30 51 1 27 48
M  V30 52 1 27 49
M  V30 53 1 27 50
M  V30 END BOND
M  V30 END CTAB
M  END
>  <Dataset>  (522) 
ChEMBL_Kinases

>  <Ligand_Instance>  (522) 
nan

>  <PDB_ID>  (522) 
nan

>  <Standardized_SMILES>  (522) 
COc1ccccc1-n1cc(CSC2=NC(c3ccccc3)CC(=O)N2C)nn1

>  <Name>  (522) 
nan

>  <Pocket>  (522) 
nan

>  <ATP_Site>  (522) 
nan

>  <Peripheral>  (522) 
nan

>  <Num_H_Atoms_ProtBoundConf>  (522) 
nan

>  <Num_Resolved_Atoms>  (522) 
nan

>  <Num_Not_Resolved_Atoms>  (522) 
nan

$$$$
CHEMBL4642796
     RDKit          3D

  0  0  0  0  0  0  0  0  0  0999 V3000
M  V30 BEGIN CTAB
M  V30 COUNTS 45 48 0 0 0
M  V30 BEGIN ATOM
M  V30 1 C 3.546791 -3.424547 -3.573063 0
M  V30 2 N 3.342567 -3.742957 -2.172413 0
M  V30 3 S 4.336473 -2.738871 -1.206143 0
M  V30 4 O 5.773662 -3.049853 -1.517442 0
M  V30 5 O 4.136896 -3.194554 0.232612 0
M  V30 6 C 3.974011 -1.058896 -1.383230 0
M  V30 7 C 4.611872 -0.268803 -2.347788 0
M  V30 8 C 4.261335 1.058606 -2.416013 0
M  V30 9 C 3.331468 1.664310 -1.606773 0
M  V30 10 C 2.687394 0.891503 -0.641621 0
M  V30 11 C 1.673315 1.410035 0.290448 0
M  V30 12 C 1.659696 2.706597 0.789634 0
M  V30 13 C 0.642404 3.083305 1.669748 0
M  V30 14 C -0.346632 2.201455 2.054346 0
M  V30 15 N -1.408276 2.313443 2.866999 0
M  V30 16 C -2.042403 1.101372 2.869624 0
M  V30 17 N -3.218017 0.800126 3.610197 0
M  V30 18 C -3.926123 -0.430635 3.653333 0
M  V30 19 C -3.552840 -1.551610 2.947813 0
M  V30 20 C -4.230707 -2.769197 2.973642 0
M  V30 21 C -5.351232 -2.850258 3.762013 0
M  V30 22 C -5.758251 -1.752496 4.483436 0
M  V30 23 C -5.056415 -0.571652 4.425717 0
M  V30 24 C -5.569486 0.512775 5.220121 0
M  V30 25 N -5.976040 1.377508 5.873189 0
M  V30 26 N -1.315334 0.333846 2.052337 0
M  V30 27 N -0.275790 0.964359 1.535953 0
M  V30 28 C 0.676315 0.536343 0.683875 0
M  V30 29 C 3.047026 -0.450738 -0.578235 0
M  V30 30 H 2.700451 -2.870503 -4.000074 0
M  V30 31 H 4.474754 -2.825958 -3.675683 0
M  V30 32 H 3.760646 -4.368137 -4.153561 0
M  V30 33 H 3.543012 -4.741871 -1.984857 0
M  V30 34 H 5.351933 -0.694428 -3.010831 0
M  V30 35 H 4.749904 1.689300 -3.164832 0
M  V30 36 H 3.061854 2.709919 -1.667349 0
M  V30 37 H 2.440547 3.359864 0.469269 0
M  V30 38 H 0.629825 4.088816 2.058008 0
M  V30 39 H -3.622313 1.583400 4.205470 0
M  V30 40 H -2.683936 -1.544009 2.315348 0
M  V30 41 H -3.885058 -3.620282 2.392220 0
M  V30 42 H -5.897611 -3.801735 3.793872 0
M  V30 43 H -6.639704 -1.856994 5.088421 0
M  V30 44 H 0.610079 -0.506733 0.337954 0
M  V30 45 H 2.560775 -1.074167 0.164455 0
M  V30 END ATOM
M  V30 BEGIN BOND
M  V30 1 1 1 2
M  V30 2 1 2 3
M  V30 3 2 3 4
M  V30 4 2 3 5
M  V30 5 1 3 6
M  V30 6 2 6 7
M  V30 7 1 7 8
M  V30 8 2 8 9
M  V30 9 1 9 10
M  V30 10 1 10 11
M  V30 11 1 11 12
M  V30 12 2 12 13
M  V30 13 1 13 14
M  V30 14 2 14 15
M  V30 15 1 15 16
M  V30 16 1 16 17
M  V30 17 1 17 18
M  V30 18 2 18 19
M  V30 19 1 19 20
M  V30 20 2 20 21
M  V30 21 1 21 22
M  V30 22 2 22 23
M  V30 23 1 23 24
M  V30 24 3 24 25
M  V30 25 2 16 26
M  V30 26 1 26 27
M  V30 27 1 27 28
M  V30 28 2 10 29
M  V30 29 1 29 6
M  V30 30 2 28 11
M  V30 31 1 27 14
M  V30 32 1 23 18
M  V30 33 1 1 30
M  V30 34 1 1 31
M  V30 35 1 1 32
M  V30 36 1 2 33
M  V30 37 1 7 34
M  V30 38 1 8 35
M  V30 39 1 9 36
M  V30 40 1 12 37
M  V30 41 1 13 38
M  V30 42 1 17 39
M  V30 43 1 19 40
M  V30 44 1 20 41
M  V30 45 1 21 42
M  V30 46 1 22 43
M  V30 47 1 28 44
M  V30 48 1 29 45
M  V30 END BOND
M  V30 END CTAB
M  END
>  <Dataset>  (523) 
ChEMBL_Kinases

>  <Ligand_Instance>  (523) 
nan

>  <PDB_ID>  (523) 
nan

>  <Standardized_SMILES>  (523) 
CNS(=O)(=O)c1cccc(-c2ccc3nc(Nc4ccccc4C#N)nn3c2)c1

>  <Name>  (523) 
nan

>  <Pocket>  (523) 
nan

>  <ATP_Site>  (523) 
nan

>  <Peripheral>  (523) 
nan

>  <Num_H_Atoms_ProtBoundConf>  (523) 
nan

>  <Num_Resolved_Atoms>  (523) 
nan

>  <Num_Not_Resolved_Atoms>  (523) 
nan

$$$$
CHEMBL4642491
     RDKit          3D

  0  0  0  0  0  0  0  0  0  0999 V3000
M  V30 BEGIN CTAB
M  V30 COUNTS 71 76 0 0 0
M  V30 BEGIN ATOM
M  V30 1 C 6.877084 1.981850 -0.131159 0
M  V30 2 O 5.563952 1.674927 -0.532187 0
M  V30 3 C 5.204227 1.253770 -1.800282 0
M  V30 4 C 6.130499 1.092481 -2.802100 0
M  V30 5 C 5.685171 0.662281 -4.056452 0
M  V30 6 C 6.738564 0.508399 -5.066575 0
M  V30 7 O 7.752110 1.126861 -5.416705 0
M  V30 8 N 6.864007 -0.544338 -6.023474 0
M  V30 9 C 7.906053 -0.693057 -7.008925 0
M  V30 10 C 6.906463 -1.419970 -7.894642 0
M  V30 11 F 7.408217 -2.572304 -8.493198 0
M  V30 12 C 6.292949 -1.785546 -6.560872 0
M  V30 13 C 4.371129 0.384152 -4.371137 0
M  V30 14 C 3.461456 0.562685 -3.320121 0
M  V30 15 C 3.876362 0.988159 -2.066601 0
M  V30 16 N 2.958188 1.177937 -1.025142 0
M  V30 17 C 1.563242 1.033096 -0.805153 0
M  V30 18 N 0.589801 1.915243 -1.103141 0
M  V30 19 C -0.598511 1.394045 -0.713391 0
M  V30 20 C -1.836669 2.003960 -0.838848 0
M  V30 21 C -2.963564 1.351326 -0.380402 0
M  V30 22 C -2.745209 0.091632 0.188150 0
M  V30 23 C -3.815228 -0.730593 0.752387 0
M  V30 24 C -3.850899 -2.108483 0.771411 0
M  V30 25 C -4.952016 -2.657407 1.383147 0
M  V30 26 C -5.941285 -1.872828 1.932451 0
M  V30 27 N -6.960925 -2.655720 2.524739 0
M  V30 28 C -6.667315 -2.871633 3.871923 0
M  V30 29 O -5.604342 -2.387164 4.420827 0
M  V30 30 C -6.729449 -3.326011 5.290578 0 CFG=2
M  V30 31 C -8.011978 -2.817497 5.885331 0
M  V30 32 C -5.558249 -2.689644 5.993293 0
M  V30 33 C -5.642436 -1.329279 6.350611 0
M  V30 34 C -4.610493 -0.681190 6.981699 0
M  V30 35 C -3.460065 -1.329851 7.289055 0
M  V30 36 F -2.465484 -0.654829 7.910890 0
M  V30 37 C -3.381965 -2.642645 6.943782 0
M  V30 38 C -4.376841 -3.376949 6.303512 0
M  V30 39 C -5.915181 -0.492778 1.916712 0
M  V30 40 C -4.808741 0.064112 1.303009 0
M  V30 41 C -1.486167 -0.452855 0.279066 0
M  V30 42 N -0.378013 0.184006 -0.169510 0
M  V30 43 N 0.928467 -0.021622 -0.231476 0
M  V30 44 H 7.023060 1.736626 0.954607 0
M  V30 45 H 7.012411 3.095133 -0.253843 0
M  V30 46 H 7.654982 1.501065 -0.738810 0
M  V30 47 H 7.166281 1.282096 -2.656784 0
M  V30 48 H 8.691109 -1.436702 -6.709249 0
M  V30 49 H 8.306992 0.242549 -7.453231 0
M  V30 50 H 6.271297 -0.793482 -8.529625 0
M  V30 51 H 5.181484 -1.780793 -6.556923 0
M  V30 52 H 6.770382 -2.665638 -6.102935 0
M  V30 53 H 4.063857 0.056678 -5.346303 0
M  V30 54 H 2.390193 0.367900 -3.479113 0
M  V30 55 H 3.266956 1.528453 -0.068638 0
M  V30 56 H -1.955126 2.981131 -1.283557 0
M  V30 57 H -3.954346 1.730757 -0.429569 0
M  V30 58 H -2.993943 -2.556728 0.295400 0
M  V30 59 H -4.940242 -3.748584 1.375083 0
M  V30 60 H -7.852619 -3.191525 2.542779 0
M  V30 61 H -6.681125 -4.434391 5.343475 0
M  V30 62 H -7.899175 -2.445020 6.925847 0
M  V30 63 H -8.783355 -3.641604 5.829580 0
M  V30 64 H -8.423510 -2.014498 5.205414 0
M  V30 65 H -6.562379 -0.806300 6.107289 0
M  V30 66 H -4.790652 0.366734 7.208123 0
M  V30 67 H -2.475304 -3.191138 7.174002 0
M  V30 68 H -4.312004 -4.406836 6.032305 0
M  V30 69 H -6.729372 0.044141 2.369182 0
M  V30 70 H -4.826932 1.152245 1.313900 0
M  V30 71 H -1.298561 -1.438429 0.720113 0
M  V30 END ATOM
M  V30 BEGIN BOND
M  V30 1 1 1 2
M  V30 2 1 2 3
M  V30 3 2 3 4
M  V30 4 1 4 5
M  V30 5 1 5 6
M  V30 6 2 6 7
M  V30 7 1 6 8
M  V30 8 1 8 9
M  V30 9 1 9 10
M  V30 10 1 10 11
M  V30 11 1 10 12
M  V30 12 2 5 13
M  V30 13 1 13 14
M  V30 14 2 14 15
M  V30 15 1 15 16
M  V30 16 1 16 17
M  V30 17 1 17 18
M  V30 18 2 18 19
M  V30 19 1 19 20
M  V30 20 2 20 21
M  V30 21 1 21 22
M  V30 22 1 22 23
M  V30 23 2 23 24
M  V30 24 1 24 25
M  V30 25 2 25 26
M  V30 26 1 26 27
M  V30 27 1 27 28
M  V30 28 2 28 29
M  V30 29 1 28 30
M  V30 30 1 30 31
M  V30 31 1 30 32
M  V30 32 2 32 33
M  V30 33 1 33 34
M  V30 34 2 34 35
M  V30 35 1 35 36
M  V30 36 1 35 37
M  V30 37 2 37 38
M  V30 38 1 26 39
M  V30 39 2 39 40
M  V30 40 2 22 41
M  V30 41 1 41 42
M  V30 42 1 42 43
M  V30 43 1 15 3
M  V30 44 2 43 17
M  V30 45 1 12 8
M  V30 46 1 42 19
M  V30 47 1 40 23
M  V30 48 1 38 32
M  V30 49 1 1 44
M  V30 50 1 1 45
M  V30 51 1 1 46
M  V30 52 1 4 47
M  V30 53 1 9 48
M  V30 54 1 9 49
M  V30 55 1 10 50
M  V30 56 1 12 51
M  V30 57 1 12 52
M  V30 58 1 13 53
M  V30 59 1 14 54
M  V30 60 1 16 55
M  V30 61 1 20 56
M  V30 62 1 21 57
M  V30 63 1 24 58
M  V30 64 1 25 59
M  V30 65 1 27 60
M  V30 66 1 30 61 CFG=3
M  V30 67 1 31 62
M  V30 68 1 31 63
M  V30 69 1 31 64
M  V30 70 1 33 65
M  V30 71 1 34 66
M  V30 72 1 37 67
M  V30 73 1 38 68
M  V30 74 1 39 69
M  V30 75 1 40 70
M  V30 76 1 41 71
M  V30 END BOND
M  V30 END CTAB
M  END
>  <Dataset>  (524) 
ChEMBL_Kinases

>  <Ligand_Instance>  (524) 
nan

>  <PDB_ID>  (524) 
nan

>  <Standardized_SMILES>  (524) 
COc1cc(C(=O)N2CC(F)C2)ccc1Nc1nc2ccc(-c3ccc(NC(=O)[C@H](C)c4ccc(F)cc4)cc3)cn2n1

>  <Name>  (524) 
nan

>  <Pocket>  (524) 
nan

>  <ATP_Site>  (524) 
nan

>  <Peripheral>  (524) 
nan

>  <Num_H_Atoms_ProtBoundConf>  (524) 
nan

>  <Num_Resolved_Atoms>  (524) 
nan

>  <Num_Not_Resolved_Atoms>  (524) 
nan

$$$$
CHEMBL4536493
     RDKit          3D

  0  0  0  0  0  0  0  0  0  0999 V3000
M  V30 BEGIN CTAB
M  V30 COUNTS 71 74 0 0 0
M  V30 BEGIN ATOM
M  V30 1 C 6.632489 -1.192467 1.616619 0
M  V30 2 C 6.430612 0.168528 2.195018 0
M  V30 3 N 5.669459 0.987917 1.185828 0
M  V30 4 C 5.611280 2.277172 1.841724 0
M  V30 5 C 4.757687 2.336642 3.061771 0
M  V30 6 C 4.443652 0.322784 0.963863 0
M  V30 7 C 3.541584 0.749220 -0.138948 0
M  V30 8 C 3.036205 2.155938 -0.095109 0
M  V30 9 S 1.920430 2.512767 -1.429522 0
M  V30 10 O 2.730161 2.325694 -2.686983 0
M  V30 11 O 1.540769 3.967052 -1.385987 0
M  V30 12 N 0.535369 1.579001 -1.511976 0
M  V30 13 C 0.397925 0.703452 -2.595153 0
M  V30 14 C -0.636328 -0.357361 -2.326129 0
M  V30 15 C -0.754195 -0.465226 -0.794246 0
M  V30 16 C -1.210903 -1.786141 -0.476902 0
M  V30 17 C -0.302715 -2.855130 -0.416328 0
M  V30 18 N -0.985728 -3.968815 -0.111958 0
M  V30 19 C -2.299897 -3.744438 0.041931 0
M  V30 20 C -3.421967 -4.481274 0.345418 0
M  V30 21 C -3.271657 -5.902862 0.581016 0
M  V30 22 N -4.384653 -6.723623 0.910386 0
M  V30 23 O -2.178204 -6.516398 0.516618 0
M  V30 24 C -4.650075 -3.869578 0.418636 0
M  V30 25 C -4.812561 -2.514303 0.195234 0
M  V30 26 C -6.110364 -1.858391 0.272559 0
M  V30 27 C -6.461414 -0.743126 -0.497530 0
M  V30 28 C -7.725704 -0.168887 -0.364263 0
M  V30 29 C -8.646783 -0.692671 0.528511 0
M  V30 30 C -8.308249 -1.789859 1.289536 0
M  V30 31 C -7.064964 -2.355443 1.159108 0
M  V30 32 C -3.654234 -1.797462 -0.110281 0
M  V30 33 C -2.419169 -2.383687 -0.188812 0
M  V30 34 C -1.504939 0.731306 -0.395089 0
M  V30 35 C -0.557568 1.910761 -0.700342 0
M  V30 36 H 6.671080 -1.097244 0.504093 0
M  V30 37 H 5.850427 -1.880958 1.981971 0
M  V30 38 H 7.640911 -1.607791 1.879795 0
M  V30 39 H 5.874868 0.129704 3.138092 0
M  V30 40 H 7.413885 0.633883 2.355141 0
M  V30 41 H 5.461165 3.148087 1.225865 0
M  V30 42 H 6.690362 2.419331 2.223356 0
M  V30 43 H 4.691862 3.438118 3.330783 0
M  V30 44 H 3.760566 1.920431 2.968467 0
M  V30 45 H 5.285602 1.897560 3.940843 0
M  V30 46 H 4.711207 -0.769348 0.746725 0
M  V30 47 H 3.796775 0.251496 1.883331 0
M  V30 48 H 2.658203 0.050888 -0.129359 0
M  V30 49 H 4.050664 0.547907 -1.136827 0
M  V30 50 H 3.944376 2.800315 -0.322877 0
M  V30 51 H 2.686663 2.409337 0.891944 0
M  V30 52 H 0.198995 1.188363 -3.586093 0
M  V30 53 H 1.371575 0.135222 -2.698293 0
M  V30 54 H -0.407202 -1.342967 -2.768322 0
M  V30 55 H -1.613414 0.033896 -2.708419 0
M  V30 56 H 0.301706 -0.303233 -0.412533 0
M  V30 57 H 0.786956 -2.846923 -0.579751 0
M  V30 58 H -0.553293 -4.917620 -0.003340 0
M  V30 59 H -4.545632 -6.911014 1.941952 0
M  V30 60 H -5.111213 -7.206732 0.370322 0
M  V30 61 H -5.539435 -4.445421 0.658497 0
M  V30 62 H -5.723246 -0.346422 -1.192520 0
M  V30 63 H -8.007171 0.697379 -0.957900 0
M  V30 64 H -9.640560 -0.301219 0.684334 0
M  V30 65 H -9.027567 -2.220050 2.004807 0
M  V30 66 H -6.804600 -3.225438 1.765903 0
M  V30 67 H -3.782563 -0.760764 -0.279137 0
M  V30 68 H -2.334121 0.888722 -1.117305 0
M  V30 69 H -1.752009 0.805437 0.655967 0
M  V30 70 H -1.096532 2.769807 -1.146112 0
M  V30 71 H -0.157366 2.326742 0.257982 0
M  V30 END ATOM
M  V30 BEGIN BOND
M  V30 1 1 1 2
M  V30 2 1 2 3
M  V30 3 1 3 4
M  V30 4 1 4 5
M  V30 5 1 3 6
M  V30 6 1 6 7
M  V30 7 1 7 8
M  V30 8 1 8 9
M  V30 9 2 9 10
M  V30 10 2 9 11
M  V30 11 1 9 12
M  V30 12 1 12 13
M  V30 13 1 13 14
M  V30 14 1 14 15
M  V30 15 1 15 16
M  V30 16 2 16 17
M  V30 17 1 17 18
M  V30 18 1 18 19
M  V30 19 2 19 20
M  V30 20 1 20 21
M  V30 21 1 21 22
M  V30 22 2 21 23
M  V30 23 1 20 24
M  V30 24 2 24 25
M  V30 25 1 25 26
M  V30 26 2 26 27
M  V30 27 1 27 28
M  V30 28 2 28 29
M  V30 29 1 29 30
M  V30 30 2 30 31
M  V30 31 1 25 32
M  V30 32 2 32 33
M  V30 33 1 15 34
M  V30 34 1 34 35
M  V30 35 1 35 12
M  V30 36 1 33 16
M  V30 37 1 33 19
M  V30 38 1 31 26
M  V30 39 1 1 36
M  V30 40 1 1 37
M  V30 41 1 1 38
M  V30 42 1 2 39
M  V30 43 1 2 40
M  V30 44 1 4 41
M  V30 45 1 4 42
M  V30 46 1 5 43
M  V30 47 1 5 44
M  V30 48 1 5 45
M  V30 49 1 6 46
M  V30 50 1 6 47
M  V30 51 1 7 48
M  V30 52 1 7 49
M  V30 53 1 8 50
M  V30 54 1 8 51
M  V30 55 1 13 52
M  V30 56 1 13 53
M  V30 57 1 14 54
M  V30 58 1 14 55
M  V30 59 1 15 56
M  V30 60 1 17 57
M  V30 61 1 18 58
M  V30 62 1 22 59
M  V30 63 1 22 60
M  V30 64 1 24 61
M  V30 65 1 27 62
M  V30 66 1 28 63
M  V30 67 1 29 64
M  V30 68 1 30 65
M  V30 69 1 31 66
M  V30 70 1 32 67
M  V30 71 1 34 68
M  V30 72 1 34 69
M  V30 73 1 35 70
M  V30 74 1 35 71
M  V30 END BOND
M  V30 END CTAB
M  END
>  <Dataset>  (525) 
ChEMBL_Kinases

>  <Ligand_Instance>  (525) 
nan

>  <PDB_ID>  (525) 
nan

>  <Standardized_SMILES>  (525) 
CCN(CC)CCCS(=O)(=O)N1CCC(c2c[nH]c3c(C(N)=O)cc(-c4ccccc4)cc23)CC1

>  <Name>  (525) 
nan

>  <Pocket>  (525) 
nan

>  <ATP_Site>  (525) 
nan

>  <Peripheral>  (525) 
nan

>  <Num_H_Atoms_ProtBoundConf>  (525) 
nan

>  <Num_Resolved_Atoms>  (525) 
nan

>  <Num_Not_Resolved_Atoms>  (525) 
nan

$$$$
CHEMBL4536241
     RDKit          3D

  0  0  0  0  0  0  0  0  0  0999 V3000
M  V30 BEGIN CTAB
M  V30 COUNTS 51 55 0 0 0
M  V30 BEGIN ATOM
M  V30 1 C -4.425262 -4.282806 1.000446 0
M  V30 2 C -4.178620 -3.713591 2.383338 0
M  V30 3 C -4.465843 -2.248621 2.332896 0
M  V30 4 O -5.082565 -4.317805 3.247720 0
M  V30 5 C -2.784027 -4.029375 2.873039 0
M  V30 6 N -1.772070 -3.474105 1.982501 0
M  V30 7 N -1.176899 -2.280918 2.006748 0
M  V30 8 C -0.292404 -2.194940 0.969250 0
M  V30 9 C 0.469988 -0.963679 0.822837 0
M  V30 10 C 1.141710 -0.433332 1.933310 0
M  V30 11 C 1.882004 0.733094 1.937746 0
M  V30 12 C 1.964695 1.430284 0.749836 0
M  V30 13 N 2.679263 2.575003 0.710725 0
M  V30 14 C 2.783711 3.291461 -0.448076 0
M  V30 15 O 3.476921 4.475662 -0.640704 0
M  V30 16 C 4.208346 5.175773 0.313396 0
M  V30 17 C 4.177458 6.719158 0.241276 0
M  V30 18 C 5.414163 5.962825 -0.025268 0
M  V30 19 C 2.138935 2.808660 -1.568118 0
M  V30 20 C 1.389808 1.651934 -1.617968 0
M  V30 21 C 1.331403 0.975175 -0.390436 0
M  V30 22 C 0.612322 -0.196242 -0.312436 0
M  V30 23 C -0.387119 -3.403103 0.319616 0
M  V30 24 C 0.310506 -3.788499 -0.774401 0
M  V30 25 N 1.263774 -2.988099 -1.412985 0
M  V30 26 N 0.087833 -5.018514 -1.273033 0
M  V30 27 C -0.829386 -5.817318 -0.651781 0
M  V30 28 N -1.538902 -5.445131 0.450110 0
M  V30 29 C -1.304842 -4.215931 0.934727 0
M  V30 30 H -4.295414 -5.363715 1.031364 0
M  V30 31 H -3.822077 -3.752209 0.232151 0
M  V30 32 H -5.481759 -4.061252 0.767420 0
M  V30 33 H -5.196780 -1.979179 1.533576 0
M  V30 34 H -4.931281 -1.951616 3.293826 0
M  V30 35 H -3.547684 -1.629422 2.253202 0
M  V30 36 H -4.898814 -4.140583 4.194486 0
M  V30 37 H -2.651673 -5.103339 2.973845 0
M  V30 38 H -2.696591 -3.484556 3.857546 0
M  V30 39 H 1.105138 -0.953989 2.902975 0
M  V30 40 H 2.372333 1.081730 2.829191 0
M  V30 41 H 4.202337 4.715472 1.327299 0
M  V30 42 H 3.613439 7.153724 -0.615801 0
M  V30 43 H 3.962742 7.238955 1.193274 0
M  V30 44 H 5.817779 6.048045 -1.043501 0
M  V30 45 H 6.199005 6.074660 0.751088 0
M  V30 46 H 2.179955 3.330590 -2.528228 0
M  V30 47 H 0.897377 1.302456 -2.511172 0
M  V30 48 H 0.112705 -0.528692 -1.208976 0
M  V30 49 H 2.225717 -2.656085 -1.136155 0
M  V30 50 H 0.943821 -2.658269 -2.358041 0
M  V30 51 H -0.957471 -6.796457 -1.109023 0
M  V30 END ATOM
M  V30 BEGIN BOND
M  V30 1 1 1 2
M  V30 2 1 2 3
M  V30 3 1 2 4
M  V30 4 1 2 5
M  V30 5 1 5 6
M  V30 6 1 6 7
M  V30 7 2 7 8
M  V30 8 1 8 9
M  V30 9 2 9 10
M  V30 10 1 10 11
M  V30 11 2 11 12
M  V30 12 1 12 13
M  V30 13 2 13 14
M  V30 14 1 14 15
M  V30 15 1 15 16
M  V30 16 1 16 17
M  V30 17 1 17 18
M  V30 18 1 14 19
M  V30 19 2 19 20
M  V30 20 1 20 21
M  V30 21 2 21 22
M  V30 22 1 8 23
M  V30 23 2 23 24
M  V30 24 1 24 25
M  V30 25 1 24 26
M  V30 26 2 26 27
M  V30 27 1 27 28
M  V30 28 2 28 29
M  V30 29 1 29 6
M  V30 30 1 22 9
M  V30 31 1 29 23
M  V30 32 1 21 12
M  V30 33 1 18 16
M  V30 34 1 1 30
M  V30 35 1 1 31
M  V30 36 1 1 32
M  V30 37 1 3 33
M  V30 38 1 3 34
M  V30 39 1 3 35
M  V30 40 1 4 36
M  V30 41 1 5 37
M  V30 42 1 5 38
M  V30 43 1 10 39
M  V30 44 1 11 40
M  V30 45 1 16 41
M  V30 46 1 17 42
M  V30 47 1 17 43
M  V30 48 1 18 44
M  V30 49 1 18 45
M  V30 50 1 19 46
M  V30 51 1 20 47
M  V30 52 1 22 48
M  V30 53 1 25 49
M  V30 54 1 25 50
M  V30 55 1 27 51
M  V30 END BOND
M  V30 END CTAB
M  END
>  <Dataset>  (526) 
ChEMBL_Kinases

>  <Ligand_Instance>  (526) 
nan

>  <PDB_ID>  (526) 
nan

>  <Standardized_SMILES>  (526) 
CC(C)(O)Cn1nc(-c2ccc3nc(OC4CC4)ccc3c2)c2c(N)ncnc21

>  <Name>  (526) 
nan

>  <Pocket>  (526) 
nan

>  <ATP_Site>  (526) 
nan

>  <Peripheral>  (526) 
nan

>  <Num_H_Atoms_ProtBoundConf>  (526) 
nan

>  <Num_Resolved_Atoms>  (526) 
nan

>  <Num_Not_Resolved_Atoms>  (526) 
nan

$$$$
CHEMBL4536229
     RDKit          3D

  0  0  0  0  0  0  0  0  0  0999 V3000
M  V30 BEGIN CTAB
M  V30 COUNTS 45 48 0 0 0
M  V30 BEGIN ATOM
M  V30 1 C -1.822721 -4.399737 -1.702436 0
M  V30 2 O -1.405685 -3.658798 -0.556178 0
M  V30 3 C -0.547225 -2.553706 -0.684845 0
M  V30 4 C -0.009838 -2.044892 -1.849028 0
M  V30 5 C 0.818138 -0.944558 -1.768880 0
M  V30 6 C 1.145841 -0.315595 -0.591304 0
M  V30 7 C 2.017058 0.825793 -0.604041 0
M  V30 8 C 2.732082 1.796941 -0.617503 0
M  V30 9 C 3.614353 2.963528 -0.616564 0
M  V30 10 C 5.077782 2.604944 -0.584692 0
M  V30 11 O 3.279336 3.725561 -1.725063 0
M  V30 12 C 3.290379 3.878889 0.573279 0
M  V30 13 N 3.241387 4.959365 0.875168 0
M  V30 14 C 2.914508 5.497322 2.032371 0
M  V30 15 C 2.576772 4.568702 3.037298 0
M  V30 16 S 2.788486 2.922839 2.121116 0
M  V30 17 C 0.594979 -0.842678 0.569425 0
M  V30 18 C -0.245632 -1.950850 0.541079 0
M  V30 19 N -0.729313 -2.371407 1.810500 0
M  V30 20 C 0.114154 -2.582872 2.855774 0
M  V30 21 C -0.604206 -2.980588 3.958518 0
M  V30 22 C -1.933556 -3.005297 3.545870 0
M  V30 23 C -3.119476 -3.318749 4.182851 0
M  V30 24 N -4.290604 -3.245435 3.491356 0
M  V30 25 C -4.314257 -2.869027 2.184209 0
M  V30 26 N -5.627457 -2.857901 1.654003 0
M  V30 27 N -3.165238 -2.557333 1.539475 0
M  V30 28 C -1.988145 -2.624895 2.213360 0
M  V30 29 H -2.753760 -3.929813 -2.053069 0
M  V30 30 H -2.086788 -5.409442 -1.364632 0
M  V30 31 H -1.045787 -4.439869 -2.479001 0
M  V30 32 H -0.287108 -2.558585 -2.735977 0
M  V30 33 H 1.197911 -0.605307 -2.711979 0
M  V30 34 H 5.603893 2.960370 0.312845 0
M  V30 35 H 5.563388 3.006338 -1.515938 0
M  V30 36 H 5.174316 1.503586 -0.632709 0
M  V30 37 H 3.287831 3.204284 -2.563035 0
M  V30 38 H 2.960128 6.599328 2.022085 0
M  V30 39 H 2.291582 5.234549 4.072182 0
M  V30 40 H 0.860942 -0.336551 1.499404 0
M  V30 41 H 1.197344 -2.483987 2.920383 0
M  V30 42 H -0.257088 -3.229188 4.945982 0
M  V30 43 H -3.072636 -3.613011 5.215348 0
M  V30 44 H -5.928193 -3.834081 1.426250 0
M  V30 45 H -6.279044 -2.061190 1.476887 0
M  V30 END ATOM
M  V30 BEGIN BOND
M  V30 1 1 1 2
M  V30 2 1 2 3
M  V30 3 2 3 4
M  V30 4 1 4 5
M  V30 5 2 5 6
M  V30 6 1 6 7
M  V30 7 3 7 8
M  V30 8 1 8 9
M  V30 9 1 9 10
M  V30 10 1 9 11
M  V30 11 1 9 12
M  V30 12 2 12 13
M  V30 13 1 13 14
M  V30 14 2 14 15
M  V30 15 1 15 16
M  V30 16 1 6 17
M  V30 17 2 17 18
M  V30 18 1 18 19
M  V30 19 1 19 20
M  V30 20 2 20 21
M  V30 21 1 21 22
M  V30 22 2 22 23
M  V30 23 1 23 24
M  V30 24 2 24 25
M  V30 25 1 25 26
M  V30 26 1 25 27
M  V30 27 2 27 28
M  V30 28 1 18 3
M  V30 29 1 28 19
M  V30 30 1 16 12
M  V30 31 1 28 22
M  V30 32 1 1 29
M  V30 33 1 1 30
M  V30 34 1 1 31
M  V30 35 1 4 32
M  V30 36 1 5 33
M  V30 37 1 10 34
M  V30 38 1 10 35
M  V30 39 1 10 36
M  V30 40 1 11 37
M  V30 41 1 14 38
M  V30 42 1 15 39
M  V30 43 1 17 40
M  V30 44 1 20 41
M  V30 45 1 21 42
M  V30 46 1 23 43
M  V30 47 1 26 44
M  V30 48 1 26 45
M  V30 END BOND
M  V30 END CTAB
M  END
>  <Dataset>  (527) 
ChEMBL_Kinases

>  <Ligand_Instance>  (527) 
nan

>  <PDB_ID>  (527) 
nan

>  <Standardized_SMILES>  (527) 
COc1ccc(C#CC(C)(O)c2nccs2)cc1-n1ccc2cnc(N)nc21

>  <Name>  (527) 
nan

>  <Pocket>  (527) 
nan

>  <ATP_Site>  (527) 
nan

>  <Peripheral>  (527) 
nan

>  <Num_H_Atoms_ProtBoundConf>  (527) 
nan

>  <Num_Resolved_Atoms>  (527) 
nan

>  <Num_Not_Resolved_Atoms>  (527) 
nan

$$$$
CHEMBL4536091
     RDKit          3D

  0  0  0  0  0  0  0  0  0  0999 V3000
M  V30 BEGIN CTAB
M  V30 COUNTS 107 110 0 0 0
M  V30 BEGIN ATOM
M  V30 1 C 2.445219 -1.498161 3.090235 0
M  V30 2 C 3.688947 -0.855283 2.475804 0
M  V30 3 C 3.450608 0.597062 2.181426 0
M  V30 4 C 4.682934 1.218489 1.578645 0
M  V30 5 C 5.096693 0.565815 0.289190 0
M  V30 6 C 3.997343 0.659252 -0.759863 0
M  V30 7 C 3.636806 2.068482 -1.098721 0
M  V30 8 C 2.557618 2.067465 -2.117398 0
M  V30 9 O 2.408589 3.269283 -2.508867 0
M  V30 10 O 1.799680 1.011319 -2.613241 0
M  V30 11 C 0.812527 1.154335 -3.583895 0 CFG=1
M  V30 12 C 1.260575 0.515139 -4.883191 0
M  V30 13 C 2.347755 1.064767 -5.387771 0
M  V30 14 C 2.868692 0.528182 -6.637841 0
M  V30 15 O 2.566729 -0.369562 -7.436994 0
M  V30 16 O 3.992595 0.976402 -7.310448 0
M  V30 17 C 4.456004 0.423755 -8.517437 0
M  V30 18 C 0.560801 -0.615200 -5.535016 0
M  V30 19 C -0.844004 -0.758718 -4.948973 0 CFG=1
M  V30 20 C -1.486354 -2.030673 -5.350438 0
M  V30 21 C -1.284603 -3.208781 -4.466839 0 CFG=2
M  V30 22 C -1.937263 -4.387649 -5.261966 0
M  V30 23 O -1.307345 -4.433485 -6.504218 0
M  V30 24 O -1.910404 -3.150980 -3.214290 0
M  V30 25 C -1.382471 -3.396858 -1.985469 0
M  V30 26 O -0.165307 -3.720272 -1.910399 0
M  V30 27 C -2.099414 -3.324636 -0.702798 0
M  V30 28 C -3.576294 -2.999274 -0.832180 0
M  V30 29 O -4.094107 -2.848937 0.420009 0
M  V30 30 C -3.844549 -2.028150 1.470320 0
M  V30 31 C -4.197846 -2.757386 2.612706 0
M  V30 32 C -4.112029 -2.315680 3.941105 0
M  V30 33 C -3.622067 -1.015952 4.111300 0
M  V30 34 C -3.500132 -0.483600 5.470061 0
M  V30 35 C -3.645623 0.854086 5.775101 0
M  V30 36 C -3.522455 1.328211 7.066341 0
M  V30 37 C -3.245523 0.392850 8.041821 0
M  V30 38 C -3.113229 0.888313 9.405328 0
M  V30 39 O -3.246212 2.107985 9.673003 0
M  V30 40 O -2.837610 0.110303 10.520269 0
M  V30 41 C -2.717961 0.632467 11.819625 0
M  V30 42 C -3.094755 -0.949799 7.769005 0
M  V30 43 C -3.219546 -1.413970 6.475628 0
M  V30 44 C -3.272615 -0.293096 2.988689 0
M  V30 45 C -3.370459 -0.759234 1.699819 0
M  V30 46 C -2.923771 0.231387 0.733356 0
M  V30 47 O -2.745416 1.438825 0.969342 0
M  V30 48 O -2.693255 -0.203423 -0.486198 0
M  V30 49 C -2.292808 0.206775 -1.693750 0
M  V30 50 C -0.873753 0.767905 -1.742015 0
M  V30 51 C 0.117156 -0.163014 -1.128991 0
M  V30 52 C -0.860791 2.169441 -1.268918 0
M  V30 53 C -0.559224 0.727054 -3.257878 0 CFG=1
M  V30 54 O -1.532007 1.464561 -3.938428 0
M  V30 55 O -0.701010 -0.650044 -3.589360 0
M  V30 56 H 1.518794 -1.053356 2.666426 0
M  V30 57 H 2.464663 -2.588756 2.885767 0
M  V30 58 H 2.415667 -1.356119 4.183371 0
M  V30 59 H 4.489769 -0.960892 3.218560 0
M  V30 60 H 3.980375 -1.428896 1.585802 0
M  V30 61 H 3.215082 1.143752 3.107097 0
M  V30 62 H 2.597104 0.732541 1.465313 0
M  V30 63 H 4.584268 2.306419 1.469111 0
M  V30 64 H 5.508999 1.011640 2.313606 0
M  V30 65 H 5.970381 1.105368 -0.137488 0
M  V30 66 H 5.349129 -0.493497 0.425714 0
M  V30 67 H 4.389547 0.158763 -1.678293 0
M  V30 68 H 3.156896 0.078220 -0.387161 0
M  V30 69 H 3.271646 2.577775 -0.181921 0
M  V30 70 H 4.557064 2.575981 -1.491615 0
M  V30 71 H 0.787542 2.266530 -3.821735 0
M  V30 72 H 2.927996 1.878002 -5.002952 0
M  V30 73 H 5.096469 -0.481005 -8.343885 0
M  V30 74 H 3.654645 0.250755 -9.251681 0
M  V30 75 H 5.149167 1.174257 -8.978163 0
M  V30 76 H 1.086342 -1.571303 -5.420314 0
M  V30 77 H 0.386920 -0.349040 -6.608196 0
M  V30 78 H -1.456753 0.113468 -5.304159 0
M  V30 79 H -1.130089 -2.240755 -6.406764 0
M  V30 80 H -2.581324 -1.823144 -5.511352 0
M  V30 81 H -0.224336 -3.457152 -4.331696 0
M  V30 82 H -1.745241 -5.343420 -4.758983 0
M  V30 83 H -2.995472 -4.140743 -5.437018 0
M  V30 84 H -0.324494 -4.334672 -6.434908 0
M  V30 85 H -2.074411 -4.360536 -0.229509 0
M  V30 86 H -1.657770 -2.687398 0.066099 0
M  V30 87 H -3.841268 -2.309149 -1.623103 0
M  V30 88 H -4.011213 -3.993755 -1.222929 0
M  V30 89 H -4.595079 -3.785518 2.647018 0
M  V30 90 H -4.380024 -2.864857 4.830895 0
M  V30 91 H -3.862284 1.476990 4.906449 0
M  V30 92 H -3.649019 2.390594 7.223574 0
M  V30 93 H -1.630352 0.759493 12.079568 0
M  V30 94 H -3.160328 1.646055 11.892747 0
M  V30 95 H -3.121983 -0.100318 12.530866 0
M  V30 96 H -2.875449 -1.615034 8.610318 0
M  V30 97 H -3.084874 -2.478180 6.353450 0
M  V30 98 H -2.908025 0.693509 3.237620 0
M  V30 99 H -2.411356 -0.611707 -2.438058 0
M  V30 100 H -2.986740 1.015699 -2.116984 0
M  V30 101 H -0.336729 -0.834890 -0.368038 0
M  V30 102 H 0.817580 0.474113 -0.521915 0
M  V30 103 H 0.638012 -0.839555 -1.830182 0
M  V30 104 H -0.427437 2.213839 -0.250255 0
M  V30 105 H -1.871120 2.658047 -1.299907 0
M  V30 106 H -0.238395 2.812611 -1.965822 0
M  V30 107 H -1.560507 2.351555 -3.526007 0
M  V30 END ATOM
M  V30 BEGIN BOND
M  V30 1 1 1 2
M  V30 2 1 2 3
M  V30 3 1 3 4
M  V30 4 1 4 5
M  V30 5 1 5 6
M  V30 6 1 6 7
M  V30 7 1 7 8
M  V30 8 2 8 9
M  V30 9 1 8 10
M  V30 10 1 10 11
M  V30 11 1 11 12
M  V30 12 2 12 13
M  V30 13 1 13 14
M  V30 14 2 14 15
M  V30 15 1 14 16
M  V30 16 1 16 17
M  V30 17 1 12 18
M  V30 18 1 18 19
M  V30 19 1 19 20
M  V30 20 1 20 21
M  V30 21 1 21 22
M  V30 22 1 22 23
M  V30 23 1 21 24
M  V30 24 1 24 25
M  V30 25 2 25 26
M  V30 26 1 25 27
M  V30 27 1 27 28
M  V30 28 1 28 29
M  V30 29 1 29 30
M  V30 30 2 30 31
M  V30 31 1 31 32
M  V30 32 2 32 33
M  V30 33 1 33 34
M  V30 34 2 34 35
M  V30 35 1 35 36
M  V30 36 2 36 37
M  V30 37 1 37 38
M  V30 38 2 38 39
M  V30 39 1 38 40
M  V30 40 1 40 41
M  V30 41 1 37 42
M  V30 42 2 42 43
M  V30 43 1 33 44
M  V30 44 2 44 45
M  V30 45 1 45 46
M  V30 46 2 46 47
M  V30 47 1 46 48
M  V30 48 1 48 49
M  V30 49 1 49 50
M  V30 50 1 50 51
M  V30 51 1 50 52
M  V30 52 1 50 53
M  V30 53 1 53 54 CFG=3
M  V30 54 1 53 55
M  V30 55 1 53 11
M  V30 56 1 55 19
M  V30 57 1 45 30
M  V30 58 1 43 34
M  V30 59 1 1 56
M  V30 60 1 1 57
M  V30 61 1 1 58
M  V30 62 1 2 59
M  V30 63 1 2 60
M  V30 64 1 3 61
M  V30 65 1 3 62
M  V30 66 1 4 63
M  V30 67 1 4 64
M  V30 68 1 5 65
M  V30 69 1 5 66
M  V30 70 1 6 67
M  V30 71 1 6 68
M  V30 72 1 7 69
M  V30 73 1 7 70
M  V30 74 1 11 71 CFG=3
M  V30 75 1 13 72
M  V30 76 1 17 73
M  V30 77 1 17 74
M  V30 78 1 17 75
M  V30 79 1 18 76
M  V30 80 1 18 77
M  V30 81 1 19 78 CFG=3
M  V30 82 1 20 79
M  V30 83 1 20 80
M  V30 84 1 21 81 CFG=1
M  V30 85 1 22 82
M  V30 86 1 22 83
M  V30 87 1 23 84
M  V30 88 1 27 85
M  V30 89 1 27 86
M  V30 90 1 28 87
M  V30 91 1 28 88
M  V30 92 1 31 89
M  V30 93 1 32 90
M  V30 94 1 35 91
M  V30 95 1 36 92
M  V30 96 1 41 93
M  V30 97 1 41 94
M  V30 98 1 41 95
M  V30 99 1 42 96
M  V30 100 1 43 97
M  V30 101 1 44 98
M  V30 102 1 49 99
M  V30 103 1 49 100
M  V30 104 1 51 101
M  V30 105 1 51 102
M  V30 106 1 51 103
M  V30 107 1 52 104
M  V30 108 1 52 105
M  V30 109 1 52 106
M  V30 110 1 54 107
M  V30 END BOND
M  V30 END CTAB
M  END
>  <Dataset>  (528) 
ChEMBL_Kinases

>  <Ligand_Instance>  (528) 
nan

>  <PDB_ID>  (528) 
nan

>  <Standardized_SMILES>  (528) 
CCCCCCCC(=O)O[C@H]1/C(=C/C(=O)OC)C[C@H]2C[C@H](CO)OC(=O)CCOc3ccc(-c4ccc(C(=O)OC)cc4)cc3C(=O)OCC(C)(C)[C@]1(O)O2

>  <Name>  (528) 
nan

>  <Pocket>  (528) 
nan

>  <ATP_Site>  (528) 
nan

>  <Peripheral>  (528) 
nan

>  <Num_H_Atoms_ProtBoundConf>  (528) 
nan

>  <Num_Resolved_Atoms>  (528) 
nan

>  <Num_Not_Resolved_Atoms>  (528) 
nan

$$$$
CHEMBL4641825
     RDKit          3D

  0  0  0  0  0  0  0  0  0  0999 V3000
M  V30 BEGIN CTAB
M  V30 COUNTS 46 49 0 0 0
M  V30 BEGIN ATOM
M  V30 1 C 1.292164 -7.308406 -1.762910 0
M  V30 2 O 0.903554 -6.025338 -2.144345 0
M  V30 3 C 0.893846 -4.922878 -1.299972 0
M  V30 4 C 1.297695 -5.098414 0.020350 0
M  V30 5 C 1.281667 -3.993301 0.843997 0
M  V30 6 C 0.871403 -2.782324 0.326959 0
M  V30 7 C 0.469151 -2.579596 -0.965776 0
M  V30 8 C 0.047899 -1.270284 -1.446248 0
M  V30 9 C -0.361056 -1.039954 -2.739121 0
M  V30 10 C -0.744583 0.228729 -3.113554 0
M  V30 11 C -0.699998 1.222335 -2.161629 0
M  V30 12 N -1.112450 2.539060 -2.600905 0
M  V30 13 S -0.872254 3.465752 -0.994299 0
M  V30 14 C -0.338810 2.177571 -0.095442 0
M  V30 15 N 0.035085 2.207736 1.284661 0
M  V30 16 C 0.521701 1.245058 2.249236 0
M  V30 17 C -0.475997 1.051133 3.336811 0 CFG=1
M  V30 18 C 0.256087 0.387761 4.502894 0
M  V30 19 O -1.215566 2.122147 3.682366 0
M  V30 20 C -0.847011 3.357951 3.274628 0 CFG=1
M  V30 21 C -0.243449 4.154710 4.431694 0
M  V30 22 C -0.054527 3.460688 2.011537 0
M  V30 23 C -0.301974 1.019508 -0.886121 0
M  V30 24 N 0.055600 -0.234578 -0.593989 0
M  V30 25 C 0.495560 -3.700697 -1.764980 0
M  V30 26 H 0.966517 -7.576676 -0.742734 0
M  V30 27 H 2.395410 -7.388870 -1.855452 0
M  V30 28 H 0.763896 -8.019422 -2.438287 0
M  V30 29 H 1.622159 -6.049494 0.433921 0
M  V30 30 H 1.595979 -4.124264 1.876453 0
M  V30 31 H 0.894598 -1.982661 1.050927 0
M  V30 32 H -0.381499 -1.846022 -3.454727 0
M  V30 33 H -1.049783 0.328788 -4.135583 0
M  V30 34 H 1.523498 1.569933 2.657528 0
M  V30 35 H 0.743713 0.298481 1.723705 0
M  V30 36 H -1.195303 0.270830 2.967871 0
M  V30 37 H 0.564638 1.100037 5.274795 0
M  V30 38 H 1.130191 -0.193937 4.163234 0
M  V30 39 H -0.435537 -0.335701 5.002462 0
M  V30 40 H -1.809348 3.914868 3.059633 0
M  V30 41 H 0.574411 3.531462 4.844205 0
M  V30 42 H 0.076357 5.128456 4.022962 0
M  V30 43 H -1.041775 4.260248 5.207759 0
M  V30 44 H -0.399141 4.289805 1.348982 0
M  V30 45 H 0.994537 3.748729 2.277423 0
M  V30 46 H 0.201042 -3.655431 -2.793017 0
M  V30 END ATOM
M  V30 BEGIN BOND
M  V30 1 1 1 2
M  V30 2 1 2 3
M  V30 3 2 3 4
M  V30 4 1 4 5
M  V30 5 2 5 6
M  V30 6 1 6 7
M  V30 7 1 7 8
M  V30 8 1 8 9
M  V30 9 2 9 10
M  V30 10 1 10 11
M  V30 11 2 11 12
M  V30 12 1 12 13
M  V30 13 1 13 14
M  V30 14 1 14 15
M  V30 15 1 15 16
M  V30 16 1 16 17
M  V30 17 1 17 18
M  V30 18 1 17 19
M  V30 19 1 19 20
M  V30 20 1 20 21
M  V30 21 1 20 22
M  V30 22 2 14 23
M  V30 23 1 23 24
M  V30 24 2 7 25
M  V30 25 1 25 3
M  V30 26 2 24 8
M  V30 27 1 23 11
M  V30 28 1 22 15
M  V30 29 1 1 26
M  V30 30 1 1 27
M  V30 31 1 1 28
M  V30 32 1 4 29
M  V30 33 1 5 30
M  V30 34 1 6 31
M  V30 35 1 9 32
M  V30 36 1 10 33
M  V30 37 1 16 34
M  V30 38 1 16 35
M  V30 39 1 17 36 CFG=3
M  V30 40 1 18 37
M  V30 41 1 18 38
M  V30 42 1 18 39
M  V30 43 1 20 40 CFG=3
M  V30 44 1 21 41
M  V30 45 1 21 42
M  V30 46 1 21 43
M  V30 47 1 22 44
M  V30 48 1 22 45
M  V30 49 1 25 46
M  V30 END BOND
M  V30 END CTAB
M  END
>  <Dataset>  (529) 
ChEMBL_Kinases

>  <Ligand_Instance>  (529) 
nan

>  <PDB_ID>  (529) 
nan

>  <Standardized_SMILES>  (529) 
COc1cccc(-c2ccc3nsc(N4C[C@@H](C)O[C@@H](C)C4)c3n2)c1

>  <Name>  (529) 
nan

>  <Pocket>  (529) 
nan

>  <ATP_Site>  (529) 
nan

>  <Peripheral>  (529) 
nan

>  <Num_H_Atoms_ProtBoundConf>  (529) 
nan

>  <Num_Resolved_Atoms>  (529) 
nan

>  <Num_Not_Resolved_Atoms>  (529) 
nan

$$$$
CHEMBL4641839
     RDKit          3D

  0  0  0  0  0  0  0  0  0  0999 V3000
M  V30 BEGIN CTAB
M  V30 COUNTS 61 65 0 0 0
M  V30 BEGIN ATOM
M  V30 1 C 3.680632 -1.286802 3.871190 0
M  V30 2 C 4.256076 -2.582389 4.387831 0 CFG=2
M  V30 3 C 4.394265 -3.570146 3.236630 0
M  V30 4 N 3.063836 -3.814319 2.777501 0
M  V30 5 C 2.327655 -3.558242 1.577499 0
M  V30 6 O 1.107315 -3.892881 1.422605 0
M  V30 7 N 2.864715 -2.907028 0.428077 0
M  V30 8 C 1.823960 -2.833795 -0.571076 0
M  V30 9 C 0.927602 -1.788647 -0.698333 0
M  V30 10 C -0.033725 -1.786314 -1.670318 0
M  V30 11 C -0.955308 -0.657589 -1.760498 0
M  V30 12 C -0.657558 0.662231 -1.691305 0
M  V30 13 N -1.760929 1.460499 -1.812507 0
M  V30 14 C -1.861232 2.905368 -1.791015 0
M  V30 15 C -2.252950 3.477039 -0.457285 0
M  V30 16 C -3.722583 3.728204 -0.318846 0
M  V30 17 O -4.339289 4.290098 -1.383143 0
M  V30 18 C -3.661828 4.514214 -2.524977 0
M  V30 19 C -2.613576 3.505248 -2.926306 0
M  V30 20 C -2.754819 0.570116 -1.959881 0
M  V30 21 C -4.128559 0.711212 -2.130933 0
M  V30 22 N -4.994484 -0.320494 -2.265394 0
M  V30 23 C -4.556885 -1.596581 -2.240151 0
M  V30 24 C -3.200589 -1.791632 -2.072624 0
M  V30 25 C -2.321033 -0.738539 -1.935893 0
M  V30 26 C -0.068138 -2.880984 -2.522815 0
M  V30 27 C 0.823017 -3.930833 -2.404344 0
M  V30 28 N 1.767757 -3.898865 -1.423560 0
M  V30 29 C 2.356573 -4.482456 3.836224 0
M  V30 30 C 2.466325 -3.859527 5.174779 0 CFG=2
M  V30 31 C 1.210584 -3.028643 5.417280 0
M  V30 32 O 3.538682 -3.073426 5.437374 0
M  V30 33 H 3.718533 -1.257069 2.763234 0
M  V30 34 H 4.243924 -0.402258 4.232907 0
M  V30 35 H 2.611844 -1.187369 4.146965 0
M  V30 36 H 5.279002 -2.330722 4.790020 0
M  V30 37 H 4.899343 -4.468931 3.605695 0
M  V30 38 H 5.047535 -3.069412 2.495905 0
M  V30 39 H 3.864894 -2.595251 0.464630 0
M  V30 40 H 1.065583 -0.998060 0.031861 0
M  V30 41 H 0.353225 1.061663 -1.553355 0
M  V30 42 H -0.787043 3.254341 -1.900780 0
M  V30 43 H -1.899716 2.802448 0.320976 0
M  V30 44 H -1.765861 4.474392 -0.284186 0
M  V30 45 H -3.869224 4.390707 0.567579 0
M  V30 46 H -4.166193 2.737554 -0.004379 0
M  V30 47 H -4.416719 4.479602 -3.365968 0
M  V30 48 H -3.300035 5.564058 -2.550302 0
M  V30 49 H -3.016378 2.727106 -3.640657 0
M  V30 50 H -1.950308 4.099021 -3.628893 0
M  V30 51 H -4.577869 1.666778 -2.165181 0
M  V30 52 H -5.261339 -2.396634 -2.348589 0
M  V30 53 H -2.866952 -2.806946 -2.054471 0
M  V30 54 H -0.818622 -2.905444 -3.301411 0
M  V30 55 H 0.771291 -4.771586 -3.084714 0
M  V30 56 H 1.277597 -4.674872 3.601265 0
M  V30 57 H 2.798896 -5.519096 3.903848 0
M  V30 58 H 2.417796 -4.669507 5.960414 0
M  V30 59 H 0.414866 -3.601477 5.938593 0
M  V30 60 H 0.746335 -2.679655 4.471414 0
M  V30 61 H 1.432272 -2.128091 6.017220 0
M  V30 END ATOM
M  V30 BEGIN BOND
M  V30 1 1 1 2
M  V30 2 1 2 3
M  V30 3 1 3 4
M  V30 4 1 4 5
M  V30 5 2 5 6
M  V30 6 1 5 7
M  V30 7 1 7 8
M  V30 8 2 8 9
M  V30 9 1 9 10
M  V30 10 1 10 11
M  V30 11 2 11 12
M  V30 12 1 12 13
M  V30 13 1 13 14
M  V30 14 1 14 15
M  V30 15 1 15 16
M  V30 16 1 16 17
M  V30 17 1 17 18
M  V30 18 1 18 19
M  V30 19 1 13 20
M  V30 20 2 20 21
M  V30 21 1 21 22
M  V30 22 2 22 23
M  V30 23 1 23 24
M  V30 24 2 24 25
M  V30 25 2 10 26
M  V30 26 1 26 27
M  V30 27 2 27 28
M  V30 28 1 4 29
M  V30 29 1 29 30
M  V30 30 1 30 31
M  V30 31 1 30 32
M  V30 32 1 32 2
M  V30 33 1 28 8
M  V30 34 1 25 11
M  V30 35 1 19 14
M  V30 36 1 25 20
M  V30 37 1 1 33
M  V30 38 1 1 34
M  V30 39 1 1 35
M  V30 40 1 2 36 CFG=1
M  V30 41 1 3 37
M  V30 42 1 3 38
M  V30 43 1 7 39
M  V30 44 1 9 40
M  V30 45 1 12 41
M  V30 46 1 14 42
M  V30 47 1 15 43
M  V30 48 1 15 44
M  V30 49 1 16 45
M  V30 50 1 16 46
M  V30 51 1 18 47
M  V30 52 1 18 48
M  V30 53 1 19 49
M  V30 54 1 19 50
M  V30 55 1 21 51
M  V30 56 1 23 52
M  V30 57 1 24 53
M  V30 58 1 26 54
M  V30 59 1 27 55
M  V30 60 1 29 56
M  V30 61 1 29 57
M  V30 62 1 30 58 CFG=1
M  V30 63 1 31 59
M  V30 64 1 31 60
M  V30 65 1 31 61
M  V30 END BOND
M  V30 END CTAB
M  END
>  <Dataset>  (530) 
ChEMBL_Kinases

>  <Ligand_Instance>  (530) 
nan

>  <PDB_ID>  (530) 
nan

>  <Standardized_SMILES>  (530) 
C[C@@H]1CN(C(=O)Nc2cc(-c3cn(C4CCOCC4)c4cnccc34)ccn2)C[C@H](C)O1

>  <Name>  (530) 
nan

>  <Pocket>  (530) 
nan

>  <ATP_Site>  (530) 
nan

>  <Peripheral>  (530) 
nan

>  <Num_H_Atoms_ProtBoundConf>  (530) 
nan

>  <Num_Resolved_Atoms>  (530) 
nan

>  <Num_Not_Resolved_Atoms>  (530) 
nan

$$$$
CHEMBL453598
     RDKit          3D

  0  0  0  0  0  0  0  0  0  0999 V3000
M  V30 BEGIN CTAB
M  V30 COUNTS 57 58 0 0 0
M  V30 BEGIN ATOM
M  V30 1 C 0.388718 2.716991 3.755027 0
M  V30 2 C 1.796112 3.100815 4.064091 0
M  V30 3 C 2.844045 2.355276 3.302967 0
M  V30 4 C 2.856327 2.473829 1.831602 0
M  V30 5 C 4.020168 1.667632 1.254481 0
M  V30 6 C 3.923370 0.206455 1.607260 0
M  V30 7 C 5.138915 -0.494997 0.981410 0
M  V30 8 C 1.646386 1.938337 1.198420 0
M  V30 9 O 0.797289 2.497931 0.419780 0
M  V30 10 O 0.965642 0.742013 1.160138 0
M  V30 11 C -0.219095 0.610494 0.397466 0
M  V30 12 C -0.680749 -0.810720 0.596112 0
M  V30 13 C 0.345858 -1.740414 0.013540 0
M  V30 14 O 0.489545 -1.434068 -1.337714 0
M  V30 15 C -1.976659 -1.089020 -0.134135 0
M  V30 16 C -2.503780 -2.219016 0.695117 0
M  V30 17 C -3.175214 -3.264813 0.305577 0
M  V30 18 C -3.548165 -3.526056 -1.079930 0
M  V30 19 C -4.007470 -2.648388 -2.029769 0
M  V30 20 C -4.298635 -3.063517 -3.312343 0
M  V30 21 C -4.116132 -4.413027 -3.634278 0
M  V30 22 C -4.428988 -4.859474 -5.024755 0
M  V30 23 F -5.249260 -3.980606 -5.685906 0
M  V30 24 F -3.194393 -5.011639 -5.667025 0
M  V30 25 F -4.962344 -6.121510 -4.912148 0
M  V30 26 C -3.656822 -5.330721 -2.710112 0
M  V30 27 C -3.379824 -4.868877 -1.443798 0
M  V30 28 C -2.065186 -1.840292 2.047229 0
M  V30 29 O -2.650293 -2.219609 3.118814 0
M  V30 30 O -0.923542 -1.012314 1.956000 0
M  V30 31 H 0.283612 1.622961 3.616257 0
M  V30 32 H -0.299716 2.972891 4.625913 0
M  V30 33 H 0.025829 3.249220 2.871317 0
M  V30 34 H 1.934884 2.879944 5.166837 0
M  V30 35 H 1.961799 4.201522 3.966787 0
M  V30 36 H 2.700581 1.262342 3.585720 0
M  V30 37 H 3.827729 2.644025 3.771288 0
M  V30 38 H 2.973029 3.544584 1.522647 0
M  V30 39 H 4.967795 2.090034 1.633628 0
M  V30 40 H 4.031748 1.757419 0.134993 0
M  V30 41 H 4.065746 0.065576 2.700132 0
M  V30 42 H 3.044728 -0.275753 1.182213 0
M  V30 43 H 6.069464 -0.169195 1.498482 0
M  V30 44 H 5.142445 -0.217211 -0.094017 0
M  V30 45 H 5.015560 -1.590470 1.078059 0
M  V30 46 H -0.045526 0.797649 -0.687930 0
M  V30 47 H -1.033556 1.251672 0.822610 0
M  V30 48 H -0.100986 -2.778438 0.023265 0
M  V30 49 H 1.286760 -1.774163 0.561749 0
M  V30 50 H 1.274314 -0.898575 -1.535591 0
M  V30 51 H -1.826418 -1.344883 -1.183966 0
M  V30 52 H -2.644733 -0.223070 0.044929 0
M  V30 53 H -3.451469 -3.953925 1.096368 0
M  V30 54 H -4.122090 -1.634057 -1.689337 0
M  V30 55 H -4.658146 -2.326500 -4.023324 0
M  V30 56 H -3.519777 -6.383499 -2.980431 0
M  V30 57 H -3.017412 -5.644546 -0.750623 0
M  V30 END ATOM
M  V30 BEGIN BOND
M  V30 1 1 1 2
M  V30 2 1 2 3
M  V30 3 1 3 4
M  V30 4 1 4 5
M  V30 5 1 5 6
M  V30 6 1 6 7
M  V30 7 1 4 8
M  V30 8 2 8 9
M  V30 9 1 8 10
M  V30 10 1 10 11
M  V30 11 1 11 12
M  V30 12 1 12 13
M  V30 13 1 13 14
M  V30 14 1 12 15
M  V30 15 1 15 16
M  V30 16 2 16 17
M  V30 17 1 17 18
M  V30 18 2 18 19
M  V30 19 1 19 20
M  V30 20 2 20 21
M  V30 21 1 21 22
M  V30 22 1 22 23
M  V30 23 1 22 24
M  V30 24 1 22 25
M  V30 25 1 21 26
M  V30 26 2 26 27
M  V30 27 1 16 28
M  V30 28 2 28 29
M  V30 29 1 28 30
M  V30 30 1 30 12
M  V30 31 1 27 18
M  V30 32 1 1 31
M  V30 33 1 1 32
M  V30 34 1 1 33
M  V30 35 1 2 34
M  V30 36 1 2 35
M  V30 37 1 3 36
M  V30 38 1 3 37
M  V30 39 1 4 38
M  V30 40 1 5 39
M  V30 41 1 5 40
M  V30 42 1 6 41
M  V30 43 1 6 42
M  V30 44 1 7 43
M  V30 45 1 7 44
M  V30 46 1 7 45
M  V30 47 1 11 46
M  V30 48 1 11 47
M  V30 49 1 13 48
M  V30 50 1 13 49
M  V30 51 1 14 50
M  V30 52 1 15 51
M  V30 53 1 15 52
M  V30 54 1 17 53
M  V30 55 1 19 54
M  V30 56 1 20 55
M  V30 57 1 26 56
M  V30 58 1 27 57
M  V30 END BOND
M  V30 END CTAB
M  END
>  <Dataset>  (531) 
ChEMBL_Kinases

>  <Ligand_Instance>  (531) 
nan

>  <PDB_ID>  (531) 
nan

>  <Standardized_SMILES>  (531) 
CCCC(CCC)C(=O)OCC1(CO)C/C(=C\c2ccc(C(F)(F)F)cc2)C(=O)O1

>  <Name>  (531) 
nan

>  <Pocket>  (531) 
nan

>  <ATP_Site>  (531) 
nan

>  <Peripheral>  (531) 
nan

>  <Num_H_Atoms_ProtBoundConf>  (531) 
nan

>  <Num_Resolved_Atoms>  (531) 
nan

>  <Num_Not_Resolved_Atoms>  (531) 
nan

$$$$
CHEMBL453597
     RDKit          3D

  0  0  0  0  0  0  0  0  0  0999 V3000
M  V30 BEGIN CTAB
M  V30 COUNTS 60 61 0 0 0
M  V30 BEGIN ATOM
M  V30 1 C 4.646173 -0.226172 4.101139 0
M  V30 2 C 3.820325 -0.337189 2.823755 0
M  V30 3 C 4.441995 0.451602 1.704043 0
M  V30 4 C 3.598903 0.325397 0.454305 0
M  V30 5 C 3.479149 -1.126041 -0.003754 0
M  V30 6 C 4.862617 -1.630354 -0.285254 0
M  V30 7 C 4.844634 -3.084034 -0.753892 0
M  V30 8 C 2.238767 0.858682 0.805368 0
M  V30 9 O 1.418426 1.329728 1.636659 0
M  V30 10 O 1.397465 0.864926 -0.326526 0
M  V30 11 C 0.055209 1.332362 -0.202106 0
M  V30 12 C -0.621475 1.275124 -1.533918 0
M  V30 13 C 0.149182 2.007729 -2.599657 0
M  V30 14 O 0.205170 3.378280 -2.389640 0
M  V30 15 C -0.742886 -0.173423 -1.967235 0
M  V30 16 C -1.935564 -0.575533 -1.135227 0
M  V30 17 C -2.246651 -1.659947 -0.487419 0
M  V30 18 C -3.449256 -1.916540 0.291452 0
M  V30 19 C -4.041196 -1.098271 1.227387 0
M  V30 20 C -5.198749 -1.492530 1.864264 0
M  V30 21 C -5.813794 -0.578384 2.880650 0
M  V30 22 F -6.161592 -1.336684 4.003991 0
M  V30 23 F -6.929186 0.066129 2.383780 0
M  V30 24 F -4.870942 0.331993 3.284408 0
M  V30 25 C -5.798042 -2.709175 1.588912 0
M  V30 26 C -5.196218 -3.526360 0.647090 0
M  V30 27 C -5.850260 -4.839977 0.351038 0
M  V30 28 F -4.959308 -5.819444 0.744244 0
M  V30 29 F -7.014615 -4.991519 1.044334 0
M  V30 30 F -6.030431 -5.022698 -1.018979 0
M  V30 31 C -4.048143 -3.144205 0.009633 0
M  V30 32 C -2.796603 0.599775 -1.227239 0
M  V30 33 O -4.067564 0.523873 -1.110520 0
M  V30 34 O -1.977462 1.724625 -1.454316 0
M  V30 35 H 4.563731 0.778967 4.528757 0
M  V30 36 H 5.720420 -0.407711 3.924739 0
M  V30 37 H 4.289852 -0.932056 4.868035 0
M  V30 38 H 3.767610 -1.409101 2.566342 0
M  V30 39 H 2.832338 0.126336 3.041610 0
M  V30 40 H 5.518009 0.214222 1.526612 0
M  V30 41 H 4.449322 1.553042 1.932967 0
M  V30 42 H 3.980080 0.930210 -0.369293 0
M  V30 43 H 2.973066 -1.760611 0.732956 0
M  V30 44 H 2.909526 -1.091290 -0.955117 0
M  V30 45 H 5.497742 -1.614744 0.631155 0
M  V30 46 H 5.285469 -1.013181 -1.109703 0
M  V30 47 H 4.131269 -3.643839 -0.125011 0
M  V30 48 H 4.662433 -3.170685 -1.841644 0
M  V30 49 H 5.856660 -3.488650 -0.550682 0
M  V30 50 H 0.048557 2.321980 0.260352 0
M  V30 51 H -0.529280 0.672264 0.481047 0
M  V30 52 H 1.210701 1.632521 -2.547834 0
M  V30 53 H -0.245043 1.826517 -3.612159 0
M  V30 54 H -0.174929 3.871133 -3.156366 0
M  V30 55 H 0.087834 -0.798606 -1.564181 0
M  V30 56 H -0.899239 -0.315268 -3.038886 0
M  V30 57 H -1.498623 -2.454763 -0.553247 0
M  V30 58 H -3.545884 -0.159717 1.431586 0
M  V30 59 H -6.706887 -2.943542 2.135059 0
M  V30 60 H -3.636138 -3.850136 -0.722994 0
M  V30 END ATOM
M  V30 BEGIN BOND
M  V30 1 1 1 2
M  V30 2 1 2 3
M  V30 3 1 3 4
M  V30 4 1 4 5
M  V30 5 1 5 6
M  V30 6 1 6 7
M  V30 7 1 4 8
M  V30 8 2 8 9
M  V30 9 1 8 10
M  V30 10 1 10 11
M  V30 11 1 11 12
M  V30 12 1 12 13
M  V30 13 1 13 14
M  V30 14 1 12 15
M  V30 15 1 15 16
M  V30 16 2 16 17
M  V30 17 1 17 18
M  V30 18 2 18 19
M  V30 19 1 19 20
M  V30 20 1 20 21
M  V30 21 1 21 22
M  V30 22 1 21 23
M  V30 23 1 21 24
M  V30 24 2 20 25
M  V30 25 1 25 26
M  V30 26 1 26 27
M  V30 27 1 27 28
M  V30 28 1 27 29
M  V30 29 1 27 30
M  V30 30 2 26 31
M  V30 31 1 16 32
M  V30 32 2 32 33
M  V30 33 1 32 34
M  V30 34 1 34 12
M  V30 35 1 31 18
M  V30 36 1 1 35
M  V30 37 1 1 36
M  V30 38 1 1 37
M  V30 39 1 2 38
M  V30 40 1 2 39
M  V30 41 1 3 40
M  V30 42 1 3 41
M  V30 43 1 4 42
M  V30 44 1 5 43
M  V30 45 1 5 44
M  V30 46 1 6 45
M  V30 47 1 6 46
M  V30 48 1 7 47
M  V30 49 1 7 48
M  V30 50 1 7 49
M  V30 51 1 11 50
M  V30 52 1 11 51
M  V30 53 1 13 52
M  V30 54 1 13 53
M  V30 55 1 14 54
M  V30 56 1 15 55
M  V30 57 1 15 56
M  V30 58 1 17 57
M  V30 59 1 19 58
M  V30 60 1 25 59
M  V30 61 1 31 60
M  V30 END BOND
M  V30 END CTAB
M  END
>  <Dataset>  (532) 
ChEMBL_Kinases

>  <Ligand_Instance>  (532) 
nan

>  <PDB_ID>  (532) 
nan

>  <Standardized_SMILES>  (532) 
CCCC(CCC)C(=O)OCC1(CO)C/C(=C/c2cc(C(F)(F)F)cc(C(F)(F)F)c2)C(=O)O1

>  <Name>  (532) 
nan

>  <Pocket>  (532) 
nan

>  <ATP_Site>  (532) 
nan

>  <Peripheral>  (532) 
nan

>  <Num_H_Atoms_ProtBoundConf>  (532) 
nan

>  <Num_Resolved_Atoms>  (532) 
nan

>  <Num_Not_Resolved_Atoms>  (532) 
nan

$$$$
CHEMBL4535960
     RDKit          3D

  0  0  0  0  0  0  0  0  0  0999 V3000
M  V30 BEGIN CTAB
M  V30 COUNTS 49 52 0 0 0
M  V30 BEGIN ATOM
M  V30 1 C -1.048218 -3.835446 4.611866 0
M  V30 2 C -0.523883 -3.000463 3.501853 0
M  V30 3 C 0.818010 -2.763046 3.272873 0
M  V30 4 C 1.266448 -1.968990 2.213491 0
M  V30 5 O 2.661386 -1.925864 2.255552 0
M  V30 6 C 0.316605 -1.391673 1.350556 0
M  V30 7 C 1.142717 -0.672884 0.418692 0
M  V30 8 C 1.711310 -1.119091 -0.803540 0
M  V30 9 C 2.553764 -0.279999 -1.500853 0
M  V30 10 C 2.837649 0.960203 -1.025110 0
M  V30 11 C 3.765845 1.790674 -1.863211 0 CFG=1
M  V30 12 C 4.278993 2.912970 -0.980380 0
M  V30 13 N 4.910789 1.050117 -2.327312 0
M  V30 14 C 2.320639 1.456344 0.153383 0
M  V30 15 C 1.475084 0.630479 0.865377 0
M  V30 16 C -0.985700 -1.643598 1.602652 0
M  V30 17 C -1.418219 -2.416978 2.634621 0
M  V30 18 N -2.736771 -2.605485 2.797946 0
M  V30 19 C -3.659220 -2.063897 1.986387 0
M  V30 20 O -4.839442 -2.325194 2.259684 0
M  V30 21 C -3.193384 -1.282539 0.946264 0
M  V30 22 C -4.145710 -0.730180 0.120029 0
M  V30 23 C -5.587103 -0.974754 0.351195 0
M  V30 24 C -3.686149 0.050687 -0.917482 0
M  V30 25 C -2.339762 0.310286 -1.176056 0
M  V30 26 C -1.497914 -0.299271 -0.279443 0
M  V30 27 C -1.866427 -1.075574 0.758154 0
M  V30 28 H -0.213552 -4.342491 5.145952 0
M  V30 29 H -1.579272 -3.190097 5.358830 0
M  V30 30 H -1.715085 -4.648781 4.244816 0
M  V30 31 H 1.433143 -3.269800 4.014500 0
M  V30 32 H 3.173117 -1.450384 2.979681 0
M  V30 33 H 1.384348 -2.129507 -1.041203 0
M  V30 34 H 2.925657 -0.726891 -2.415360 0
M  V30 35 H 3.208000 2.302977 -2.683375 0
M  V30 36 H 5.135740 3.425969 -1.490760 0
M  V30 37 H 4.590843 2.582177 0.021918 0
M  V30 38 H 3.485799 3.703042 -0.851678 0
M  V30 39 H 5.186653 0.381158 -1.577679 0
M  V30 40 H 5.694665 1.740334 -2.439883 0
M  V30 41 H 2.568125 2.449243 0.502601 0
M  V30 42 H 1.091939 1.056815 1.782238 0
M  V30 43 H -3.036090 -3.216213 3.615769 0
M  V30 44 H -6.161522 -0.417004 -0.447669 0
M  V30 45 H -5.970632 -0.531338 1.298125 0
M  V30 46 H -5.897201 -2.028331 0.206721 0
M  V30 47 H -4.477255 0.464456 -1.542138 0
M  V30 48 H -2.199255 0.945462 -2.036764 0
M  V30 49 H -0.566599 0.004920 -0.626232 0
M  V30 END ATOM
M  V30 BEGIN BOND
M  V30 1 1 1 2
M  V30 2 2 2 3
M  V30 3 1 3 4
M  V30 4 1 4 5
M  V30 5 2 4 6
M  V30 6 1 6 7
M  V30 7 2 7 8
M  V30 8 1 8 9
M  V30 9 2 9 10
M  V30 10 1 10 11
M  V30 11 1 11 12
M  V30 12 1 11 13
M  V30 13 1 10 14
M  V30 14 2 14 15
M  V30 15 1 6 16
M  V30 16 2 16 17
M  V30 17 1 17 18
M  V30 18 1 18 19
M  V30 19 2 19 20
M  V30 20 1 19 21
M  V30 21 2 21 22
M  V30 22 1 22 23
M  V30 23 1 22 24
M  V30 24 2 24 25
M  V30 25 1 25 26
M  V30 26 2 26 27
M  V30 27 1 17 2
M  V30 28 1 27 21
M  V30 29 1 15 7
M  V30 30 1 27 16
M  V30 31 1 1 28
M  V30 32 1 1 29
M  V30 33 1 1 30
M  V30 34 1 3 31
M  V30 35 1 5 32
M  V30 36 1 8 33
M  V30 37 1 9 34
M  V30 38 1 11 35 CFG=3
M  V30 39 1 12 36
M  V30 40 1 12 37
M  V30 41 1 12 38
M  V30 42 1 13 39
M  V30 43 1 13 40
M  V30 44 1 14 41
M  V30 45 1 15 42
M  V30 46 1 18 43
M  V30 47 1 23 44
M  V30 48 1 23 45
M  V30 49 1 23 46
M  V30 50 1 24 47
M  V30 51 1 25 48
M  V30 52 1 26 49
M  V30 END BOND
M  V30 END CTAB
M  END
>  <Dataset>  (533) 
ChEMBL_Kinases

>  <Ligand_Instance>  (533) 
nan

>  <PDB_ID>  (533) 
nan

>  <Standardized_SMILES>  (533) 
Cc1cc(O)c(-c2ccc([C@@H](C)N)cc2)c2c1[nH]c(=O)c1c(C)cccc12

>  <Name>  (533) 
nan

>  <Pocket>  (533) 
nan

>  <ATP_Site>  (533) 
nan

>  <Peripheral>  (533) 
nan

>  <Num_H_Atoms_ProtBoundConf>  (533) 
nan

>  <Num_Resolved_Atoms>  (533) 
nan

>  <Num_Not_Resolved_Atoms>  (533) 
nan

$$$$
CHEMBL4535851
     RDKit          3D

  0  0  0  0  0  0  0  0  0  0999 V3000
M  V30 BEGIN CTAB
M  V30 COUNTS 46 49 0 0 0
M  V30 BEGIN ATOM
M  V30 1 C -2.933069 -7.515317 -0.963708 0
M  V30 2 C -2.974727 -6.133851 -1.549385 0
M  V30 3 C -1.951536 -5.238455 -1.320754 0
M  V30 4 C -1.947095 -3.943871 -1.844431 0
M  V30 5 C -0.776288 -3.148806 -1.489461 0
M  V30 6 N 0.469535 -3.635989 -1.547564 0
M  V30 7 N 1.358316 -2.736111 -1.181242 0
M  V30 8 C 0.685093 -1.613595 -0.868962 0
M  V30 9 C 1.016850 -0.330325 -0.422547 0
M  V30 10 C 0.045306 0.634427 -0.186069 0
M  V30 11 N 0.437411 1.946058 0.274566 0
M  V30 12 C 0.581127 2.366342 1.647595 0
M  V30 13 O 0.285496 1.327810 2.287372 0
M  V30 14 C 0.993297 3.771918 1.603703 0
M  V30 15 C 1.189055 4.320537 2.993598 0
M  V30 16 C 2.213389 3.623179 3.780391 0
M  V30 17 C 3.528232 4.090656 3.654272 0
M  V30 18 C 4.612117 3.558846 4.321828 0
M  V30 19 C 4.401816 2.494903 5.174085 0
M  V30 20 C 3.122093 2.004312 5.326906 0
M  V30 21 C 2.060632 2.558950 4.644824 0
M  V30 22 N -1.249509 0.329825 -0.390768 0
M  V30 23 C -1.636764 -0.902245 -0.824952 0
M  V30 24 C -0.662010 -1.843637 -1.053530 0
M  V30 25 C -3.013508 -3.556629 -2.619482 0
M  V30 26 C -4.045515 -4.472942 -2.844713 0
M  V30 27 N -4.005659 -5.721288 -2.314180 0
M  V30 28 H -3.459994 -8.242964 -1.608154 0
M  V30 29 H -3.434690 -7.438381 0.032178 0
M  V30 30 H -1.887887 -7.821381 -0.771144 0
M  V30 31 H -1.136819 -5.611730 -0.697152 0
M  V30 32 H 2.402509 -2.802823 -1.118276 0
M  V30 33 H 2.083813 -0.131935 -0.271047 0
M  V30 34 H 0.533791 2.323503 -0.709795 0
M  V30 35 H 0.276925 4.402714 1.024309 0
M  V30 36 H 1.992741 3.820928 1.092868 0
M  V30 37 H 1.474461 5.401278 2.922227 0
M  V30 38 H 0.210185 4.337075 3.548498 0
M  V30 39 H 3.744319 4.923049 2.997915 0
M  V30 40 H 5.602851 3.967865 4.179051 0
M  V30 41 H 5.242647 2.068229 5.703719 0
M  V30 42 H 2.901572 1.182036 5.973830 0
M  V30 43 H 1.061068 2.195732 4.752829 0
M  V30 44 H -2.682460 -1.156608 -0.993003 0
M  V30 45 H -2.969057 -2.559769 -2.998961 0
M  V30 46 H -4.871761 -4.137991 -3.459385 0
M  V30 END ATOM
M  V30 BEGIN BOND
M  V30 1 1 1 2
M  V30 2 2 2 3
M  V30 3 1 3 4
M  V30 4 1 4 5
M  V30 5 2 5 6
M  V30 6 1 6 7
M  V30 7 1 7 8
M  V30 8 2 8 9
M  V30 9 1 9 10
M  V30 10 1 10 11
M  V30 11 1 11 12
M  V30 12 2 12 13
M  V30 13 1 12 14
M  V30 14 1 14 15
M  V30 15 1 15 16
M  V30 16 2 16 17
M  V30 17 1 17 18
M  V30 18 2 18 19
M  V30 19 1 19 20
M  V30 20 2 20 21
M  V30 21 2 10 22
M  V30 22 1 22 23
M  V30 23 2 23 24
M  V30 24 2 4 25
M  V30 25 1 25 26
M  V30 26 2 26 27
M  V30 27 1 27 2
M  V30 28 1 24 5
M  V30 29 1 24 8
M  V30 30 1 21 16
M  V30 31 1 1 28
M  V30 32 1 1 29
M  V30 33 1 1 30
M  V30 34 1 3 31
M  V30 35 1 7 32
M  V30 36 1 9 33
M  V30 37 1 11 34
M  V30 38 1 14 35
M  V30 39 1 14 36
M  V30 40 1 15 37
M  V30 41 1 15 38
M  V30 42 1 17 39
M  V30 43 1 18 40
M  V30 44 1 19 41
M  V30 45 1 20 42
M  V30 46 1 21 43
M  V30 47 1 23 44
M  V30 48 1 25 45
M  V30 49 1 26 46
M  V30 END BOND
M  V30 END CTAB
M  END
>  <Dataset>  (534) 
ChEMBL_Kinases

>  <Ligand_Instance>  (534) 
nan

>  <PDB_ID>  (534) 
nan

>  <Standardized_SMILES>  (534) 
Cc1cc(-c2n[nH]c3cc(NC(=O)CCc4ccccc4)ncc23)ccn1

>  <Name>  (534) 
nan

>  <Pocket>  (534) 
nan

>  <ATP_Site>  (534) 
nan

>  <Peripheral>  (534) 
nan

>  <Num_H_Atoms_ProtBoundConf>  (534) 
nan

>  <Num_Resolved_Atoms>  (534) 
nan

>  <Num_Not_Resolved_Atoms>  (534) 
nan

$$$$
CHEMBL4535813
     RDKit          3D

  0  0  0  0  0  0  0  0  0  0999 V3000
M  V30 BEGIN CTAB
M  V30 COUNTS 117 120 0 0 0
M  V30 BEGIN ATOM
M  V30 1 C 6.877981 -2.344761 2.659258 0
M  V30 2 C 7.934776 -2.425380 1.575007 0
M  V30 3 C 7.339447 -3.060808 0.312033 0
M  V30 4 C 6.193458 -2.212027 -0.185616 0
M  V30 5 C 5.536578 -2.776351 -1.436826 0
M  V30 6 C 4.949646 -4.121923 -1.222208 0
M  V30 7 C 4.242984 -4.729616 -2.413373 0
M  V30 8 C 3.096274 -3.894019 -2.785625 0
M  V30 9 O 3.287268 -3.305691 -1.726256 0
M  V30 10 O 2.013166 -3.170847 -3.227966 0
M  V30 11 C 1.444053 -2.123135 -2.564266 0 CFG=1
M  V30 12 C 1.634569 -0.894802 -3.441010 0
M  V30 13 C 2.543104 0.007136 -3.149009 0
M  V30 14 C 2.807052 1.206747 -3.907733 0
M  V30 15 O 3.665474 2.073812 -3.653869 0
M  V30 16 O 2.306949 1.801876 -5.037701 0
M  V30 17 C 2.836117 3.034907 -5.510454 0
M  V30 18 C 0.743436 -0.792678 -4.610240 0
M  V30 19 C -0.730518 -0.961847 -4.190153 0 CFG=1
M  V30 20 C -1.548676 -1.097349 -5.454130 0
M  V30 21 C -2.869702 -0.410626 -5.415351 0 CFG=2
M  V30 22 C -2.692399 1.098987 -5.132372 0
M  V30 23 O -1.698242 1.532484 -6.022360 0
M  V30 24 O -3.837752 -0.977785 -4.597333 0
M  V30 25 C -5.128087 -1.374337 -4.922872 0
M  V30 26 O -5.620634 -1.242835 -6.086165 0
M  V30 27 C -5.634303 -1.926823 -3.603263 0
M  V30 28 C -5.499500 -0.892930 -2.501660 0
M  V30 29 O -5.770986 -1.387563 -1.229016 0
M  V30 30 C -5.662222 -0.742100 -0.020184 0
M  V30 31 C -6.610591 -0.182338 0.798911 0
M  V30 32 C -6.295468 0.425216 1.990589 0
M  V30 33 C -4.998988 0.510417 2.439584 0
M  V30 34 C -4.501183 1.121944 3.661388 0
M  V30 35 C -3.224600 1.675734 3.647221 0
M  V30 36 C -2.662376 2.278267 4.750306 0
M  V30 37 C -3.362733 2.365481 5.964119 0
M  V30 38 C -2.663023 3.011781 7.039171 0
M  V30 39 O -2.453044 2.539129 8.183287 0
M  V30 40 N -2.043310 4.298949 7.108077 0
M  V30 41 C -1.440561 4.523849 8.431270 0
M  V30 42 C -0.017240 4.064558 8.502089 0
M  V30 43 C -1.885007 5.406991 6.170340 0
M  V30 44 C -0.626185 5.289410 5.372494 0
M  V30 45 C -4.624700 1.811162 5.956888 0
M  V30 46 C -5.181135 1.209611 4.850678 0
M  V30 47 C -4.041674 -0.064500 1.592723 0
M  V30 48 C -4.298769 -0.693131 0.373809 0
M  V30 49 C -3.241536 -1.270370 -0.498326 0
M  V30 50 O -2.774649 -0.153316 -0.776748 0
M  V30 51 O -2.840962 -2.369516 -0.901606 0
M  V30 52 C -2.089084 -3.196523 -1.573846 0
M  V30 53 C -0.571157 -3.212544 -1.452469 0
M  V30 54 C -0.163213 -4.539032 -2.155833 0
M  V30 55 C -0.207582 -3.172549 -0.032541 0
M  V30 56 C -0.043647 -2.118334 -2.339402 0 CFG=1
M  V30 57 O -0.237062 -0.871556 -1.760659 0
M  V30 58 O -0.789159 -2.167937 -3.510359 0
M  V30 59 H 7.319067 -2.521357 3.660935 0
M  V30 60 H 6.385618 -1.332246 2.702565 0
M  V30 61 H 6.047088 -3.076277 2.499116 0
M  V30 62 H 8.736865 -3.071870 1.925331 0
M  V30 63 H 8.368066 -1.426185 1.379515 0
M  V30 64 H 7.067766 -4.093696 0.539794 0
M  V30 65 H 8.184200 -2.999620 -0.434074 0
M  V30 66 H 5.437860 -2.199821 0.642035 0
M  V30 67 H 6.594919 -1.195198 -0.369973 0
M  V30 68 H 6.416137 -2.882848 -2.162153 0
M  V30 69 H 4.924642 -2.000378 -1.867566 0
M  V30 70 H 4.245219 -4.069239 -0.340436 0
M  V30 71 H 5.749617 -4.820863 -0.856928 0
M  V30 72 H 3.850275 -5.726269 -2.116223 0
M  V30 73 H 5.007881 -4.803210 -3.216730 0
M  V30 74 H 1.880850 -1.836403 -1.566165 0
M  V30 75 H 3.166807 -0.107329 -2.286477 0
M  V30 76 H 2.928907 3.784676 -4.699628 0
M  V30 77 H 3.871114 2.848042 -5.886748 0
M  V30 78 H 2.168700 3.479300 -6.280560 0
M  V30 79 H 0.963469 -1.695838 -5.242551 0
M  V30 80 H 0.880377 0.069550 -5.244864 0
M  V30 81 H -1.029896 -0.084562 -3.589128 0
M  V30 82 H -0.969438 -0.678285 -6.297796 0
M  V30 83 H -1.723011 -2.160755 -5.713850 0
M  V30 84 H -3.281319 -0.393272 -6.466433 0
M  V30 85 H -3.636073 1.570796 -5.460951 0
M  V30 86 H -2.432044 1.298204 -4.096332 0
M  V30 87 H -1.816382 1.193252 -6.924679 0
M  V30 88 H -5.111315 -2.872775 -3.397783 0
M  V30 89 H -6.712651 -2.162345 -3.699957 0
M  V30 90 H -4.605764 -0.286948 -2.596850 0
M  V30 91 H -6.346264 -0.142351 -2.695959 0
M  V30 92 H -7.598782 -0.264398 0.423426 0
M  V30 93 H -7.046897 0.862022 2.626766 0
M  V30 94 H -2.631889 1.645816 2.747487 0
M  V30 95 H -1.649453 2.688656 4.657271 0
M  V30 96 H -2.013094 4.064639 9.247375 0
M  V30 97 H -1.444425 5.626167 8.662883 0
M  V30 98 H 0.682085 4.933701 8.419726 0
M  V30 99 H 0.182397 3.645629 9.514956 0
M  V30 100 H 0.244078 3.270116 7.763069 0
M  V30 101 H -2.794595 5.511726 5.528346 0
M  V30 102 H -1.843113 6.345341 6.755028 0
M  V30 103 H -0.113911 4.318666 5.499471 0
M  V30 104 H 0.144642 6.052250 5.683521 0
M  V30 105 H -0.792205 5.415525 4.267520 0
M  V30 106 H -5.146686 1.887816 6.895448 0
M  V30 107 H -6.159254 0.797879 4.893644 0
M  V30 108 H -2.950595 -0.097701 1.777350 0
M  V30 109 H -2.437716 -4.264384 -1.276970 0
M  V30 110 H -2.296054 -3.261627 -2.699710 0
M  V30 111 H -0.984714 -5.297027 -2.066151 0
M  V30 112 H -0.000742 -4.387208 -3.231943 0
M  V30 113 H 0.693773 -5.009354 -1.625084 0
M  V30 114 H -1.023832 -2.887629 0.660966 0
M  V30 115 H 0.052752 -4.225105 0.281096 0
M  V30 116 H 0.674336 -2.578557 0.252023 0
M  V30 117 H -0.147553 -1.008631 -0.776930 0
M  V30 END ATOM
M  V30 BEGIN BOND
M  V30 1 1 1 2
M  V30 2 1 2 3
M  V30 3 1 3 4
M  V30 4 1 4 5
M  V30 5 1 5 6
M  V30 6 1 6 7
M  V30 7 1 7 8
M  V30 8 2 8 9
M  V30 9 1 8 10
M  V30 10 1 10 11
M  V30 11 1 11 12
M  V30 12 2 12 13
M  V30 13 1 13 14
M  V30 14 2 14 15
M  V30 15 1 14 16
M  V30 16 1 16 17
M  V30 17 1 12 18
M  V30 18 1 18 19
M  V30 19 1 19 20
M  V30 20 1 20 21
M  V30 21 1 21 22
M  V30 22 1 22 23
M  V30 23 1 21 24
M  V30 24 1 24 25
M  V30 25 2 25 26
M  V30 26 1 25 27
M  V30 27 1 27 28
M  V30 28 1 28 29
M  V30 29 1 29 30
M  V30 30 2 30 31
M  V30 31 1 31 32
M  V30 32 2 32 33
M  V30 33 1 33 34
M  V30 34 2 34 35
M  V30 35 1 35 36
M  V30 36 2 36 37
M  V30 37 1 37 38
M  V30 38 2 38 39
M  V30 39 1 38 40
M  V30 40 1 40 41
M  V30 41 1 41 42
M  V30 42 1 40 43
M  V30 43 1 43 44
M  V30 44 1 37 45
M  V30 45 2 45 46
M  V30 46 1 33 47
M  V30 47 2 47 48
M  V30 48 1 48 49
M  V30 49 2 49 50
M  V30 50 1 49 51
M  V30 51 1 51 52
M  V30 52 1 52 53
M  V30 53 1 53 54
M  V30 54 1 53 55
M  V30 55 1 53 56
M  V30 56 1 56 57 CFG=1
M  V30 57 1 56 58
M  V30 58 1 56 11
M  V30 59 1 58 19
M  V30 60 1 48 30
M  V30 61 1 46 34
M  V30 62 1 1 59
M  V30 63 1 1 60
M  V30 64 1 1 61
M  V30 65 1 2 62
M  V30 66 1 2 63
M  V30 67 1 3 64
M  V30 68 1 3 65
M  V30 69 1 4 66
M  V30 70 1 4 67
M  V30 71 1 5 68
M  V30 72 1 5 69
M  V30 73 1 6 70
M  V30 74 1 6 71
M  V30 75 1 7 72
M  V30 76 1 7 73
M  V30 77 1 11 74 CFG=1
M  V30 78 1 13 75
M  V30 79 1 17 76
M  V30 80 1 17 77
M  V30 81 1 17 78
M  V30 82 1 18 79
M  V30 83 1 18 80
M  V30 84 1 19 81 CFG=1
M  V30 85 1 20 82
M  V30 86 1 20 83
M  V30 87 1 21 84 CFG=3
M  V30 88 1 22 85
M  V30 89 1 22 86
M  V30 90 1 23 87
M  V30 91 1 27 88
M  V30 92 1 27 89
M  V30 93 1 28 90
M  V30 94 1 28 91
M  V30 95 1 31 92
M  V30 96 1 32 93
M  V30 97 1 35 94
M  V30 98 1 36 95
M  V30 99 1 41 96
M  V30 100 1 41 97
M  V30 101 1 42 98
M  V30 102 1 42 99
M  V30 103 1 42 100
M  V30 104 1 43 101
M  V30 105 1 43 102
M  V30 106 1 44 103
M  V30 107 1 44 104
M  V30 108 1 44 105
M  V30 109 1 45 106
M  V30 110 1 46 107
M  V30 111 1 47 108
M  V30 112 1 52 109
M  V30 113 1 52 110
M  V30 114 1 54 111
M  V30 115 1 54 112
M  V30 116 1 54 113
M  V30 117 1 55 114
M  V30 118 1 55 115
M  V30 119 1 55 116
M  V30 120 1 57 117
M  V30 END BOND
M  V30 END CTAB
M  END
>  <Dataset>  (535) 
ChEMBL_Kinases

>  <Ligand_Instance>  (535) 
nan

>  <PDB_ID>  (535) 
nan

>  <Standardized_SMILES>  (535) 
CCCCCCCC(=O)O[C@H]1/C(=C/C(=O)OC)C[C@H]2C[C@H](CO)OC(=O)CCOc3ccc(-c4ccc(C(=O)N(CC)CC)cc4)cc3C(=O)OCC(C)(C)[C@]1(O)O2

>  <Name>  (535) 
nan

>  <Pocket>  (535) 
nan

>  <ATP_Site>  (535) 
nan

>  <Peripheral>  (535) 
nan

>  <Num_H_Atoms_ProtBoundConf>  (535) 
nan

>  <Num_Resolved_Atoms>  (535) 
nan

>  <Num_Not_Resolved_Atoms>  (535) 
nan

$$$$
CHEMBL4535176
     RDKit          3D

  0  0  0  0  0  0  0  0  0  0999 V3000
M  V30 BEGIN CTAB
M  V30 COUNTS 54 58 0 0 0
M  V30 BEGIN ATOM
M  V30 1 O 0.475367 -5.024712 -0.698756 0
M  V30 2 C -0.365372 -4.256029 -0.186680 0
M  V30 3 C -0.180878 -2.846293 0.182734 0
M  V30 4 C 0.936558 -2.046079 0.058876 0
M  V30 5 C 0.956857 -0.728290 0.454896 0
M  V30 6 C 2.089805 0.182529 0.359008 0
M  V30 7 C 3.282872 -0.253572 -0.168920 0
M  V30 8 C 4.301292 0.674601 -0.221740 0
M  V30 9 N 4.218333 1.948274 0.195391 0
M  V30 10 C 3.004415 2.307337 0.706625 0
M  V30 11 N 2.716858 3.625462 1.202012 0
M  V30 12 C 1.505944 4.184766 1.778701 0
M  V30 13 C 1.663509 5.639606 2.125740 0
M  V30 14 C 1.615724 5.968407 3.572107 0
M  V30 15 O 0.599530 5.245421 4.239055 0
M  V30 16 C 1.069786 3.933262 4.257569 0
M  V30 17 C 0.930647 3.358134 2.872627 0
M  V30 18 N 1.980049 1.453167 0.784027 0
M  V30 19 C -0.243273 -0.257988 0.994338 0
M  V30 20 C -1.379447 -1.027820 1.133658 0
M  V30 21 C -1.354506 -2.343825 0.723285 0
M  V30 22 C -2.396146 -3.411198 0.740522 0
M  V30 23 N -1.701320 -4.561008 0.161056 0
M  V30 24 C -2.294251 -5.873506 -0.042979 0
M  V30 25 C -2.930723 -5.956692 -1.400378 0
M  V30 26 C -4.255282 -5.601325 -1.579964 0
M  V30 27 C -4.720700 -5.723619 -2.880904 0
M  V30 28 C -3.987059 -6.156965 -3.966137 0
M  V30 29 F -4.530917 -6.242752 -5.199130 0
M  V30 30 C -2.678274 -6.488772 -3.691957 0
M  V30 31 Cl -1.639839 -7.054094 -4.987407 0
M  V30 32 C -2.119001 -6.402744 -2.433549 0
M  V30 33 H 1.824967 -2.449553 -0.357378 0
M  V30 34 H 3.454610 -1.252734 -0.531066 0
M  V30 35 H 5.262060 0.386929 -0.627483 0
M  V30 36 H 3.540670 4.294074 1.126810 0
M  V30 37 H 0.753945 4.144765 0.934786 0
M  V30 38 H 2.651198 5.958287 1.715897 0
M  V30 39 H 0.919562 6.293129 1.589647 0
M  V30 40 H 1.299529 7.041862 3.681000 0
M  V30 41 H 2.573438 5.870866 4.118799 0
M  V30 42 H 0.458231 3.326742 4.939337 0
M  V30 43 H 2.114136 3.929112 4.620770 0
M  V30 44 H -0.152409 3.132315 2.734155 0
M  V30 45 H 1.447444 2.376735 2.892688 0
M  V30 46 H -0.331277 0.773125 1.338177 0
M  V30 47 H -2.289973 -0.623162 1.557362 0
M  V30 48 H -3.295019 -3.140131 0.143109 0
M  V30 49 H -2.676011 -3.713108 1.764728 0
M  V30 50 H -1.495893 -6.656849 0.024946 0
M  V30 51 H -3.034813 -6.088098 0.768371 0
M  V30 52 H -4.869328 -5.259418 -0.775607 0
M  V30 53 H -5.755236 -5.453847 -3.058812 0
M  V30 54 H -1.079430 -6.678173 -2.275262 0
M  V30 END ATOM
M  V30 BEGIN BOND
M  V30 1 2 1 2
M  V30 2 1 2 3
M  V30 3 2 3 4
M  V30 4 1 4 5
M  V30 5 1 5 6
M  V30 6 2 6 7
M  V30 7 1 7 8
M  V30 8 2 8 9
M  V30 9 1 9 10
M  V30 10 1 10 11
M  V30 11 1 11 12
M  V30 12 1 12 13
M  V30 13 1 13 14
M  V30 14 1 14 15
M  V30 15 1 15 16
M  V30 16 1 16 17
M  V30 17 2 10 18
M  V30 18 2 5 19
M  V30 19 1 19 20
M  V30 20 2 20 21
M  V30 21 1 21 22
M  V30 22 1 22 23
M  V30 23 1 23 24
M  V30 24 1 24 25
M  V30 25 2 25 26
M  V30 26 1 26 27
M  V30 27 2 27 28
M  V30 28 1 28 29
M  V30 29 1 28 30
M  V30 30 1 30 31
M  V30 31 2 30 32
M  V30 32 1 23 2
M  V30 33 1 32 25
M  V30 34 1 21 3
M  V30 35 1 18 6
M  V30 36 1 17 12
M  V30 37 1 4 33
M  V30 38 1 7 34
M  V30 39 1 8 35
M  V30 40 1 11 36
M  V30 41 1 12 37
M  V30 42 1 13 38
M  V30 43 1 13 39
M  V30 44 1 14 40
M  V30 45 1 14 41
M  V30 46 1 16 42
M  V30 47 1 16 43
M  V30 48 1 17 44
M  V30 49 1 17 45
M  V30 50 1 19 46
M  V30 51 1 20 47
M  V30 52 1 22 48
M  V30 53 1 22 49
M  V30 54 1 24 50
M  V30 55 1 24 51
M  V30 56 1 26 52
M  V30 57 1 27 53
M  V30 58 1 32 54
M  V30 END BOND
M  V30 END CTAB
M  END
>  <Dataset>  (536) 
ChEMBL_Kinases

>  <Ligand_Instance>  (536) 
nan

>  <PDB_ID>  (536) 
nan

>  <Standardized_SMILES>  (536) 
O=C1c2cc(-c3ccnc(NC4CCOCC4)n3)ccc2CN1Cc1ccc(F)c(Cl)c1

>  <Name>  (536) 
nan

>  <Pocket>  (536) 
nan

>  <ATP_Site>  (536) 
nan

>  <Peripheral>  (536) 
nan

>  <Num_H_Atoms_ProtBoundConf>  (536) 
nan

>  <Num_Resolved_Atoms>  (536) 
nan

>  <Num_Not_Resolved_Atoms>  (536) 
nan

$$$$
CHEMBL4641881
     RDKit          3D

  0  0  0  0  0  0  0  0  0  0999 V3000
M  V30 BEGIN CTAB
M  V30 COUNTS 69 73 0 0 0
M  V30 BEGIN ATOM
M  V30 1 C 7.665856 1.470766 2.502981 0
M  V30 2 C 7.013637 0.141739 2.785128 0
M  V30 3 C 6.609779 -0.500597 1.506968 0
M  V30 4 C 5.646919 0.345760 0.786148 0
M  V30 5 O 4.857228 -0.656655 0.851814 0
M  V30 6 N 5.388513 1.585304 0.200417 0
M  V30 7 C 4.063829 1.571023 -0.330883 0
M  V30 8 C 3.091806 1.988189 0.553806 0
M  V30 9 C 1.790558 1.995227 0.094457 0
M  V30 10 C 1.538346 1.591890 -1.201040 0
M  V30 11 C 0.152885 1.596950 -1.694774 0
M  V30 12 C -0.176465 1.829549 -3.016433 0
M  V30 13 C -1.519611 1.806258 -3.349701 0
M  V30 14 C -2.463413 1.557766 -2.375798 0
M  V30 15 N -3.825140 1.491889 -2.492735 0
M  V30 16 C -4.345674 1.225204 -1.278955 0
M  V30 17 N -5.559029 1.008955 -0.565191 0
M  V30 18 C -6.108956 -0.316781 -0.412731 0
M  V30 19 C -5.406555 -1.375983 -0.993155 0
M  V30 20 C -5.925085 -2.666068 -0.852177 0
M  V30 21 C -7.104093 -2.851604 -0.150608 0
M  V30 22 S -7.695572 -4.510996 -0.012577 0
M  V30 23 C -7.051651 -5.285558 1.450607 0
M  V30 24 O -9.173687 -4.591109 0.035501 0
M  V30 25 O -7.215774 -5.336244 -1.187108 0
M  V30 26 C -7.792235 -1.801094 0.419589 0
M  V30 27 C -7.281580 -0.513209 0.283316 0
M  V30 28 O -7.916751 0.594774 0.828762 0
M  V30 29 C -9.128203 0.368580 1.545240 0
M  V30 30 N -3.290053 1.128374 -0.417732 0
M  V30 31 N -2.142545 1.331351 -1.088199 0
M  V30 32 C -0.834147 1.352450 -0.755761 0
M  V30 33 C 2.541653 1.180469 -2.057193 0
M  V30 34 C 3.855045 1.159981 -1.633147 0
M  V30 35 C 6.045627 -1.856116 1.767553 0
M  V30 36 C 6.660446 -2.949092 1.153573 0
M  V30 37 C 6.166516 -4.237620 1.373280 0
M  V30 38 C 5.087118 -4.491076 2.177023 0
M  V30 39 F 4.666250 -5.763698 2.341938 0
M  V30 40 C 4.503619 -3.390444 2.767829 0
M  V30 41 C 4.950317 -2.103317 2.584514 0
M  V30 42 H 8.228344 1.448670 1.537134 0
M  V30 43 H 8.486591 1.680525 3.259718 0
M  V30 44 H 6.979224 2.316642 2.614747 0
M  V30 45 H 7.759191 -0.447273 3.364177 0
M  V30 46 H 6.152320 0.284116 3.485210 0
M  V30 47 H 7.524757 -0.673805 0.888488 0
M  V30 48 H 6.271808 2.091436 0.359732 0
M  V30 49 H 3.308635 2.298560 1.559623 0
M  V30 50 H 0.971408 2.309035 0.727785 0
M  V30 51 H 0.598321 2.016702 -3.728988 0
M  V30 52 H -1.846437 1.978269 -4.353780 0
M  V30 53 H -6.073058 1.809739 -0.138127 0
M  V30 54 H -4.490568 -1.139542 -1.525751 0
M  V30 55 H -5.364345 -3.489930 -1.311565 0
M  V30 56 H -5.989154 -5.552556 1.385290 0
M  V30 57 H -7.653131 -6.217180 1.613086 0
M  V30 58 H -7.194987 -4.684020 2.367796 0
M  V30 59 H -8.720731 -1.966599 0.969447 0
M  V30 60 H -9.924269 -0.078145 0.916494 0
M  V30 61 H -9.444571 1.352233 1.941735 0
M  V30 62 H -8.934390 -0.364420 2.378568 0
M  V30 63 H -0.657458 1.161737 0.295730 0
M  V30 64 H 2.310792 0.870315 -3.068068 0
M  V30 65 H 4.692768 0.849596 -2.248615 0
M  V30 66 H 7.521517 -2.857701 0.498560 0
M  V30 67 H 6.654062 -5.085765 0.888865 0
M  V30 68 H 3.635391 -3.592113 3.414248 0
M  V30 69 H 4.467079 -1.249492 3.068240 0
M  V30 END ATOM
M  V30 BEGIN BOND
M  V30 1 1 1 2
M  V30 2 1 2 3
M  V30 3 1 3 4
M  V30 4 2 4 5
M  V30 5 1 4 6
M  V30 6 1 6 7
M  V30 7 2 7 8
M  V30 8 1 8 9
M  V30 9 2 9 10
M  V30 10 1 10 11
M  V30 11 1 11 12
M  V30 12 2 12 13
M  V30 13 1 13 14
M  V30 14 2 14 15
M  V30 15 1 15 16
M  V30 16 1 16 17
M  V30 17 1 17 18
M  V30 18 2 18 19
M  V30 19 1 19 20
M  V30 20 2 20 21
M  V30 21 1 21 22
M  V30 22 1 22 23
M  V30 23 2 22 24
M  V30 24 2 22 25
M  V30 25 1 21 26
M  V30 26 2 26 27
M  V30 27 1 27 28
M  V30 28 1 28 29
M  V30 29 2 16 30
M  V30 30 1 30 31
M  V30 31 1 31 32
M  V30 32 1 10 33
M  V30 33 2 33 34
M  V30 34 1 3 35
M  V30 35 2 35 36
M  V30 36 1 36 37
M  V30 37 2 37 38
M  V30 38 1 38 39
M  V30 39 1 38 40
M  V30 40 2 40 41
M  V30 41 1 34 7
M  V30 42 1 41 35
M  V30 43 2 32 11
M  V30 44 1 31 14
M  V30 45 1 27 18
M  V30 46 1 1 42
M  V30 47 1 1 43
M  V30 48 1 1 44
M  V30 49 1 2 45
M  V30 50 1 2 46
M  V30 51 1 3 47
M  V30 52 1 6 48
M  V30 53 1 8 49
M  V30 54 1 9 50
M  V30 55 1 12 51
M  V30 56 1 13 52
M  V30 57 1 17 53
M  V30 58 1 19 54
M  V30 59 1 20 55
M  V30 60 1 23 56
M  V30 61 1 23 57
M  V30 62 1 23 58
M  V30 63 1 26 59
M  V30 64 1 29 60
M  V30 65 1 29 61
M  V30 66 1 29 62
M  V30 67 1 32 63
M  V30 68 1 33 64
M  V30 69 1 34 65
M  V30 70 1 36 66
M  V30 71 1 37 67
M  V30 72 1 40 68
M  V30 73 1 41 69
M  V30 END BOND
M  V30 END CTAB
M  END
>  <Dataset>  (537) 
ChEMBL_Kinases

>  <Ligand_Instance>  (537) 
nan

>  <PDB_ID>  (537) 
nan

>  <Standardized_SMILES>  (537) 
CCC(C(=O)Nc1ccc(-c2ccc3nc(Nc4ccc(S(C)(=O)=O)cc4OC)nn3c2)cc1)c1ccc(F)cc1

>  <Name>  (537) 
nan

>  <Pocket>  (537) 
nan

>  <ATP_Site>  (537) 
nan

>  <Peripheral>  (537) 
nan

>  <Num_H_Atoms_ProtBoundConf>  (537) 
nan

>  <Num_Resolved_Atoms>  (537) 
nan

>  <Num_Not_Resolved_Atoms>  (537) 
nan

$$$$
CHEMBL4535758
     RDKit          3D

  0  0  0  0  0  0  0  0  0  0999 V3000
M  V30 BEGIN CTAB
M  V30 COUNTS 55 58 0 0 0
M  V30 BEGIN ATOM
M  V30 1 C 2.842629 -3.159970 4.495175 0
M  V30 2 O 1.928173 -3.310700 3.403960 0
M  V30 3 C 2.014569 -2.358370 2.348674 0
M  V30 4 C 2.995267 -1.372704 2.534462 0
M  V30 5 C 3.234355 -0.342597 1.604235 0
M  V30 6 N 4.170679 0.587766 1.741282 0
M  V30 7 C 4.313971 1.491821 0.788681 0
M  V30 8 N 3.529021 1.454063 -0.274225 0
M  V30 9 C 2.548535 0.556490 -0.519809 0
M  V30 10 C 1.842823 0.766724 -1.725611 0
M  V30 11 C 1.568394 2.293125 -1.782137 0
M  V30 12 C 0.451514 2.592884 -0.830470 0
M  V30 13 N -0.468296 1.501390 -0.640715 0
M  V30 14 C -1.153725 1.349217 0.565434 0
M  V30 15 O -1.053546 2.122085 1.561797 0
M  V30 16 C -2.102614 0.316266 0.956149 0
M  V30 17 C -3.296417 0.612499 0.365151 0
M  V30 18 C -4.523505 -0.078401 0.399069 0
M  V30 19 C -4.344238 -1.240293 1.205995 0
M  V30 20 O -5.339297 -2.221707 1.497075 0
M  V30 21 C -5.421879 -3.324080 0.555078 0
M  V30 22 F -4.223776 -3.967529 0.526215 0
M  V30 23 F -5.839815 -2.827092 -0.659399 0
M  V30 24 F -6.393271 -4.146723 1.037763 0
M  V30 25 C -3.184081 -1.592978 1.824851 0
M  V30 26 C -2.035624 -0.842378 1.727979 0
M  V30 27 C -0.676706 0.579045 -1.731328 0
M  V30 28 C 0.669577 0.263427 -2.317864 0
M  V30 29 C 2.435615 -0.364598 0.494624 0
M  V30 30 C 1.495287 -1.330254 0.338136 0
M  V30 31 C 1.213594 -2.354884 1.198422 0
M  V30 32 O 0.296199 -3.346936 1.106963 0
M  V30 33 C -0.631570 -3.575910 0.065667 0
M  V30 34 H 3.849288 -3.249466 4.044740 0
M  V30 35 H 2.769913 -2.166910 4.993447 0
M  V30 36 H 2.619198 -3.968037 5.210999 0
M  V30 37 H 3.649464 -1.314791 3.401003 0
M  V30 38 H 5.110895 2.216469 0.977065 0
M  V30 39 H 2.663165 0.703525 -2.545907 0
M  V30 40 H 2.494885 2.789333 -1.396927 0
M  V30 41 H 1.366419 2.611827 -2.819261 0
M  V30 42 H -0.111159 3.526484 -1.165222 0
M  V30 43 H 0.805356 2.907551 0.195325 0
M  V30 44 H -3.600468 1.471222 -0.283099 0
M  V30 45 H -5.503055 -0.017394 0.032670 0
M  V30 46 H -3.007769 -2.457710 2.459593 0
M  V30 47 H -1.036374 -0.897734 2.114519 0
M  V30 48 H -1.403208 1.055924 -2.401432 0
M  V30 49 H -1.173940 -0.358425 -1.386230 0
M  V30 50 H 0.600690 0.789510 -3.343262 0
M  V30 51 H 0.688003 -0.775489 -2.790957 0
M  V30 52 H 0.881966 -1.355035 -0.529230 0
M  V30 53 H -1.352337 -4.332460 0.494738 0
M  V30 54 H -0.080950 -4.156237 -0.714954 0
M  V30 55 H -1.146745 -2.691785 -0.301646 0
M  V30 END ATOM
M  V30 BEGIN BOND
M  V30 1 1 1 2
M  V30 2 1 2 3
M  V30 3 2 3 4
M  V30 4 1 4 5
M  V30 5 2 5 6
M  V30 6 1 6 7
M  V30 7 2 7 8
M  V30 8 1 8 9
M  V30 9 1 9 10
M  V30 10 1 10 11
M  V30 11 1 11 12
M  V30 12 1 12 13
M  V30 13 1 13 14
M  V30 14 2 14 15
M  V30 15 1 14 16
M  V30 16 2 16 17
M  V30 17 1 17 18
M  V30 18 2 18 19
M  V30 19 1 19 20
M  V30 20 1 20 21
M  V30 21 1 21 22
M  V30 22 1 21 23
M  V30 23 1 21 24
M  V30 24 1 19 25
M  V30 25 2 25 26
M  V30 26 1 13 27
M  V30 27 1 27 28
M  V30 28 2 9 29
M  V30 29 1 29 30
M  V30 30 2 30 31
M  V30 31 1 31 32
M  V30 32 1 32 33
M  V30 33 1 31 3
M  V30 34 1 29 5
M  V30 35 1 28 10
M  V30 36 1 26 16
M  V30 37 1 1 34
M  V30 38 1 1 35
M  V30 39 1 1 36
M  V30 40 1 4 37
M  V30 41 1 7 38
M  V30 42 1 10 39
M  V30 43 1 11 40
M  V30 44 1 11 41
M  V30 45 1 12 42
M  V30 46 1 12 43
M  V30 47 1 17 44
M  V30 48 1 18 45
M  V30 49 1 25 46
M  V30 50 1 26 47
M  V30 51 1 27 48
M  V30 52 1 27 49
M  V30 53 1 28 50
M  V30 54 1 28 51
M  V30 55 1 30 52
M  V30 56 1 33 53
M  V30 57 1 33 54
M  V30 58 1 33 55
M  V30 END BOND
M  V30 END CTAB
M  END
>  <Dataset>  (538) 
ChEMBL_Kinases

>  <Ligand_Instance>  (538) 
nan

>  <PDB_ID>  (538) 
nan

>  <Standardized_SMILES>  (538) 
COc1cc2ncnc(C3CCN(C(=O)c4ccc(OC(F)(F)F)cc4)CC3)c2cc1OC

>  <Name>  (538) 
nan

>  <Pocket>  (538) 
nan

>  <ATP_Site>  (538) 
nan

>  <Peripheral>  (538) 
nan

>  <Num_H_Atoms_ProtBoundConf>  (538) 
nan

>  <Num_Resolved_Atoms>  (538) 
nan

>  <Num_Not_Resolved_Atoms>  (538) 
nan

$$$$
CHEMBL4535643
     RDKit          3D

  0  0  0  0  0  0  0  0  0  0999 V3000
M  V30 BEGIN CTAB
M  V30 COUNTS 46 49 0 0 0
M  V30 BEGIN ATOM
M  V30 1 N 2.559120 -1.509398 3.639280 0
M  V30 2 C 3.126366 -0.834597 2.521832 0
M  V30 3 N 4.303931 -1.279118 1.989753 0
M  V30 4 C 4.877667 -0.663965 0.925031 0
M  V30 5 C 4.275744 0.437870 0.350024 0
M  V30 6 C 4.910081 1.086026 -0.798513 0
M  V30 7 C 5.635946 0.248320 -1.656068 0
M  V30 8 C 6.221071 0.871829 -2.723144 0
M  V30 9 N 6.162153 2.169749 -3.009321 0
M  V30 10 C 5.461536 2.989521 -2.184784 0
M  V30 11 C 4.835742 2.452891 -1.081277 0
M  V30 12 C 3.078611 0.938996 0.843436 0
M  V30 13 C 2.545524 0.270848 1.926194 0
M  V30 14 N 1.303896 0.669937 2.553413 0
M  V30 15 C 0.268213 -0.039625 1.877622 0
M  V30 16 O 0.759979 -0.780372 0.958067 0
M  V30 17 C -1.164585 0.060310 2.188293 0
M  V30 18 C -1.746900 0.854456 3.169246 0
M  V30 19 C -3.117460 0.827223 3.329720 0
M  V30 20 N -3.897363 0.037642 2.544165 0
M  V30 21 C -3.326975 -0.742157 1.581124 0
M  V30 22 N -4.209126 -1.543082 0.797805 0
M  V30 23 C -4.551619 -2.864208 1.195488 0
M  V30 24 O -4.541101 -3.889240 1.923610 0
M  V30 25 C -5.480542 -3.731655 0.387351 0
M  V30 26 C -5.577408 -3.545784 -1.073562 0
M  V30 27 C -6.662203 -2.973427 -0.229429 0
M  V30 28 C -1.979586 -0.735189 1.400862 0
M  V30 29 H 2.624685 -0.766900 4.369476 0
M  V30 30 H 2.162021 -2.478701 3.778918 0
M  V30 31 H 5.819641 -1.092467 0.570148 0
M  V30 32 H 5.702521 -0.811103 -1.450257 0
M  V30 33 H 6.790489 0.220800 -3.397747 0
M  V30 34 H 5.376570 4.056679 -2.364858 0
M  V30 35 H 4.269713 3.058966 -0.398817 0
M  V30 36 H 2.578014 1.780785 0.437637 0
M  V30 37 H 1.000851 1.318248 3.341791 0
M  V30 38 H -1.048612 1.445474 3.741185 0
M  V30 39 H -3.526366 1.462520 4.106550 0
M  V30 40 H -4.665144 -1.255461 -0.095324 0
M  V30 41 H -5.649589 -4.727317 0.824562 0
M  V30 42 H -5.787605 -4.453819 -1.674192 0
M  V30 43 H -4.936832 -2.824228 -1.618092 0
M  V30 44 H -7.627554 -3.524504 -0.149477 0
M  V30 45 H -6.678129 -1.864202 -0.100925 0
M  V30 46 H -1.587092 -1.375040 0.621107 0
M  V30 END ATOM
M  V30 BEGIN BOND
M  V30 1 1 1 2
M  V30 2 2 2 3
M  V30 3 1 3 4
M  V30 4 2 4 5
M  V30 5 1 5 6
M  V30 6 2 6 7
M  V30 7 1 7 8
M  V30 8 2 8 9
M  V30 9 1 9 10
M  V30 10 2 10 11
M  V30 11 1 5 12
M  V30 12 2 12 13
M  V30 13 1 13 14
M  V30 14 1 14 15
M  V30 15 2 15 16
M  V30 16 1 15 17
M  V30 17 2 17 18
M  V30 18 1 18 19
M  V30 19 2 19 20
M  V30 20 1 20 21
M  V30 21 1 21 22
M  V30 22 1 22 23
M  V30 23 2 23 24
M  V30 24 1 23 25
M  V30 25 1 25 26
M  V30 26 1 26 27
M  V30 27 2 21 28
M  V30 28 1 13 2
M  V30 29 1 28 17
M  V30 30 1 11 6
M  V30 31 1 27 25
M  V30 32 1 1 29
M  V30 33 1 1 30
M  V30 34 1 4 31
M  V30 35 1 7 32
M  V30 36 1 8 33
M  V30 37 1 10 34
M  V30 38 1 11 35
M  V30 39 1 12 36
M  V30 40 1 14 37
M  V30 41 1 18 38
M  V30 42 1 19 39
M  V30 43 1 22 40
M  V30 44 1 25 41
M  V30 45 1 26 42
M  V30 46 1 26 43
M  V30 47 1 27 44
M  V30 48 1 27 45
M  V30 49 1 28 46
M  V30 END BOND
M  V30 END CTAB
M  END
>  <Dataset>  (539) 
ChEMBL_Kinases

>  <Ligand_Instance>  (539) 
nan

>  <PDB_ID>  (539) 
nan

>  <Standardized_SMILES>  (539) 
Nc1ncc(-c2ccncc2)cc1NC(=O)c1ccnc(NC(=O)C2CC2)c1

>  <Name>  (539) 
nan

>  <Pocket>  (539) 
nan

>  <ATP_Site>  (539) 
nan

>  <Peripheral>  (539) 
nan

>  <Num_H_Atoms_ProtBoundConf>  (539) 
nan

>  <Num_Resolved_Atoms>  (539) 
nan

>  <Num_Not_Resolved_Atoms>  (539) 
nan

$$$$
CHEMBL4641956
     RDKit          3D

  0  0  0  0  0  0  0  0  0  0999 V3000
M  V30 BEGIN CTAB
M  V30 COUNTS 44 47 0 0 0
M  V30 BEGIN ATOM
M  V30 1 C -0.839241 -5.634664 1.280607 0
M  V30 2 C 0.551436 -5.126491 1.050564 0
M  V30 3 C 0.696861 -3.767376 0.796043 0
M  V30 4 C 1.924856 -3.180694 0.568292 0
M  V30 5 C 1.978942 -1.746068 0.311165 0
M  V30 6 C 2.929120 -1.149557 -0.498926 0
M  V30 7 C 2.919820 0.223859 -0.697497 0
M  V30 8 C 1.944094 0.967992 -0.068707 0
M  V30 9 N 1.716119 2.303151 -0.095108 0
M  V30 10 C 0.645492 2.574763 0.676798 0
M  V30 11 N -0.169904 3.651843 1.134225 0
M  V30 12 C -1.319536 4.062493 0.409444 0
M  V30 13 O -1.561431 3.420193 -0.644707 0
M  V30 14 C -2.230429 5.144238 0.770922 0
M  V30 15 C -3.287769 5.376540 -0.086292 0
M  V30 16 C -4.160761 6.416229 0.265531 0
M  V30 17 C -3.972620 7.173275 1.415876 0
M  V30 18 O -4.792995 8.093446 1.675366 0
M  V30 19 O -2.940004 6.880490 2.170635 0
M  V30 20 C -2.084659 5.921884 1.900945 0
M  V30 21 N 0.213443 1.382198 1.182728 0
M  V30 22 N 1.005763 0.405751 0.727303 0
M  V30 23 C 1.019962 -0.937948 0.917685 0
M  V30 24 C 3.028454 -3.997994 0.600836 0
M  V30 25 C 2.901118 -5.350704 0.852408 0
M  V30 26 C 4.070786 -6.260009 0.894948 0
M  V30 27 C 1.671521 -5.933032 1.079556 0
M  V30 28 O 1.497019 -7.297566 1.337998 0
M  V30 29 H -1.201083 -5.322639 2.267011 0
M  V30 30 H -0.840193 -6.736790 1.129515 0
M  V30 31 H -1.543013 -5.210839 0.514189 0
M  V30 32 H -0.189110 -3.141710 0.775330 0
M  V30 33 H 3.678491 -1.766515 -0.974871 0
M  V30 34 H 3.637983 0.732294 -1.318521 0
M  V30 35 H -0.029573 4.225860 1.994482 0
M  V30 36 H -3.472029 4.809141 -0.995519 0
M  V30 37 H -4.999139 6.596512 -0.419259 0
M  V30 38 H -1.260907 5.739885 2.567401 0
M  V30 39 H 0.233045 -1.311747 1.570566 0
M  V30 40 H 4.003753 -3.562579 0.425231 0
M  V30 41 H 3.786516 -7.285344 0.547673 0
M  V30 42 H 4.511571 -6.308745 1.904976 0
M  V30 43 H 4.865160 -5.919207 0.181980 0
M  V30 44 H 0.860958 -7.824637 0.778764 0
M  V30 END ATOM
M  V30 BEGIN BOND
M  V30 1 1 1 2
M  V30 2 2 2 3
M  V30 3 1 3 4
M  V30 4 1 4 5
M  V30 5 1 5 6
M  V30 6 2 6 7
M  V30 7 1 7 8
M  V30 8 2 8 9
M  V30 9 1 9 10
M  V30 10 1 10 11
M  V30 11 1 11 12
M  V30 12 2 12 13
M  V30 13 1 12 14
M  V30 14 1 14 15
M  V30 15 2 15 16
M  V30 16 1 16 17
M  V30 17 2 17 18
M  V30 18 1 17 19
M  V30 19 1 19 20
M  V30 20 2 10 21
M  V30 21 1 21 22
M  V30 22 1 22 23
M  V30 23 2 4 24
M  V30 24 1 24 25
M  V30 25 1 25 26
M  V30 26 2 25 27
M  V30 27 1 27 28
M  V30 28 1 27 2
M  V30 29 2 23 5
M  V30 30 1 22 8
M  V30 31 2 20 14
M  V30 32 1 1 29
M  V30 33 1 1 30
M  V30 34 1 1 31
M  V30 35 1 3 32
M  V30 36 1 6 33
M  V30 37 1 7 34
M  V30 38 1 11 35
M  V30 39 1 15 36
M  V30 40 1 16 37
M  V30 41 1 20 38
M  V30 42 1 23 39
M  V30 43 1 24 40
M  V30 44 1 26 41
M  V30 45 1 26 42
M  V30 46 1 26 43
M  V30 47 1 28 44
M  V30 END BOND
M  V30 END CTAB
M  END
>  <Dataset>  (540) 
ChEMBL_Kinases

>  <Ligand_Instance>  (540) 
nan

>  <PDB_ID>  (540) 
nan

>  <Standardized_SMILES>  (540) 
Cc1cc(-c2ccc3nc(NC(=O)c4ccc(=O)oc4)nn3c2)cc(C)c1O

>  <Name>  (540) 
nan

>  <Pocket>  (540) 
nan

>  <ATP_Site>  (540) 
nan

>  <Peripheral>  (540) 
nan

>  <Num_H_Atoms_ProtBoundConf>  (540) 
nan

>  <Num_Resolved_Atoms>  (540) 
nan

>  <Num_Not_Resolved_Atoms>  (540) 
nan

$$$$
CHEMBL4535365
     RDKit          3D

  0  0  0  0  0  0  0  0  0  0999 V3000
M  V30 BEGIN CTAB
M  V30 COUNTS 38 41 0 0 0
M  V30 BEGIN ATOM
M  V30 1 C -1.927826 -4.712214 2.537903 0
M  V30 2 C -1.138851 -3.543243 2.064354 0
M  V30 3 C -0.536746 -3.588419 0.824037 0
M  V30 4 C 0.195991 -2.506890 0.380202 0
M  V30 5 C 0.273591 -1.412489 1.251891 0
M  V30 6 N 1.036183 -0.302909 0.803750 0
M  V30 7 C 0.559122 0.734137 0.103479 0
M  V30 8 C -0.750501 1.085397 -0.405224 0
M  V30 9 C -1.917881 0.376972 -0.280065 0
M  V30 10 C -3.136973 0.763257 -0.787314 0
M  V30 11 C -3.213617 1.952164 -1.478995 0
M  V30 12 N -2.084638 2.668353 -1.617641 0
M  V30 13 C -0.896097 2.262599 -1.106582 0
M  V30 14 N 0.164775 3.148232 -1.357305 0
M  V30 15 N 1.628427 1.516920 -0.087090 0
M  V30 16 C 2.719079 0.973500 0.478639 0
M  V30 17 C 4.019540 1.431777 0.526565 0
M  V30 18 C 4.952026 0.633522 1.199276 0
M  V30 19 C 4.548389 -0.570255 1.785755 0
M  V30 20 N 3.261890 -0.949317 1.696257 0
M  V30 21 C 2.330650 -0.215964 1.060597 0
M  V30 22 C -0.326106 -1.335872 2.516929 0
M  V30 23 C -1.049986 -2.446424 2.915946 0
M  V30 24 H -1.317961 -5.242038 3.305573 0
M  V30 25 H -2.031496 -5.458591 1.703879 0
M  V30 26 H -2.929791 -4.426386 2.875302 0
M  V30 27 H -0.644367 -4.469593 0.211966 0
M  V30 28 H 0.684079 -2.472867 -0.559017 0
M  V30 29 H -1.893171 -0.557036 0.254959 0
M  V30 30 H -4.007300 0.141608 -0.641033 0
M  V30 31 H -4.144898 2.317430 -1.906266 0
M  V30 32 H 0.359638 3.747256 -0.525836 0
M  V30 33 H 0.740772 3.255984 -2.243759 0
M  V30 34 H 4.331372 2.363029 0.072773 0
M  V30 35 H 5.982548 0.972688 1.250821 0
M  V30 36 H 5.336525 -1.123630 2.285637 0
M  V30 37 H -0.181899 -0.426683 3.082486 0
M  V30 38 H -1.519773 -2.405139 3.889328 0
M  V30 END ATOM
M  V30 BEGIN BOND
M  V30 1 1 1 2
M  V30 2 2 2 3
M  V30 3 1 3 4
M  V30 4 2 4 5
M  V30 5 1 5 6
M  V30 6 1 6 7
M  V30 7 1 7 8
M  V30 8 2 8 9
M  V30 9 1 9 10
M  V30 10 2 10 11
M  V30 11 1 11 12
M  V30 12 2 12 13
M  V30 13 1 13 14
M  V30 14 2 7 15
M  V30 15 1 15 16
M  V30 16 2 16 17
M  V30 17 1 17 18
M  V30 18 2 18 19
M  V30 19 1 19 20
M  V30 20 2 20 21
M  V30 21 1 5 22
M  V30 22 2 22 23
M  V30 23 1 23 2
M  V30 24 1 21 6
M  V30 25 1 13 8
M  V30 26 1 21 16
M  V30 27 1 1 24
M  V30 28 1 1 25
M  V30 29 1 1 26
M  V30 30 1 3 27
M  V30 31 1 4 28
M  V30 32 1 9 29
M  V30 33 1 10 30
M  V30 34 1 11 31
M  V30 35 1 14 32
M  V30 36 1 14 33
M  V30 37 1 17 34
M  V30 38 1 18 35
M  V30 39 1 19 36
M  V30 40 1 22 37
M  V30 41 1 23 38
M  V30 END BOND
M  V30 END CTAB
M  END
>  <Dataset>  (541) 
ChEMBL_Kinases

>  <Ligand_Instance>  (541) 
nan

>  <PDB_ID>  (541) 
nan

>  <Standardized_SMILES>  (541) 
Cc1ccc(-n2c(-c3cccnc3N)nc3cccnc32)cc1

>  <Name>  (541) 
nan

>  <Pocket>  (541) 
nan

>  <ATP_Site>  (541) 
nan

>  <Peripheral>  (541) 
nan

>  <Num_H_Atoms_ProtBoundConf>  (541) 
nan

>  <Num_Resolved_Atoms>  (541) 
nan

>  <Num_Not_Resolved_Atoms>  (541) 
nan

$$$$
CHEMBL4642058
     RDKit          3D

  0  0  0  0  0  0  0  0  0  0999 V3000
M  V30 BEGIN CTAB
M  V30 COUNTS 44 47 0 0 0
M  V30 BEGIN ATOM
M  V30 1 C -1.455910 -5.227626 -0.066146 0
M  V30 2 O -0.955760 -3.965241 0.282356 0
M  V30 3 C -0.363755 -3.094173 -0.610067 0
M  V30 4 C -0.232276 -3.440469 -1.938765 0
M  V30 5 C 0.364711 -2.542374 -2.797379 0
M  V30 6 O 0.500982 -2.882613 -4.135303 0
M  V30 7 C 1.084813 -2.074207 -5.121471 0
M  V30 8 C 0.808816 -1.333946 -2.304400 0
M  V30 9 C 0.697326 -0.949442 -0.987408 0
M  V30 10 C 1.177839 0.337220 -0.499488 0
M  V30 11 C 1.782649 1.289946 -1.286336 0
M  V30 12 C 2.188275 2.478091 -0.663803 0
M  V30 13 C 1.970836 2.656146 0.709487 0
M  V30 14 N 2.476576 3.962047 1.116589 0
M  V30 15 S 1.976781 3.711501 2.889615 0
M  V30 16 C 1.319519 2.211267 2.772546 0
M  V30 17 N 0.732598 1.422506 3.818216 0
M  V30 18 C 0.130904 0.103692 3.847400 0
M  V30 19 C -1.328088 0.272654 4.149360 0
M  V30 20 O -1.634492 1.535479 4.646494 0
M  V30 21 C -0.744984 1.952052 5.620845 0
M  V30 22 C 0.686770 1.978685 5.157811 0
M  V30 23 C 1.370911 1.683348 1.431979 0
M  V30 24 N 1.014681 0.598857 0.799236 0
M  V30 25 C 0.096046 -1.873214 -0.162911 0
M  V30 26 H -2.493045 -5.073871 -0.481534 0
M  V30 27 H -0.882234 -5.737941 -0.841428 0
M  V30 28 H -1.533268 -5.867329 0.861211 0
M  V30 29 H -0.577666 -4.389300 -2.341059 0
M  V30 30 H 1.991250 -1.537376 -4.742130 0
M  V30 31 H 1.337254 -2.734120 -5.983527 0
M  V30 32 H 0.290992 -1.347922 -5.450043 0
M  V30 33 H 1.257485 -0.694886 -3.024983 0
M  V30 34 H 1.912947 1.074098 -2.337864 0
M  V30 35 H 2.648058 3.126902 -1.420099 0
M  V30 36 H 0.328439 -0.474436 2.933357 0
M  V30 37 H 0.585529 -0.519520 4.672602 0
M  V30 38 H -1.854771 0.195408 3.157131 0
M  V30 39 H -1.714936 -0.523086 4.814856 0
M  V30 40 H -0.885793 1.356777 6.543057 0
M  V30 41 H -1.030214 2.989367 5.890177 0
M  V30 42 H 1.266064 1.329810 5.870898 0
M  V30 43 H 1.117401 2.998046 5.203722 0
M  V30 44 H -0.031374 -1.651622 0.884789 0
M  V30 END ATOM
M  V30 BEGIN BOND
M  V30 1 1 1 2
M  V30 2 1 2 3
M  V30 3 2 3 4
M  V30 4 1 4 5
M  V30 5 1 5 6
M  V30 6 1 6 7
M  V30 7 2 5 8
M  V30 8 1 8 9
M  V30 9 1 9 10
M  V30 10 1 10 11
M  V30 11 2 11 12
M  V30 12 1 12 13
M  V30 13 2 13 14
M  V30 14 1 14 15
M  V30 15 1 15 16
M  V30 16 1 16 17
M  V30 17 1 17 18
M  V30 18 1 18 19
M  V30 19 1 19 20
M  V30 20 1 20 21
M  V30 21 1 21 22
M  V30 22 2 16 23
M  V30 23 1 23 24
M  V30 24 2 9 25
M  V30 25 1 25 3
M  V30 26 2 24 10
M  V30 27 1 23 13
M  V30 28 1 22 17
M  V30 29 1 1 26
M  V30 30 1 1 27
M  V30 31 1 1 28
M  V30 32 1 4 29
M  V30 33 1 7 30
M  V30 34 1 7 31
M  V30 35 1 7 32
M  V30 36 1 8 33
M  V30 37 1 11 34
M  V30 38 1 12 35
M  V30 39 1 18 36
M  V30 40 1 18 37
M  V30 41 1 19 38
M  V30 42 1 19 39
M  V30 43 1 21 40
M  V30 44 1 21 41
M  V30 45 1 22 42
M  V30 46 1 22 43
M  V30 47 1 25 44
M  V30 END BOND
M  V30 END CTAB
M  END
>  <Dataset>  (542) 
ChEMBL_Kinases

>  <Ligand_Instance>  (542) 
nan

>  <PDB_ID>  (542) 
nan

>  <Standardized_SMILES>  (542) 
COc1cc(OC)cc(-c2ccc3nsc(N4CCOCC4)c3n2)c1

>  <Name>  (542) 
nan

>  <Pocket>  (542) 
nan

>  <ATP_Site>  (542) 
nan

>  <Peripheral>  (542) 
nan

>  <Num_H_Atoms_ProtBoundConf>  (542) 
nan

>  <Num_Resolved_Atoms>  (542) 
nan

>  <Num_Not_Resolved_Atoms>  (542) 
nan

$$$$
CHEMBL4642063
     RDKit          3D

  0  0  0  0  0  0  0  0  0  0999 V3000
M  V30 BEGIN CTAB
M  V30 COUNTS 54 58 0 0 0
M  V30 BEGIN ATOM
M  V30 1 C 3.036737 -5.501515 2.349023 0
M  V30 2 C 3.722641 -4.479829 1.469832 0 CFG=2
M  V30 3 O 5.000310 -4.196625 1.872530 0
M  V30 4 C 2.974863 -3.204951 1.427931 0
M  V30 5 C 2.359395 -2.171936 1.412598 0
M  V30 6 C 1.645281 -0.938471 1.378604 0
M  V30 7 C 2.162886 0.328653 1.473321 0
M  V30 8 C 1.479782 1.521747 1.416706 0
M  V30 9 C 0.114487 1.427300 1.243823 0
M  V30 10 N -0.611174 2.659113 1.147987 0
M  V30 11 C -1.137040 3.245278 -0.095853 0
M  V30 12 C -0.326841 4.546631 -0.260860 0
M  V30 13 O -0.611255 5.441930 0.724423 0
M  V30 14 C -0.745337 4.988755 1.999784 0
M  V30 15 C -0.984589 3.546111 2.213825 0
M  V30 16 C -0.509303 0.204646 1.139446 0
M  V30 17 N -1.899422 0.002594 1.007830 0
M  V30 18 C -3.031376 0.176029 0.189363 0
M  V30 19 N -3.709650 1.242960 -0.245415 0
M  V30 20 C -4.778487 1.204846 -1.018030 0
M  V30 21 N -5.280114 0.034447 -1.437989 0
M  V30 22 C -4.665445 -1.123236 -1.054135 0
M  V30 23 N -5.041172 -2.354639 -1.378762 0
M  V30 24 C -4.143498 -3.176522 -0.767413 0
M  V30 25 C -3.241405 -2.393800 -0.083622 0
M  V30 26 C -3.555061 -1.040529 -0.249973 0
M  V30 27 C 0.253392 -0.952080 1.207597 0
M  V30 28 C 3.705612 -5.100686 0.083076 0
M  V30 29 N 2.834739 -5.044790 -0.788964 0
M  V30 30 C 2.950477 -5.622281 -1.956718 0
M  V30 31 C 4.141647 -6.344403 -2.218129 0
M  V30 32 S 5.059692 -6.083365 -0.576860 0
M  V30 33 H 3.486684 -6.497581 2.268160 0
M  V30 34 H 3.173884 -5.192405 3.415493 0
M  V30 35 H 1.937652 -5.507590 2.162374 0
M  V30 36 H 5.626799 -4.616447 1.199710 0
M  V30 37 H 3.236191 0.381587 1.612960 0
M  V30 38 H 1.985549 2.453725 1.503965 0
M  V30 39 H -2.185235 3.526008 -0.041527 0
M  V30 40 H -0.864057 2.619933 -0.978603 0
M  V30 41 H -0.673311 4.983437 -1.220901 0
M  V30 42 H 0.750726 4.321507 -0.381260 0
M  V30 43 H 0.072076 5.379868 2.687752 0
M  V30 44 H -1.656903 5.530544 2.414543 0
M  V30 45 H -0.451780 3.245749 3.158545 0
M  V30 46 H -2.097896 3.361787 2.367792 0
M  V30 47 H -2.202171 -0.474476 1.917206 0
M  V30 48 H -5.248663 2.119068 -1.312925 0
M  V30 49 H -5.818534 -2.693331 -1.953942 0
M  V30 50 H -4.054376 -4.272224 -0.746705 0
M  V30 51 H -2.386561 -2.742348 0.518242 0
M  V30 52 H -0.206093 -1.949289 1.126292 0
M  V30 53 H 2.108846 -5.497191 -2.633869 0
M  V30 54 H 4.187359 -6.845169 -3.299579 0
M  V30 END ATOM
M  V30 BEGIN BOND
M  V30 1 1 1 2
M  V30 2 1 2 3
M  V30 3 1 2 4 CFG=3
M  V30 4 3 4 5
M  V30 5 1 5 6
M  V30 6 2 6 7
M  V30 7 1 7 8
M  V30 8 2 8 9
M  V30 9 1 9 10
M  V30 10 1 10 11
M  V30 11 1 11 12
M  V30 12 1 12 13
M  V30 13 1 13 14
M  V30 14 1 14 15
M  V30 15 1 9 16
M  V30 16 1 16 17
M  V30 17 1 17 18
M  V30 18 2 18 19
M  V30 19 1 19 20
M  V30 20 2 20 21
M  V30 21 1 21 22
M  V30 22 1 22 23
M  V30 23 1 23 24
M  V30 24 2 24 25
M  V30 25 1 25 26
M  V30 26 2 16 27
M  V30 27 1 2 28
M  V30 28 2 28 29
M  V30 29 1 29 30
M  V30 30 2 30 31
M  V30 31 1 31 32
M  V30 32 1 27 6
M  V30 33 1 32 28
M  V30 34 1 15 10
M  V30 35 1 26 18
M  V30 36 2 26 22
M  V30 37 1 1 33
M  V30 38 1 1 34
M  V30 39 1 1 35
M  V30 40 1 3 36
M  V30 41 1 7 37
M  V30 42 1 8 38
M  V30 43 1 11 39
M  V30 44 1 11 40
M  V30 45 1 12 41
M  V30 46 1 12 42
M  V30 47 1 14 43
M  V30 48 1 14 44
M  V30 49 1 15 45
M  V30 50 1 15 46
M  V30 51 1 17 47
M  V30 52 1 20 48
M  V30 53 1 23 49
M  V30 54 1 24 50
M  V30 55 1 25 51
M  V30 56 1 27 52
M  V30 57 1 30 53
M  V30 58 1 31 54
M  V30 END BOND
M  V30 END CTAB
M  END
>  <Dataset>  (543) 
ChEMBL_Kinases

>  <Ligand_Instance>  (543) 
nan

>  <PDB_ID>  (543) 
nan

>  <Standardized_SMILES>  (543) 
C[C@](O)(C#Cc1ccc(N2CCOCC2)c(Nc2ncnc3[nH]ccc23)c1)c1nccs1

>  <Name>  (543) 
nan

>  <Pocket>  (543) 
nan

>  <ATP_Site>  (543) 
nan

>  <Peripheral>  (543) 
nan

>  <Num_H_Atoms_ProtBoundConf>  (543) 
nan

>  <Num_Resolved_Atoms>  (543) 
nan

>  <Num_Not_Resolved_Atoms>  (543) 
nan

$$$$
CHEMBL4535305
     RDKit          3D

  0  0  0  0  0  0  0  0  0  0999 V3000
M  V30 BEGIN CTAB
M  V30 COUNTS 37 40 0 0 0
M  V30 BEGIN ATOM
M  V30 1 C 0.227339 -4.777242 2.822062 0
M  V30 2 N 1.381687 -3.927777 3.115594 0
M  V30 3 N 2.302555 -4.164206 4.058374 0
M  V30 4 C 3.203435 -3.174935 4.034454 0
M  V30 5 C 2.851652 -2.266737 3.040242 0
M  V30 6 C 1.714512 -2.773375 2.495149 0
M  V30 7 C 0.921141 -2.217667 1.410004 0
M  V30 8 N 0.913000 -0.902097 1.298906 0
M  V30 9 C 0.241479 -0.180462 0.361261 0
M  V30 10 N 0.197067 1.220793 0.195237 0
M  V30 11 C 0.059699 2.603948 -0.090907 0
M  V30 12 C 0.808790 3.648105 0.782511 0
M  V30 13 F 0.507419 4.893965 0.293236 0
M  V30 14 F 2.150277 3.391678 0.789650 0
M  V30 15 F 0.247177 3.560237 2.041851 0
M  V30 16 C 0.023606 3.073616 -1.561690 0
M  V30 17 C -1.183829 3.174814 -0.675479 0
M  V30 18 C -0.481492 -0.944835 -0.530684 0
M  V30 19 C -1.251627 -0.491388 -1.578468 0
M  V30 20 C -1.964831 -1.275025 -2.456776 0
M  V30 21 N -1.920051 -2.609855 -2.295850 0
M  V30 22 C -1.200103 -3.186348 -1.304759 0
M  V30 23 C -0.518739 -2.322804 -0.474460 0
M  V30 24 N 0.194056 -2.862845 0.503625 0
M  V30 25 H -0.719182 -4.312828 3.183401 0
M  V30 26 H 0.190744 -5.036227 1.740903 0
M  V30 27 H 0.342102 -5.727698 3.366985 0
M  V30 28 H 4.070299 -3.106477 4.696338 0
M  V30 29 H 3.355669 -1.358536 2.751852 0
M  V30 30 H 0.817452 1.445747 0.991926 0
M  V30 31 H 0.115939 2.328142 -2.358136 0
M  V30 32 H 0.554910 4.036153 -1.810902 0
M  V30 33 H -2.096018 2.594166 -0.859256 0
M  V30 34 H -1.460341 4.234830 -0.395911 0
M  V30 35 H -1.314516 0.562638 -1.742697 0
M  V30 36 H -2.539919 -0.850952 -3.245694 0
M  V30 37 H -1.143710 -4.254941 -1.148921 0
M  V30 END ATOM
M  V30 BEGIN BOND
M  V30 1 1 1 2
M  V30 2 1 2 3
M  V30 3 2 3 4
M  V30 4 1 4 5
M  V30 5 2 5 6
M  V30 6 1 6 7
M  V30 7 2 7 8
M  V30 8 1 8 9
M  V30 9 1 9 10
M  V30 10 1 10 11
M  V30 11 1 11 12
M  V30 12 1 12 13
M  V30 13 1 12 14
M  V30 14 1 12 15
M  V30 15 1 11 16
M  V30 16 1 16 17
M  V30 17 2 9 18
M  V30 18 1 18 19
M  V30 19 2 19 20
M  V30 20 1 20 21
M  V30 21 2 21 22
M  V30 22 1 22 23
M  V30 23 2 23 24
M  V30 24 1 6 2
M  V30 25 1 24 7
M  V30 26 1 17 11
M  V30 27 1 23 18
M  V30 28 1 1 25
M  V30 29 1 1 26
M  V30 30 1 1 27
M  V30 31 1 4 28
M  V30 32 1 5 29
M  V30 33 1 10 30
M  V30 34 1 16 31
M  V30 35 1 16 32
M  V30 36 1 17 33
M  V30 37 1 17 34
M  V30 38 1 19 35
M  V30 39 1 20 36
M  V30 40 1 22 37
M  V30 END BOND
M  V30 END CTAB
M  END
>  <Dataset>  (544) 
ChEMBL_Kinases

>  <Ligand_Instance>  (544) 
nan

>  <PDB_ID>  (544) 
nan

>  <Standardized_SMILES>  (544) 
Cn1nccc1-c1nc(NC2(C(F)(F)F)CC2)c2ccncc2n1

>  <Name>  (544) 
nan

>  <Pocket>  (544) 
nan

>  <ATP_Site>  (544) 
nan

>  <Peripheral>  (544) 
nan

>  <Num_H_Atoms_ProtBoundConf>  (544) 
nan

>  <Num_Resolved_Atoms>  (544) 
nan

>  <Num_Not_Resolved_Atoms>  (544) 
nan

$$$$
CHEMBL4535216
     RDKit          3D

  0  0  0  0  0  0  0  0  0  0999 V3000
M  V30 BEGIN CTAB
M  V30 COUNTS 44 47 0 0 0
M  V30 BEGIN ATOM
M  V30 1 C 1.019237 -5.682847 -0.080547 0
M  V30 2 C 0.594167 -4.704819 -1.141203 0 CFG=1
M  V30 3 N -0.843928 -4.915980 -1.357769 0
M  V30 4 C 0.782610 -3.287477 -0.700346 0
M  V30 5 C 1.619453 -3.030846 0.358578 0
M  V30 6 C 1.807979 -1.731733 0.781925 0
M  V30 7 C 1.134104 -0.673211 0.117569 0
M  V30 8 C 1.249239 0.742059 0.334410 0
M  V30 9 C 2.291916 1.097370 -0.539447 0
M  V30 10 O 3.085257 0.356502 -1.436738 0
M  V30 11 C 2.697260 2.441034 -0.602099 0
M  V30 12 C 2.097884 3.413770 0.170730 0
M  V30 13 Cl 2.553489 5.099287 0.140731 0
M  V30 14 C 1.094691 3.030530 1.001859 0
M  V30 15 N 0.478598 3.938013 1.775122 0
M  V30 16 C -0.518213 3.624871 2.616454 0
M  V30 17 O -1.079978 4.491707 3.330703 0
M  V30 18 C -0.904258 2.300576 2.665420 0
M  V30 19 C -1.929415 1.979301 3.528900 0
M  V30 20 O -2.518718 2.965040 4.295885 0
M  V30 21 C -2.313392 0.659331 3.574949 0
M  V30 22 C -1.742654 -0.370124 2.814789 0
M  V30 23 C -0.735833 0.084932 1.999081 0
M  V30 24 C -0.294326 1.353592 1.888740 0
M  V30 25 C 0.691064 1.727780 1.072222 0
M  V30 26 C 0.284178 -1.004979 -0.968520 0
M  V30 27 C 0.100241 -2.304440 -1.386317 0
M  V30 28 H 2.110728 -5.846742 -0.052184 0
M  V30 29 H 0.732004 -5.275502 0.910882 0
M  V30 30 H 0.431662 -6.615210 -0.217861 0
M  V30 31 H 1.110205 -4.899460 -2.104535 0
M  V30 32 H -1.101515 -4.821767 -2.351374 0
M  V30 33 H -1.410705 -4.336113 -0.694995 0
M  V30 34 H 2.165455 -3.787153 0.911962 0
M  V30 35 H 2.427863 -1.374096 1.591258 0
M  V30 36 H 4.088665 0.360984 -1.321123 0
M  V30 37 H 3.484907 2.850294 -1.229886 0
M  V30 38 H 0.773984 4.943012 1.735647 0
M  V30 39 H -3.529417 2.969976 4.371773 0
M  V30 40 H -3.129614 0.474303 4.278897 0
M  V30 41 H -2.197338 -1.311157 3.013063 0
M  V30 42 H -0.443268 -0.793102 1.525849 0
M  V30 43 H -0.266517 -0.263215 -1.529767 0
M  V30 44 H -0.549865 -2.545113 -2.215097 0
M  V30 END ATOM
M  V30 BEGIN BOND
M  V30 1 1 1 2
M  V30 2 1 2 3
M  V30 3 1 2 4
M  V30 4 2 4 5
M  V30 5 1 5 6
M  V30 6 2 6 7
M  V30 7 1 7 8
M  V30 8 2 8 9
M  V30 9 1 9 10
M  V30 10 1 9 11
M  V30 11 2 11 12
M  V30 12 1 12 13
M  V30 13 1 12 14
M  V30 14 1 14 15
M  V30 15 1 15 16
M  V30 16 2 16 17
M  V30 17 1 16 18
M  V30 18 2 18 19
M  V30 19 1 19 20
M  V30 20 1 19 21
M  V30 21 2 21 22
M  V30 22 1 22 23
M  V30 23 2 23 24
M  V30 24 1 24 25
M  V30 25 1 7 26
M  V30 26 2 26 27
M  V30 27 1 27 4
M  V30 28 1 25 8
M  V30 29 2 25 14
M  V30 30 1 24 18
M  V30 31 1 1 28
M  V30 32 1 1 29
M  V30 33 1 1 30
M  V30 34 1 2 31 CFG=3
M  V30 35 1 3 32
M  V30 36 1 3 33
M  V30 37 1 5 34
M  V30 38 1 6 35
M  V30 39 1 10 36
M  V30 40 1 11 37
M  V30 41 1 15 38
M  V30 42 1 20 39
M  V30 43 1 21 40
M  V30 44 1 22 41
M  V30 45 1 23 42
M  V30 46 1 26 43
M  V30 47 1 27 44
M  V30 END BOND
M  V30 END CTAB
M  END
>  <Dataset>  (545) 
ChEMBL_Kinases

>  <Ligand_Instance>  (545) 
nan

>  <PDB_ID>  (545) 
nan

>  <Standardized_SMILES>  (545) 
C[C@@H](N)c1ccc(-c2c(O)cc(Cl)c3[nH]c(=O)c4c(O)cccc4c23)cc1

>  <Name>  (545) 
nan

>  <Pocket>  (545) 
nan

>  <ATP_Site>  (545) 
nan

>  <Peripheral>  (545) 
nan

>  <Num_H_Atoms_ProtBoundConf>  (545) 
nan

>  <Num_Resolved_Atoms>  (545) 
nan

>  <Num_Not_Resolved_Atoms>  (545) 
nan

$$$$
CHEMBL4642174
     RDKit          3D

  0  0  0  0  0  0  0  0  0  0999 V3000
M  V30 BEGIN CTAB
M  V30 COUNTS 62 66 0 0 0
M  V30 BEGIN ATOM
M  V30 1 C 2.265503 -2.657983 4.906640 0
M  V30 2 C 1.484944 -1.980064 3.851976 0
M  V30 3 C 2.135776 -1.630449 2.686979 0
M  V30 4 C 1.431813 -0.998851 1.684692 0
M  V30 5 C 1.878122 -0.515113 0.385902 0
M  V30 6 C 3.004800 0.257449 0.187384 0
M  V30 7 N 3.030162 0.466746 -1.138909 0
M  V30 8 C 1.994165 -0.128741 -1.754765 0
M  V30 9 C 1.605942 -0.194360 -3.101850 0
M  V30 10 N 2.364789 0.460124 -4.108932 0
M  V30 11 C 2.003499 0.412663 -5.507063 0
M  V30 12 C 0.622378 0.946380 -5.797546 0
M  V30 13 C 0.460670 2.379302 -5.386718 0
M  V30 14 F 1.362200 3.201619 -6.062842 0
M  V30 15 F -0.844433 2.760133 -5.625535 0
M  V30 16 F 0.671039 2.512595 -4.016321 0
M  V30 17 N 0.494348 -0.888811 -3.408217 0
M  V30 18 C -0.258466 -1.521821 -2.482537 0
M  V30 19 C -1.490568 -2.290498 -2.800490 0
M  V30 20 C -2.722127 -1.505578 -2.548721 0
M  V30 21 C -3.410049 -0.682082 -3.384081 0
M  V30 22 C -4.552255 -0.042383 -2.949462 0
M  V30 23 C -5.047723 -0.206036 -1.655992 0
M  V30 24 C -4.357760 -1.039289 -0.798657 0
M  V30 25 C -3.201319 -1.678852 -1.259236 0
M  V30 26 C 0.197808 -1.402779 -1.193889 0
M  V30 27 N 1.280953 -0.740111 -0.789824 0
M  V30 28 C 0.070639 -0.732280 1.885507 0
M  V30 29 C -0.594917 -1.079500 3.053233 0
M  V30 30 C 0.133454 -1.711492 4.042368 0
M  V30 31 C -0.505690 -2.092440 5.295355 0
M  V30 32 O -1.320453 -3.036044 5.480934 0
M  V30 33 N -0.126843 -1.269137 6.388145 0
M  V30 34 C -0.669889 -1.505845 7.710372 0
M  V30 35 C -1.258539 -0.232790 8.353327 0
M  V30 36 C -0.063175 -0.984814 8.934658 0
M  V30 37 H 3.119206 -3.210660 4.463420 0
M  V30 38 H 1.647862 -3.418439 5.449005 0
M  V30 39 H 2.680308 -1.901180 5.591776 0
M  V30 40 H 3.173486 -1.795259 2.445721 0
M  V30 41 H 3.742064 0.646292 0.850214 0
M  V30 42 H 3.220139 0.995455 -3.808484 0
M  V30 43 H 2.704191 1.049546 -6.090168 0
M  V30 44 H 2.048920 -0.650684 -5.825084 0
M  V30 45 H 0.486390 0.886425 -6.908813 0
M  V30 46 H -0.180504 0.336022 -5.358148 0
M  V30 47 H -1.463353 -2.561645 -3.886089 0
M  V30 48 H -1.442252 -3.236899 -2.236644 0
M  V30 49 H -2.982113 -0.594901 -4.368832 0
M  V30 50 H -5.082335 0.615715 -3.651509 0
M  V30 51 H -5.952578 0.316617 -1.354377 0
M  V30 52 H -4.761549 -1.151777 0.204241 0
M  V30 53 H -2.768638 -2.300271 -0.471158 0
M  V30 54 H -0.404184 -1.918459 -0.453445 0
M  V30 55 H -0.608826 -0.234089 1.187719 0
M  V30 56 H -1.640766 -0.888719 3.239672 0
M  V30 57 H 0.538806 -0.468400 6.333164 0
M  V30 58 H -1.346750 -2.402465 7.739750 0
M  V30 59 H -1.007977 0.734892 7.897864 0
M  V30 60 H -2.246398 -0.347708 8.843533 0
M  V30 61 H 0.932613 -0.463421 8.891674 0
M  V30 62 H -0.275743 -1.507098 9.882826 0
M  V30 END ATOM
M  V30 BEGIN BOND
M  V30 1 1 1 2
M  V30 2 2 2 3
M  V30 3 1 3 4
M  V30 4 1 4 5
M  V30 5 2 5 6
M  V30 6 1 6 7
M  V30 7 2 7 8
M  V30 8 1 8 9
M  V30 9 1 9 10
M  V30 10 1 10 11
M  V30 11 1 11 12
M  V30 12 1 12 13
M  V30 13 1 13 14
M  V30 14 1 13 15
M  V30 15 1 13 16
M  V30 16 2 9 17
M  V30 17 1 17 18
M  V30 18 1 18 19
M  V30 19 1 19 20
M  V30 20 2 20 21
M  V30 21 1 21 22
M  V30 22 2 22 23
M  V30 23 1 23 24
M  V30 24 2 24 25
M  V30 25 2 18 26
M  V30 26 1 26 27
M  V30 27 2 4 28
M  V30 28 1 28 29
M  V30 29 2 29 30
M  V30 30 1 30 31
M  V30 31 2 31 32
M  V30 32 1 31 33
M  V30 33 1 33 34
M  V30 34 1 34 35
M  V30 35 1 35 36
M  V30 36 1 30 2
M  V30 37 1 36 34
M  V30 38 1 27 5
M  V30 39 1 27 8
M  V30 40 1 25 20
M  V30 41 1 1 37
M  V30 42 1 1 38
M  V30 43 1 1 39
M  V30 44 1 3 40
M  V30 45 1 6 41
M  V30 46 1 10 42
M  V30 47 1 11 43
M  V30 48 1 11 44
M  V30 49 1 12 45
M  V30 50 1 12 46
M  V30 51 1 19 47
M  V30 52 1 19 48
M  V30 53 1 21 49
M  V30 54 1 22 50
M  V30 55 1 23 51
M  V30 56 1 24 52
M  V30 57 1 25 53
M  V30 58 1 26 54
M  V30 59 1 28 55
M  V30 60 1 29 56
M  V30 61 1 33 57
M  V30 62 1 34 58
M  V30 63 1 35 59
M  V30 64 1 35 60
M  V30 65 1 36 61
M  V30 66 1 36 62
M  V30 END BOND
M  V30 END CTAB
M  END
>  <Dataset>  (546) 
ChEMBL_Kinases

>  <Ligand_Instance>  (546) 
nan

>  <PDB_ID>  (546) 
nan

>  <Standardized_SMILES>  (546) 
Cc1cc(-c2cnc3c(NCCC(F)(F)F)nc(Cc4ccccc4)cn23)ccc1C(=O)NC1CC1

>  <Name>  (546) 
nan

>  <Pocket>  (546) 
nan

>  <ATP_Site>  (546) 
nan

>  <Peripheral>  (546) 
nan

>  <Num_H_Atoms_ProtBoundConf>  (546) 
nan

>  <Num_Resolved_Atoms>  (546) 
nan

>  <Num_Not_Resolved_Atoms>  (546) 
nan

$$$$
CHEMBL4642207
     RDKit          3D

  0  0  0  0  0  0  0  0  0  0999 V3000
M  V30 BEGIN CTAB
M  V30 COUNTS 53 57 0 0 0
M  V30 BEGIN ATOM
M  V30 1 C -0.864886 -3.478142 5.622535 0
M  V30 2 C -0.531128 -4.023500 4.252421 0
M  V30 3 O 0.386640 -5.043379 4.260583 0
M  V30 4 C 0.034470 -2.954986 3.390911 0
M  V30 5 C 0.475841 -2.076275 2.692268 0
M  V30 6 C 0.987514 -1.008303 1.865899 0
M  V30 7 C 2.267874 -0.504040 2.035787 0
M  V30 8 C 2.677875 0.524022 1.196521 0
M  V30 9 C 1.877151 1.068410 0.203735 0
M  V30 10 N 2.339620 2.122004 -0.633759 0
M  V30 11 C 1.734044 3.457627 -0.753019 0
M  V30 12 C 2.907962 4.400992 -0.585836 0
M  V30 13 C 3.979234 3.684890 -1.382934 0
M  V30 14 C 3.453091 2.262952 -1.577486 0
M  V30 15 C 0.614225 0.524772 0.083836 0
M  V30 16 N -0.280912 0.997300 -0.884564 0
M  V30 17 C -1.586013 0.447688 -1.023262 0
M  V30 18 N -2.667706 0.899501 -0.345544 0
M  V30 19 C -3.832568 0.250547 -0.609862 0
M  V30 20 N -3.985962 -0.760806 -1.455386 0
M  V30 21 C -2.914398 -1.214889 -2.132517 0
M  V30 22 N -2.788285 -2.207717 -3.035493 0
M  V30 23 C -1.499424 -2.260499 -3.418321 0
M  V30 24 C -0.826862 -1.280008 -2.734763 0
M  V30 25 C -1.686629 -0.594962 -1.909911 0
M  V30 26 C 0.134991 -0.496616 0.878818 0
M  V30 27 C -1.783077 -4.561225 3.602935 0
M  V30 28 N -2.374315 -5.787048 3.607044 0
M  V30 29 C -3.492538 -5.780761 2.868622 0
M  V30 30 C -4.121174 -4.687224 2.103667 0
M  V30 31 S -2.807563 -3.383885 2.550516 0
M  V30 32 H -1.904249 -3.095223 5.613338 0
M  V30 33 H -0.794764 -4.220002 6.429452 0
M  V30 34 H -0.201813 -2.630597 5.902739 0
M  V30 35 H 0.609414 -5.320174 5.194108 0
M  V30 36 H 2.918066 -0.905647 2.800606 0
M  V30 37 H 3.669055 0.946736 1.294675 0
M  V30 38 H 1.210778 3.601455 -1.706510 0
M  V30 39 H 1.050920 3.608896 0.104745 0
M  V30 40 H 2.657868 5.395303 -0.968543 0
M  V30 41 H 3.175451 4.490911 0.483131 0
M  V30 42 H 4.043968 4.223876 -2.361222 0
M  V30 43 H 4.926593 3.723478 -0.827576 0
M  V30 44 H 3.053761 2.214201 -2.611725 0
M  V30 45 H 4.239365 1.518031 -1.382057 0
M  V30 46 H -0.277114 1.722537 -1.627932 0
M  V30 47 H -4.688655 0.640688 -0.044952 0
M  V30 48 H -3.512977 -2.852331 -3.411128 0
M  V30 49 H -0.999593 -2.918388 -4.125398 0
M  V30 50 H 0.238763 -1.037055 -2.800130 0
M  V30 51 H -0.857522 -0.917685 0.778205 0
M  V30 52 H -3.854128 -6.821819 2.964857 0
M  V30 53 H -4.944213 -4.917610 1.635479 0
M  V30 END ATOM
M  V30 BEGIN BOND
M  V30 1 1 1 2
M  V30 2 1 2 3
M  V30 3 1 2 4
M  V30 4 3 4 5
M  V30 5 1 5 6
M  V30 6 2 6 7
M  V30 7 1 7 8
M  V30 8 2 8 9
M  V30 9 1 9 10
M  V30 10 1 10 11
M  V30 11 1 11 12
M  V30 12 1 12 13
M  V30 13 1 13 14
M  V30 14 1 9 15
M  V30 15 1 15 16
M  V30 16 1 16 17
M  V30 17 2 17 18
M  V30 18 1 18 19
M  V30 19 2 19 20
M  V30 20 1 20 21
M  V30 21 1 21 22
M  V30 22 1 22 23
M  V30 23 2 23 24
M  V30 24 1 24 25
M  V30 25 2 15 26
M  V30 26 1 2 27
M  V30 27 2 27 28
M  V30 28 1 28 29
M  V30 29 2 29 30
M  V30 30 1 30 31
M  V30 31 1 26 6
M  V30 32 1 31 27
M  V30 33 1 14 10
M  V30 34 1 25 17
M  V30 35 2 25 21
M  V30 36 1 1 32
M  V30 37 1 1 33
M  V30 38 1 1 34
M  V30 39 1 3 35
M  V30 40 1 7 36
M  V30 41 1 8 37
M  V30 42 1 11 38
M  V30 43 1 11 39
M  V30 44 1 12 40
M  V30 45 1 12 41
M  V30 46 1 13 42
M  V30 47 1 13 43
M  V30 48 1 14 44
M  V30 49 1 14 45
M  V30 50 1 16 46
M  V30 51 1 19 47
M  V30 52 1 22 48
M  V30 53 1 23 49
M  V30 54 1 24 50
M  V30 55 1 26 51
M  V30 56 1 29 52
M  V30 57 1 30 53
M  V30 END BOND
M  V30 END CTAB
M  END
>  <Dataset>  (547) 
ChEMBL_Kinases

>  <Ligand_Instance>  (547) 
nan

>  <PDB_ID>  (547) 
nan

>  <Standardized_SMILES>  (547) 
CC(O)(C#Cc1ccc(N2CCCC2)c(Nc2ncnc3[nH]ccc23)c1)c1nccs1

>  <Name>  (547) 
nan

>  <Pocket>  (547) 
nan

>  <ATP_Site>  (547) 
nan

>  <Peripheral>  (547) 
nan

>  <Num_H_Atoms_ProtBoundConf>  (547) 
nan

>  <Num_Resolved_Atoms>  (547) 
nan

>  <Num_Not_Resolved_Atoms>  (547) 
nan

$$$$
CHEMBL4642251
     RDKit          3D

  0  0  0  0  0  0  0  0  0  0999 V3000
M  V30 BEGIN CTAB
M  V30 COUNTS 57 61 0 0 0
M  V30 BEGIN ATOM
M  V30 1 C 3.378731 -1.000831 -0.674014 0
M  V30 2 O 2.170996 -1.180134 0.002991 0
M  V30 3 C 1.800663 -0.537594 1.162762 0
M  V30 4 N 2.566247 0.369225 1.817430 0
M  V30 5 N 1.932388 0.797382 2.887584 0
M  V30 6 C 2.272541 1.738632 3.914610 0
M  V30 7 C 2.946808 1.332085 5.047618 0
M  V30 8 N 3.210224 2.326407 5.946835 0
M  V30 9 C 2.812322 3.597163 5.687614 0
M  V30 10 C 2.135990 4.008655 4.552340 0
M  V30 11 C 1.761695 5.439433 4.416035 0
M  V30 12 C 0.442585 5.627783 3.707768 0
M  V30 13 C 1.688374 6.071513 3.040318 0
M  V30 14 C 1.856438 3.038235 3.630279 0
M  V30 15 C 0.722457 0.162788 2.945551 0
M  V30 16 C 0.621111 -0.699244 1.843373 0
M  V30 17 C -0.547741 -1.548239 1.574338 0
M  V30 18 O -1.525339 -1.522985 2.359562 0
M  V30 19 N -0.624499 -2.390501 0.471232 0
M  V30 20 C -1.646347 -3.265860 0.036249 0
M  V30 21 C -2.842188 -3.505799 0.661045 0
M  V30 22 C -3.835017 -4.357502 0.220760 0
M  V30 23 C -3.618498 -5.039599 -0.960042 0
M  V30 24 C -2.418995 -4.802088 -1.591319 0
M  V30 25 C -2.085825 -5.465892 -2.844308 0
M  V30 26 N -1.806242 -6.764173 -3.043746 0
M  V30 27 N -1.551112 -6.997637 -4.303916 0
M  V30 28 C -1.665579 -5.817343 -4.964560 0
M  V30 29 N -2.000165 -4.865050 -4.044273 0
M  V30 30 C -2.197736 -3.493618 -4.440504 0
M  V30 31 C -3.279687 -2.787241 -3.652570 0
M  V30 32 C -0.935696 -2.673978 -4.395179 0
M  V30 33 N -1.498465 -3.957675 -1.101552 0
M  V30 34 H 3.162307 -1.053827 -1.765568 0
M  V30 35 H 4.122754 -1.784548 -0.439422 0
M  V30 36 H 3.822652 0.018630 -0.523253 0
M  V30 37 H 3.231641 0.298175 5.189049 0
M  V30 38 H 3.051990 4.343190 6.443691 0
M  V30 39 H 2.002949 6.108708 5.280080 0
M  V30 40 H -0.231762 6.450155 4.045030 0
M  V30 41 H -0.138407 4.765398 3.336093 0
M  V30 42 H 2.068814 5.494981 2.172881 0
M  V30 43 H 1.929982 7.153810 2.950736 0
M  V30 44 H 1.341632 3.308922 2.744647 0
M  V30 45 H -0.053389 0.277362 3.692580 0
M  V30 46 H 0.225733 -2.360887 -0.131762 0
M  V30 47 H -3.072395 -3.005751 1.587370 0
M  V30 48 H -4.755583 -4.497817 0.766293 0
M  V30 49 H -4.358941 -5.719144 -1.354479 0
M  V30 50 H -1.513192 -5.684691 -6.043113 0
M  V30 51 H -2.546290 -3.431068 -5.515830 0
M  V30 52 H -4.046801 -3.520364 -3.380886 0
M  V30 53 H -2.842532 -2.219133 -2.814826 0
M  V30 54 H -3.784244 -2.002424 -4.285193 0
M  V30 55 H -0.475111 -2.558083 -5.398466 0
M  V30 56 H -1.156215 -1.634579 -4.037777 0
M  V30 57 H -0.164020 -3.097085 -3.737092 0
M  V30 END ATOM
M  V30 BEGIN BOND
M  V30 1 1 1 2
M  V30 2 1 2 3
M  V30 3 2 3 4
M  V30 4 1 4 5
M  V30 5 1 5 6
M  V30 6 2 6 7
M  V30 7 1 7 8
M  V30 8 2 8 9
M  V30 9 1 9 10
M  V30 10 1 10 11
M  V30 11 1 11 12
M  V30 12 1 12 13
M  V30 13 2 10 14
M  V30 14 1 5 15
M  V30 15 2 15 16
M  V30 16 1 16 17
M  V30 17 2 17 18
M  V30 18 1 17 19
M  V30 19 1 19 20
M  V30 20 2 20 21
M  V30 21 1 21 22
M  V30 22 2 22 23
M  V30 23 1 23 24
M  V30 24 1 24 25
M  V30 25 2 25 26
M  V30 26 1 26 27
M  V30 27 2 27 28
M  V30 28 1 28 29
M  V30 29 1 29 30
M  V30 30 1 30 31
M  V30 31 1 30 32
M  V30 32 2 24 33
M  V30 33 1 16 3
M  V30 34 1 33 20
M  V30 35 1 14 6
M  V30 36 1 29 25
M  V30 37 1 13 11
M  V30 38 1 1 34
M  V30 39 1 1 35
M  V30 40 1 1 36
M  V30 41 1 7 37
M  V30 42 1 9 38
M  V30 43 1 11 39
M  V30 44 1 12 40
M  V30 45 1 12 41
M  V30 46 1 13 42
M  V30 47 1 13 43
M  V30 48 1 14 44
M  V30 49 1 15 45
M  V30 50 1 19 46
M  V30 51 1 21 47
M  V30 52 1 22 48
M  V30 53 1 23 49
M  V30 54 1 28 50
M  V30 55 1 30 51
M  V30 56 1 31 52
M  V30 57 1 31 53
M  V30 58 1 31 54
M  V30 59 1 32 55
M  V30 60 1 32 56
M  V30 61 1 32 57
M  V30 END BOND
M  V30 END CTAB
M  END
>  <Dataset>  (548) 
ChEMBL_Kinases

>  <Ligand_Instance>  (548) 
nan

>  <PDB_ID>  (548) 
nan

>  <Standardized_SMILES>  (548) 
COc1nn(-c2cncc(C3CC3)c2)cc1C(=O)Nc1cccc(-c2nncn2C(C)C)n1

>  <Name>  (548) 
nan

>  <Pocket>  (548) 
nan

>  <ATP_Site>  (548) 
nan

>  <Peripheral>  (548) 
nan

>  <Num_H_Atoms_ProtBoundConf>  (548) 
nan

>  <Num_Resolved_Atoms>  (548) 
nan

>  <Num_Not_Resolved_Atoms>  (548) 
nan

$$$$
CHEMBL4535795
     RDKit          3D

  0  0  0  0  0  0  0  0  0  0999 V3000
M  V30 BEGIN CTAB
M  V30 COUNTS 37 40 0 0 0
M  V30 BEGIN ATOM
M  V30 1 N 1.854049 -3.224741 -0.024223 0
M  V30 2 C 0.727031 -2.687310 0.626863 0
M  V30 3 O 0.368694 -3.849385 0.921155 0
M  V30 4 C 0.139427 -1.405817 0.899828 0
M  V30 5 C 0.657172 -0.195217 0.511729 0
M  V30 6 C 1.860765 0.161069 -0.229922 0
M  V30 7 C 1.557755 1.075901 -1.249178 0
M  V30 8 C 2.629090 1.512753 -2.038531 0
M  V30 9 C 3.888961 1.008234 -1.748380 0
M  V30 10 S 5.482664 1.347529 -2.551378 0
M  V30 11 C 6.369437 0.149018 -1.337685 0
M  V30 12 N 5.494636 -0.191816 -0.711880 0
M  V30 13 C 4.208633 0.117100 -0.761368 0
M  V30 14 C 3.124274 -0.293449 0.000057 0
M  V30 15 N -0.246199 0.713897 0.983201 0
M  V30 16 N -1.238842 0.069054 1.614035 0
M  V30 17 C -1.039589 -1.261824 1.587199 0
M  V30 18 N -1.895268 -2.240513 2.160674 0
M  V30 19 C -3.272593 -2.013809 2.635530 0
M  V30 20 C -3.923721 -1.098221 1.653128 0
M  V30 21 C -3.690372 0.349761 1.831583 0
M  V30 22 C -2.333108 0.796761 2.212566 0
M  V30 23 H 2.837671 -3.459741 0.300485 0
M  V30 24 H 2.050656 -3.545188 -1.005247 0
M  V30 25 H 0.607819 1.492794 -1.511600 0
M  V30 26 H 2.618157 2.200712 -2.859008 0
M  V30 27 H 7.460792 -0.297240 -1.075339 0
M  V30 28 H 3.229025 -0.990516 0.821264 0
M  V30 29 H -1.433458 -3.172387 2.214824 0
M  V30 30 H -3.168148 -1.532045 3.645488 0
M  V30 31 H -3.803164 -2.953702 2.797012 0
M  V30 32 H -3.566423 -1.362300 0.614621 0
M  V30 33 H -5.024922 -1.259799 1.604368 0
M  V30 34 H -4.399913 0.713885 2.626604 0
M  V30 35 H -4.034460 0.855040 0.887918 0
M  V30 36 H -2.240266 0.639892 3.326445 0
M  V30 37 H -2.258618 1.875195 2.070132 0
M  V30 END ATOM
M  V30 BEGIN BOND
M  V30 1 1 1 2
M  V30 2 2 2 3
M  V30 3 1 2 4
M  V30 4 1 4 5
M  V30 5 1 5 6
M  V30 6 2 6 7
M  V30 7 1 7 8
M  V30 8 2 8 9
M  V30 9 1 9 10
M  V30 10 1 10 11
M  V30 11 2 11 12
M  V30 12 1 12 13
M  V30 13 2 13 14
M  V30 14 2 5 15
M  V30 15 1 15 16
M  V30 16 1 16 17
M  V30 17 1 17 18
M  V30 18 1 18 19
M  V30 19 1 19 20
M  V30 20 1 20 21
M  V30 21 1 21 22
M  V30 22 2 17 4
M  V30 23 1 14 6
M  V30 24 1 22 16
M  V30 25 1 13 9
M  V30 26 1 1 23
M  V30 27 1 1 24
M  V30 28 1 7 25
M  V30 29 1 8 26
M  V30 30 1 11 27
M  V30 31 1 14 28
M  V30 32 1 18 29
M  V30 33 1 19 30
M  V30 34 1 19 31
M  V30 35 1 20 32
M  V30 36 1 20 33
M  V30 37 1 21 34
M  V30 38 1 21 35
M  V30 39 1 22 36
M  V30 40 1 22 37
M  V30 END BOND
M  V30 END CTAB
M  END
>  <Dataset>  (549) 
ChEMBL_Kinases

>  <Ligand_Instance>  (549) 
nan

>  <PDB_ID>  (549) 
nan

>  <Standardized_SMILES>  (549) 
NC(=O)c1c(-c2ccc3scnc3c2)nn2c1NCCCC2

>  <Name>  (549) 
nan

>  <Pocket>  (549) 
nan

>  <ATP_Site>  (549) 
nan

>  <Peripheral>  (549) 
nan

>  <Num_H_Atoms_ProtBoundConf>  (549) 
nan

>  <Num_Resolved_Atoms>  (549) 
nan

>  <Num_Not_Resolved_Atoms>  (549) 
nan

$$$$
CHEMBL4646453
     RDKit          3D

  0  0  0  0  0  0  0  0  0  0999 V3000
M  V30 BEGIN CTAB
M  V30 COUNTS 72 77 0 0 0
M  V30 BEGIN ATOM
M  V30 1 C 4.357947 -0.176213 1.142054 0
M  V30 2 N 3.961331 -0.657578 -0.164354 0
M  V30 3 C 4.678596 -1.900664 -0.372838 0
M  V30 4 C 4.305637 0.277018 -1.218121 0 CFG=2
M  V30 5 C 3.663680 1.604531 -1.056471 0
M  V30 6 C 2.197715 1.693674 -1.130471 0
M  V30 7 C 1.476829 0.642152 -1.885157 0 CFG=1
M  V30 8 C 1.017874 1.142097 -3.245011 0
M  V30 9 C 2.299529 -0.604934 -2.132121 0 CFG=1
M  V30 10 C 1.551072 -1.463235 -3.090908 0
M  V30 11 C 0.299835 -1.936109 -2.427190 0
M  V30 12 C -0.520720 -0.908443 -1.747765 0 CFG=2
M  V30 13 C 0.323649 0.170951 -1.047501 0 CFG=2
M  V30 14 C -0.627252 1.229305 -0.637718 0
M  V30 15 C -1.506482 0.691936 0.502935 0
M  V30 16 C -2.246726 -0.490671 0.036060 0 CFG=2
M  V30 17 C -3.360539 -0.156495 -0.937735 0
M  V30 18 C -2.787793 -1.422078 1.036966 0
M  V30 19 C -3.294864 -1.316220 2.393608 0
M  V30 20 C -3.367595 -0.131679 3.090782 0
M  V30 21 C -3.836345 0.037263 4.374976 0
M  V30 22 C -4.285728 -1.070136 5.060529 0
M  V30 23 C -4.766642 -0.969777 6.346507 0
M  V30 24 N -5.196468 -2.076041 6.981767 0
M  V30 25 C -5.167421 -3.294653 6.382853 0
M  V30 26 C -4.684771 -3.390546 5.094339 0
M  V30 27 C -4.244866 -2.290290 4.430464 0
M  V30 28 C -3.764147 -2.361867 3.157144 0
M  V30 29 C -2.794898 -2.678241 0.518757 0
M  V30 30 C -2.233541 -2.573755 -0.880737 0
M  V30 31 C -1.258207 -1.471277 -0.612220 0 CFG=1
M  V30 32 C 3.721602 -0.311386 -2.507305 0
M  V30 33 H 4.165177 -1.015533 1.846967 0
M  V30 34 H 5.427731 0.051694 1.207976 0
M  V30 35 H 3.713118 0.659318 1.508089 0
M  V30 36 H 4.332631 -2.496283 -1.219293 0
M  V30 37 H 5.782918 -1.756876 -0.330306 0
M  V30 38 H 4.447800 -2.521073 0.542569 0
M  V30 39 H 5.380691 0.414479 -1.361935 0
M  V30 40 H 4.155907 2.285377 -1.811187 0
M  V30 41 H 4.033174 2.020025 -0.074989 0
M  V30 42 H 1.944388 2.679681 -1.622721 0
M  V30 43 H 1.785726 1.842105 -0.090047 0
M  V30 44 H 0.599712 2.186744 -3.160628 0
M  V30 45 H 1.887688 1.124875 -3.938441 0
M  V30 46 H 0.222044 0.549018 -3.696458 0
M  V30 47 H 2.344725 -1.153579 -1.166535 0
M  V30 48 H 1.426879 -1.047367 -4.097861 0
M  V30 49 H 2.182920 -2.387650 -3.241314 0
M  V30 50 H 0.520643 -2.794410 -1.754601 0
M  V30 51 H -0.334893 -2.374748 -3.252277 0
M  V30 52 H -1.134497 -0.398611 -2.503821 0
M  V30 53 H 0.778060 -0.273173 -0.137392 0
M  V30 54 H -1.356241 1.420395 -1.476056 0
M  V30 55 H -0.199104 2.208514 -0.395928 0
M  V30 56 H -0.948570 0.492381 1.411569 0
M  V30 57 H -2.180856 1.574704 0.707412 0
M  V30 58 H -3.534699 0.943464 -0.790598 0
M  V30 59 H -4.279410 -0.648813 -0.624231 0
M  V30 60 H -3.099187 -0.270055 -1.989160 0
M  V30 61 H -3.046840 0.800499 2.662989 0
M  V30 62 H -3.880728 0.972913 4.892012 0
M  V30 63 H -4.788503 0.004141 6.821512 0
M  V30 64 H -5.517828 -4.169973 6.912140 0
M  V30 65 H -4.682738 -4.382975 4.662720 0
M  V30 66 H -3.766490 -3.371771 2.729244 0
M  V30 67 H -3.094699 -3.664288 0.865232 0
M  V30 68 H -1.699954 -3.502914 -1.149958 0
M  V30 69 H -3.011724 -2.262957 -1.574607 0
M  V30 70 H -0.555940 -1.745106 0.194918 0
M  V30 71 H 4.200742 -1.238033 -2.819450 0
M  V30 72 H 3.752205 0.491090 -3.271045 0
M  V30 END ATOM
M  V30 BEGIN BOND
M  V30 1 1 1 2
M  V30 2 1 2 3
M  V30 3 1 2 4
M  V30 4 1 4 5
M  V30 5 1 5 6
M  V30 6 1 6 7
M  V30 7 1 7 8 CFG=3
M  V30 8 1 7 9
M  V30 9 1 9 10
M  V30 10 1 10 11
M  V30 11 1 11 12
M  V30 12 1 12 13
M  V30 13 1 13 14
M  V30 14 1 14 15
M  V30 15 1 15 16
M  V30 16 1 16 17 CFG=3
M  V30 17 1 16 18
M  V30 18 1 18 19
M  V30 19 2 19 20
M  V30 20 1 20 21
M  V30 21 2 21 22
M  V30 22 1 22 23
M  V30 23 2 23 24
M  V30 24 1 24 25
M  V30 25 2 25 26
M  V30 26 1 26 27
M  V30 27 2 27 28
M  V30 28 2 18 29
M  V30 29 1 29 30
M  V30 30 1 30 31
M  V30 31 1 9 32
M  V30 32 1 32 4
M  V30 33 1 13 7
M  V30 34 1 31 16
M  V30 35 1 31 12
M  V30 36 1 28 19
M  V30 37 1 27 22
M  V30 38 1 1 33
M  V30 39 1 1 34
M  V30 40 1 1 35
M  V30 41 1 3 36
M  V30 42 1 3 37
M  V30 43 1 3 38
M  V30 44 1 4 39 CFG=3
M  V30 45 1 5 40
M  V30 46 1 5 41
M  V30 47 1 6 42
M  V30 48 1 6 43
M  V30 49 1 8 44
M  V30 50 1 8 45
M  V30 51 1 8 46
M  V30 52 1 9 47 CFG=1
M  V30 53 1 10 48
M  V30 54 1 10 49
M  V30 55 1 11 50
M  V30 56 1 11 51
M  V30 57 1 12 52 CFG=3
M  V30 58 1 13 53 CFG=1
M  V30 59 1 14 54
M  V30 60 1 14 55
M  V30 61 1 15 56
M  V30 62 1 15 57
M  V30 63 1 17 58
M  V30 64 1 17 59
M  V30 65 1 17 60
M  V30 66 1 20 61
M  V30 67 1 21 62
M  V30 68 1 23 63
M  V30 69 1 25 64
M  V30 70 1 26 65
M  V30 71 1 28 66
M  V30 72 1 29 67
M  V30 73 1 30 68
M  V30 74 1 30 69
M  V30 75 1 31 70 CFG=1
M  V30 76 1 32 71
M  V30 77 1 32 72
M  V30 END BOND
M  V30 END CTAB
M  END
>  <Dataset>  (550) 
ChEMBL_Kinases

>  <Ligand_Instance>  (550) 
nan

>  <PDB_ID>  (550) 
nan

>  <Standardized_SMILES>  (550) 
CN(C)[C@@H]1CC[C@@]2(C)[C@@H](CC[C@@H]3[C@@H]2CC[C@]2(C)C(c4ccc5cnccc5c4)=CC[C@@H]32)C1

>  <Name>  (550) 
nan

>  <Pocket>  (550) 
nan

>  <ATP_Site>  (550) 
nan

>  <Peripheral>  (550) 
nan

>  <Num_H_Atoms_ProtBoundConf>  (550) 
nan

>  <Num_Resolved_Atoms>  (550) 
nan

>  <Num_Not_Resolved_Atoms>  (550) 
nan

$$$$
CHEMBL4521096
     RDKit          3D

  0  0  0  0  0  0  0  0  0  0999 V3000
M  V30 BEGIN CTAB
M  V30 COUNTS 60 64 0 0 0
M  V30 BEGIN ATOM
M  V30 1 C 6.361142 -0.968548 3.153651 0
M  V30 2 C 4.942059 -0.980374 2.719978 0
M  V30 3 C 4.011543 -1.758019 3.402399 0
M  V30 4 C 2.705130 -1.750900 2.980551 0
M  V30 5 C 1.688566 -2.579101 3.699053 0
M  V30 6 C 2.375599 -0.976654 1.904171 0
M  V30 7 C 3.237138 -0.187592 1.185604 0
M  V30 8 N 2.911353 0.619692 0.068477 0
M  V30 9 C 1.640969 0.786298 -0.539471 0
M  V30 10 N 1.509578 1.597354 -1.603317 0
M  V30 11 C 0.337168 1.795546 -2.220051 0
M  V30 12 C -0.815332 1.173545 -1.796222 0
M  V30 13 C -0.700215 0.338947 -0.707663 0
M  V30 14 C -1.806164 -0.395358 -0.128842 0
M  V30 15 C -2.891241 0.259239 0.421272 0
M  V30 16 C -3.242915 1.674917 0.582110 0
M  V30 17 C -2.396967 2.453587 1.370617 0
M  V30 18 C -2.708184 3.801095 1.540343 0
M  V30 19 C -3.854096 4.296876 0.908601 0
M  V30 20 F -4.145513 5.612044 1.082905 0
M  V30 21 C -4.673134 3.501322 0.133428 0
M  V30 22 C -4.374259 2.160409 -0.042769 0
M  V30 23 N -3.739868 -0.701775 0.871350 0
M  V30 24 C -3.186338 -1.911299 0.602473 0
M  V30 25 N -2.001626 -1.735046 -0.010207 0
M  V30 26 C -0.997565 -2.659227 -0.514979 0
M  V30 27 C -1.386601 -4.074343 -0.142708 0
M  V30 28 C -2.271874 -4.714056 -1.187234 0
M  V30 29 N -1.625012 -4.858865 -2.458076 0
M  V30 30 C -0.532067 -3.940891 -2.634445 0
M  V30 31 C -0.909815 -2.619542 -2.020747 0
M  V30 32 N 0.516078 0.209238 -0.163584 0
M  V30 33 C 4.533236 -0.230598 1.649230 0
M  V30 34 H 6.558104 -1.634404 3.993830 0
M  V30 35 H 6.696557 0.080594 3.361318 0
M  V30 36 H 7.020213 -1.298297 2.317880 0
M  V30 37 H 4.312145 -2.356902 4.250139 0
M  V30 38 H 2.155057 -3.380795 4.284902 0
M  V30 39 H 0.984908 -3.038149 2.963709 0
M  V30 40 H 1.125768 -1.907084 4.375551 0
M  V30 41 H 1.342575 -1.013757 1.623854 0
M  V30 42 H 3.710614 1.160110 -0.360067 0
M  V30 43 H 0.248662 2.453865 -3.077934 0
M  V30 44 H -1.804561 1.266081 -2.221997 0
M  V30 45 H -1.526223 2.021166 1.834784 0
M  V30 46 H -2.104458 4.452296 2.129595 0
M  V30 47 H -5.555493 3.901841 -0.347318 0
M  V30 48 H -5.001136 1.516648 -0.645531 0
M  V30 49 H -3.565836 -2.890144 0.811150 0
M  V30 50 H -0.005272 -2.480621 -0.034844 0
M  V30 51 H -0.479571 -4.697812 0.002511 0
M  V30 52 H -1.933197 -4.112958 0.808500 0
M  V30 53 H -3.249320 -4.216968 -1.246846 0
M  V30 54 H -2.475694 -5.746652 -0.819010 0
M  V30 55 H -2.305708 -4.704476 -3.235004 0
M  V30 56 H -0.410681 -3.762786 -3.720101 0
M  V30 57 H 0.427539 -4.335191 -2.232287 0
M  V30 58 H -0.137391 -1.884908 -2.357051 0
M  V30 59 H -1.892207 -2.333783 -2.453620 0
M  V30 60 H 5.310506 0.360200 1.152855 0
M  V30 END ATOM
M  V30 BEGIN BOND
M  V30 1 1 1 2
M  V30 2 2 2 3
M  V30 3 1 3 4
M  V30 4 1 4 5
M  V30 5 2 4 6
M  V30 6 1 6 7
M  V30 7 1 7 8
M  V30 8 1 8 9
M  V30 9 2 9 10
M  V30 10 1 10 11
M  V30 11 2 11 12
M  V30 12 1 12 13
M  V30 13 1 13 14
M  V30 14 2 14 15
M  V30 15 1 15 16
M  V30 16 2 16 17
M  V30 17 1 17 18
M  V30 18 2 18 19
M  V30 19 1 19 20
M  V30 20 1 19 21
M  V30 21 2 21 22
M  V30 22 1 15 23
M  V30 23 2 23 24
M  V30 24 1 24 25
M  V30 25 1 25 26
M  V30 26 1 26 27
M  V30 27 1 27 28
M  V30 28 1 28 29
M  V30 29 1 29 30
M  V30 30 1 30 31
M  V30 31 2 13 32
M  V30 32 2 7 33
M  V30 33 1 33 2
M  V30 34 1 32 9
M  V30 35 1 25 14
M  V30 36 1 31 26
M  V30 37 1 22 16
M  V30 38 1 1 34
M  V30 39 1 1 35
M  V30 40 1 1 36
M  V30 41 1 3 37
M  V30 42 1 5 38
M  V30 43 1 5 39
M  V30 44 1 5 40
M  V30 45 1 6 41
M  V30 46 1 8 42
M  V30 47 1 11 43
M  V30 48 1 12 44
M  V30 49 1 17 45
M  V30 50 1 18 46
M  V30 51 1 21 47
M  V30 52 1 22 48
M  V30 53 1 24 49
M  V30 54 1 26 50
M  V30 55 1 27 51
M  V30 56 1 27 52
M  V30 57 1 28 53
M  V30 58 1 28 54
M  V30 59 1 29 55
M  V30 60 1 30 56
M  V30 61 1 30 57
M  V30 62 1 31 58
M  V30 63 1 31 59
M  V30 64 1 33 60
M  V30 END BOND
M  V30 END CTAB
M  END
>  <Dataset>  (551) 
ChEMBL_Kinases

>  <Ligand_Instance>  (551) 
nan

>  <PDB_ID>  (551) 
nan

>  <Standardized_SMILES>  (551) 
Cc1cc(C)cc(Nc2nccc(-c3c(-c4ccc(F)cc4)ncn3C3CCNCC3)n2)c1

>  <Name>  (551) 
nan

>  <Pocket>  (551) 
nan

>  <ATP_Site>  (551) 
nan

>  <Peripheral>  (551) 
nan

>  <Num_H_Atoms_ProtBoundConf>  (551) 
nan

>  <Num_Resolved_Atoms>  (551) 
nan

>  <Num_Not_Resolved_Atoms>  (551) 
nan

$$$$
CHEMBL4646557
     RDKit          3D

  0  0  0  0  0  0  0  0  0  0999 V3000
M  V30 BEGIN CTAB
M  V30 COUNTS 74 79 0 0 0
M  V30 BEGIN ATOM
M  V30 1 O 4.016304 -4.054450 -2.521071 0
M  V30 2 C 2.939316 -3.799708 -1.909931 0
M  V30 3 N 2.397076 -4.897048 -1.187335 0
M  V30 4 C 2.998027 -6.187765 -1.134575 0
M  V30 5 C 3.151767 -6.911888 -2.428327 0
M  V30 6 N 1.923173 -7.207384 -3.121761 0
M  V30 7 C 2.339691 -7.966295 -4.321877 0
M  V30 8 C 1.155629 -8.389030 -5.134582 0
M  V30 9 O 0.019958 -7.827173 -4.510709 0
M  V30 10 C 0.187600 -6.448216 -4.625304 0
M  V30 11 C 1.228806 -6.041280 -3.593069 0
M  V30 12 C 2.382664 -2.454565 -2.002803 0
M  V30 13 C 3.120026 -1.541372 -2.722497 0
M  V30 14 C 2.641784 -0.231680 -2.835887 0
M  V30 15 C 1.439566 0.176931 -2.241343 0
M  V30 16 C 0.791888 -0.828014 -1.548623 0
M  V30 17 C 1.190580 -2.134450 -1.388905 0
M  V30 18 C -0.486650 -0.654867 -0.839375 0
M  V30 19 O -1.143006 -1.671291 -0.408613 0
M  V30 20 C -1.175795 0.619862 -0.527768 0
M  V30 21 C -1.944947 0.550704 0.625052 0
M  V30 22 C -2.623690 1.689068 1.013874 0
M  V30 23 C -2.501178 2.825239 0.240539 0
M  V30 24 N -3.192124 3.986515 0.680701 0
M  V30 25 C -3.614062 4.363825 1.982643 0
M  V30 26 C -4.681043 5.243058 2.175550 0
M  V30 27 C -5.068497 5.612913 3.443565 0
M  V30 28 C -4.423543 5.133359 4.551345 0
M  V30 29 F -4.827554 5.515347 5.807377 0
M  V30 30 C -3.360024 4.259919 4.421743 0
M  V30 31 N -2.691599 3.758776 5.579608 0
M  V30 32 C -1.597955 4.343677 6.225459 0
M  V30 33 O -1.135243 5.415040 5.765019 0
M  V30 34 C -1.031806 3.737326 7.368614 0
M  V30 35 C -1.301063 2.598333 8.086433 0
M  V30 36 C -0.600186 2.212506 9.184985 0
M  V30 37 C 0.512412 3.040767 9.652613 0
M  V30 38 Se 0.466876 4.517485 8.296207 0 VAL=2
M  V30 39 C -2.996172 3.908632 3.123525 0
M  V30 40 C -1.733847 2.881032 -0.904921 0
M  V30 41 C -1.032247 1.746400 -1.329177 0
M  V30 42 C -0.268822 1.998013 -2.578424 0
M  V30 43 C 1.158171 1.604764 -2.492694 0
M  V30 44 H 1.490968 -4.684947 -0.675380 0
M  V30 45 H 3.982250 -6.117769 -0.581662 0
M  V30 46 H 2.369141 -6.851486 -0.476733 0
M  V30 47 H 3.775613 -6.338535 -3.154320 0
M  V30 48 H 3.656865 -7.883174 -2.186942 0
M  V30 49 H 2.886518 -8.880818 -3.976550 0
M  V30 50 H 3.045273 -7.306808 -4.858825 0
M  V30 51 H 1.072875 -9.482508 -5.237805 0
M  V30 52 H 1.210141 -7.896849 -6.138537 0
M  V30 53 H -0.785980 -5.952226 -4.458838 0
M  V30 54 H 0.580713 -6.229613 -5.644865 0
M  V30 55 H 2.006812 -5.400627 -4.101043 0
M  V30 56 H 0.749379 -5.426867 -2.831062 0
M  V30 57 H 4.060534 -1.772865 -3.212995 0
M  V30 58 H 3.225013 0.487722 -3.404492 0
M  V30 59 H 0.620617 -2.843477 -0.833844 0
M  V30 60 H -1.949508 -0.413970 1.137591 0
M  V30 61 H -3.198891 1.537604 1.909732 0
M  V30 62 H -3.437527 4.690277 -0.069288 0
M  V30 63 H -5.165727 5.601008 1.255904 0
M  V30 64 H -5.910482 6.304161 3.542590 0
M  V30 65 H -3.079108 2.859348 5.965065 0
M  V30 66 H -2.129662 2.030299 7.693959 0
M  V30 67 H -0.844372 1.305975 9.723263 0
M  V30 68 H 1.087784 2.679811 10.594031 0
M  V30 69 H -2.159975 3.243308 3.102399 0
M  V30 70 H -1.685709 3.815558 -1.467782 0
M  V30 71 H -0.817207 1.476216 -3.411588 0
M  V30 72 H -0.300840 3.087576 -2.788785 0
M  V30 73 H 1.639434 1.860352 -3.473370 0
M  V30 74 H 1.611012 2.195096 -1.663641 0
M  V30 END ATOM
M  V30 BEGIN BOND
M  V30 1 2 1 2
M  V30 2 1 2 3
M  V30 3 1 3 4
M  V30 4 1 4 5
M  V30 5 1 5 6
M  V30 6 1 6 7
M  V30 7 1 7 8
M  V30 8 1 8 9
M  V30 9 1 9 10
M  V30 10 1 10 11
M  V30 11 1 2 12
M  V30 12 2 12 13
M  V30 13 1 13 14
M  V30 14 2 14 15
M  V30 15 1 15 16
M  V30 16 2 16 17
M  V30 17 1 16 18
M  V30 18 2 18 19
M  V30 19 1 18 20
M  V30 20 2 20 21
M  V30 21 1 21 22
M  V30 22 2 22 23
M  V30 23 1 23 24
M  V30 24 1 24 25
M  V30 25 2 25 26
M  V30 26 1 26 27
M  V30 27 2 27 28
M  V30 28 1 28 29
M  V30 29 1 28 30
M  V30 30 1 30 31
M  V30 31 1 31 32
M  V30 32 2 32 33
M  V30 33 1 32 34
M  V30 34 2 34 35
M  V30 35 1 35 36
M  V30 36 2 36 37
M  V30 37 1 37 38
M  V30 38 2 30 39
M  V30 39 1 23 40
M  V30 40 2 40 41
M  V30 41 1 41 42
M  V30 42 1 42 43
M  V30 43 1 11 6
M  V30 44 1 17 12
M  V30 45 1 41 20
M  V30 46 1 43 15
M  V30 47 1 39 25
M  V30 48 1 38 34
M  V30 49 1 3 44
M  V30 50 1 4 45
M  V30 51 1 4 46
M  V30 52 1 5 47
M  V30 53 1 5 48
M  V30 54 1 7 49
M  V30 55 1 7 50
M  V30 56 1 8 51
M  V30 57 1 8 52
M  V30 58 1 10 53
M  V30 59 1 10 54
M  V30 60 1 11 55
M  V30 61 1 11 56
M  V30 62 1 13 57
M  V30 63 1 14 58
M  V30 64 1 17 59
M  V30 65 1 21 60
M  V30 66 1 22 61
M  V30 67 1 24 62
M  V30 68 1 26 63
M  V30 69 1 27 64
M  V30 70 1 31 65
M  V30 71 1 35 66
M  V30 72 1 36 67
M  V30 73 1 37 68
M  V30 74 1 39 69
M  V30 75 1 40 70
M  V30 76 1 42 71
M  V30 77 1 42 72
M  V30 78 1 43 73
M  V30 79 1 43 74
M  V30 END BOND
M  V30 END CTAB
M  END
>  <Dataset>  (552) 
ChEMBL_Kinases

>  <Ligand_Instance>  (552) 
nan

>  <PDB_ID>  (552) 
nan

>  <Standardized_SMILES>  (552) 
O=C(NCCN1CCOCC1)c1ccc2c(c1)C(=O)c1ccc(Nc3ccc(F)c(NC(=O)c4ccc[se]4)c3)cc1CC2

>  <Name>  (552) 
nan

>  <Pocket>  (552) 
nan

>  <ATP_Site>  (552) 
nan

>  <Peripheral>  (552) 
nan

>  <Num_H_Atoms_ProtBoundConf>  (552) 
nan

>  <Num_Resolved_Atoms>  (552) 
nan

>  <Num_Not_Resolved_Atoms>  (552) 
nan

$$$$
CHEMBL452086
     RDKit          3D

  0  0  0  0  0  0  0  0  0  0999 V3000
M  V30 BEGIN CTAB
M  V30 COUNTS 50 54 0 0 0
M  V30 BEGIN ATOM
M  V30 1 O 7.734992 -1.931455 -1.634725 0
M  V30 2 C 6.789379 -2.682473 -1.245265 0
M  V30 3 N 7.117588 -3.965835 -1.014884 0
M  V30 4 C 6.148566 -4.838008 -0.592066 0
M  V30 5 N 4.897082 -4.377964 -0.421410 0
M  V30 6 C 4.560155 -3.099081 -0.648543 0
M  V30 7 N 3.443329 -2.333019 -0.579652 0
M  V30 8 C 3.741725 -1.058053 -0.948606 0
M  V30 9 C 2.763019 0.071853 -0.996680 0
M  V30 10 C 3.284595 1.317574 -1.415242 0
M  V30 11 C 2.393932 2.350150 -1.460632 0
M  V30 12 N 1.314062 1.836361 -1.091153 0
M  V30 13 C 0.413821 1.165546 -0.724553 0
M  V30 14 C -0.718454 0.321601 -0.263412 0
M  V30 15 C -1.085334 -0.920994 0.100856 0
M  V30 16 C -2.367876 -1.142438 0.500493 0
M  V30 17 C -3.340023 -0.173158 0.561624 0
M  V30 18 C -4.680677 -0.605429 1.038541 0
M  V30 19 N -4.889656 -0.480376 2.437117 0
M  V30 20 C -4.015762 -1.228455 3.288997 0
M  V30 21 C -2.887994 -0.440627 3.858205 0
M  V30 22 O -3.452890 0.612602 4.595208 0
M  V30 23 C -4.044856 1.466454 3.672190 0
M  V30 24 C -5.188720 0.837400 2.919364 0
M  V30 25 C -3.015766 1.121348 0.196777 0
M  V30 26 C -1.689539 1.355242 -0.217021 0
M  V30 27 C 1.373448 0.077568 -0.681427 0
M  V30 28 C 5.060591 -0.920120 -1.276283 0
M  V30 29 C 5.510511 -2.202201 -1.073078 0
M  V30 30 H 8.076194 -4.351946 -1.137049 0
M  V30 31 H 6.309397 -5.903091 -0.375834 0
M  V30 32 H 2.503834 -2.699464 -0.282638 0
M  V30 33 H 4.328342 1.524421 -1.702656 0
M  V30 34 H 2.520003 3.374990 -1.736088 0
M  V30 35 H -0.286348 -1.615566 0.025049 0
M  V30 36 H -2.519751 -2.184971 0.761939 0
M  V30 37 H -4.859066 -1.684375 0.781884 0
M  V30 38 H -5.485562 -0.051133 0.517212 0
M  V30 39 H -4.647949 -1.540685 4.172225 0
M  V30 40 H -3.735155 -2.179105 2.810965 0
M  V30 41 H -2.311742 -1.138986 4.516892 0
M  V30 42 H -2.205106 0.022602 3.142667 0
M  V30 43 H -4.484720 2.297862 4.294566 0
M  V30 44 H -3.316311 1.962520 2.999545 0
M  V30 45 H -6.075964 0.779887 3.581026 0
M  V30 46 H -5.445111 1.495445 2.070994 0
M  V30 47 H -3.874478 1.768927 0.293652 0
M  V30 48 H -1.713572 2.430994 -0.439796 0
M  V30 49 H 1.358157 -1.022090 -0.410764 0
M  V30 50 H 5.597179 -0.061684 -1.599268 0
M  V30 END ATOM
M  V30 BEGIN BOND
M  V30 1 2 1 2
M  V30 2 1 2 3
M  V30 3 1 3 4
M  V30 4 2 4 5
M  V30 5 1 5 6
M  V30 6 1 6 7
M  V30 7 1 7 8
M  V30 8 1 8 9
M  V30 9 2 9 10
M  V30 10 1 10 11
M  V30 11 2 11 12
M  V30 12 1 12 13
M  V30 13 1 13 14
M  V30 14 2 14 15
M  V30 15 1 15 16
M  V30 16 2 16 17
M  V30 17 1 17 18
M  V30 18 1 18 19
M  V30 19 1 19 20
M  V30 20 1 20 21
M  V30 21 1 21 22
M  V30 22 1 22 23
M  V30 23 1 23 24
M  V30 24 1 17 25
M  V30 25 2 25 26
M  V30 26 2 13 27
M  V30 27 2 8 28
M  V30 28 1 28 29
M  V30 29 1 29 2
M  V30 30 2 29 6
M  V30 31 1 27 9
M  V30 32 1 26 14
M  V30 33 1 24 19
M  V30 34 1 3 30
M  V30 35 1 4 31
M  V30 36 1 7 32
M  V30 37 1 10 33
M  V30 38 1 11 34
M  V30 39 1 15 35
M  V30 40 1 16 36
M  V30 41 1 18 37
M  V30 42 1 18 38
M  V30 43 1 20 39
M  V30 44 1 20 40
M  V30 45 1 21 41
M  V30 46 1 21 42
M  V30 47 1 23 43
M  V30 48 1 23 44
M  V30 49 1 24 45
M  V30 50 1 24 46
M  V30 51 1 25 47
M  V30 52 1 26 48
M  V30 53 1 27 49
M  V30 54 1 28 50
M  V30 END BOND
M  V30 END CTAB
M  END
>  <Dataset>  (553) 
ChEMBL_Kinases

>  <Ligand_Instance>  (553) 
nan

>  <PDB_ID>  (553) 
nan

>  <Standardized_SMILES>  (553) 
O=c1[nH]cnc2[nH]c(-c3ccnc(-c4ccc(CN5CCOCC5)cc4)c3)cc12

>  <Name>  (553) 
nan

>  <Pocket>  (553) 
nan

>  <ATP_Site>  (553) 
nan

>  <Peripheral>  (553) 
nan

>  <Num_H_Atoms_ProtBoundConf>  (553) 
nan

>  <Num_Resolved_Atoms>  (553) 
nan

>  <Num_Not_Resolved_Atoms>  (553) 
nan

$$$$
CHEMBL4646566
     RDKit          3D

  0  0  0  0  0  0  0  0  0  0999 V3000
M  V30 BEGIN CTAB
M  V30 COUNTS 57 61 0 0 0
M  V30 BEGIN ATOM
M  V30 1 N 5.895099 -4.521186 2.799372 0
M  V30 2 S 4.547309 -5.568625 2.532705 0
M  V30 3 O 5.089095 -6.878589 2.021706 0
M  V30 4 O 3.814326 -5.763544 3.833234 0
M  V30 5 C 3.460203 -4.836414 1.377290 0
M  V30 6 C 3.697282 -3.615882 0.798822 0
M  V30 7 C 2.848897 -3.026772 -0.114088 0
M  V30 8 N 3.123330 -1.782109 -0.713140 0
M  V30 9 C 2.320934 -0.710232 -1.156601 0
M  V30 10 C 0.968871 -0.554738 -0.971800 0
M  V30 11 C 0.195412 0.488387 -1.430396 0
M  V30 12 O -1.189407 0.520920 -1.166198 0
M  V30 13 C -1.657876 1.155088 -0.004819 0
M  V30 14 C -0.803548 1.756797 0.892583 0
M  V30 15 N -1.650467 2.235706 1.847884 0
M  V30 16 C -1.170878 2.966765 3.026058 0
M  V30 17 C -0.007201 3.892204 2.797640 0
M  V30 18 C 0.275159 2.567776 3.468619 0
M  V30 19 N -2.889663 1.948639 1.551280 0
M  V30 20 C -2.964662 1.266791 0.392904 0
M  V30 21 C -4.181272 0.756427 -0.292608 0
M  V30 22 C -4.370583 -0.643506 0.245631 0
M  V30 23 C -5.471318 -1.392383 -0.449771 0
M  V30 24 O -5.499103 -1.145882 -1.819654 0
M  V30 25 C -4.278182 -0.656403 -2.282997 0
M  V30 26 C -4.118456 0.744503 -1.757672 0
M  V30 27 C 0.836246 1.477964 -2.146300 0
M  V30 28 C 2.193739 1.327755 -2.334713 0
M  V30 29 N 2.888320 0.283762 -1.859729 0
M  V30 30 C 1.713442 -3.740680 -0.432173 0
M  V30 31 C 1.434298 -4.987916 0.135134 0
M  V30 32 C 2.317639 -5.527215 1.041460 0
M  V30 33 F 2.060132 -6.742863 1.603994 0
M  V30 34 H 6.133631 -4.089935 1.878430 0
M  V30 35 H 5.640661 -3.720721 3.447447 0
M  V30 36 H 4.584299 -3.060820 1.048774 0
M  V30 37 H 4.174849 -1.664610 -0.843038 0
M  V30 38 H 0.438458 -1.303767 -0.405513 0
M  V30 39 H 0.273268 1.837097 0.859637 0
M  V30 40 H -1.875306 3.187198 3.827942 0
M  V30 41 H 0.305630 4.025654 1.742037 0
M  V30 42 H 0.167636 4.750234 3.473734 0
M  V30 43 H 0.785812 1.809500 2.837203 0
M  V30 44 H 0.482352 2.526611 4.540774 0
M  V30 45 H -5.007829 1.417779 0.054465 0
M  V30 46 H -3.420051 -1.217955 0.200805 0
M  V30 47 H -4.641105 -0.542706 1.316448 0
M  V30 48 H -5.249733 -2.477718 -0.329408 0
M  V30 49 H -6.470552 -1.224361 -0.000377 0
M  V30 50 H -4.377409 -0.666674 -3.405701 0
M  V30 51 H -3.513528 -1.365422 -1.971877 0
M  V30 52 H -3.254911 1.272294 -2.207167 0
M  V30 53 H -5.007645 1.308754 -2.164778 0
M  V30 54 H 0.258178 2.308679 -2.519469 0
M  V30 55 H 2.710173 2.096682 -2.894065 0
M  V30 56 H 0.961503 -3.443186 -1.122582 0
M  V30 57 H 0.536521 -5.570905 -0.106283 0
M  V30 END ATOM
M  V30 BEGIN BOND
M  V30 1 1 1 2
M  V30 2 2 2 3
M  V30 3 2 2 4
M  V30 4 1 2 5
M  V30 5 2 5 6
M  V30 6 1 6 7
M  V30 7 1 7 8
M  V30 8 1 8 9
M  V30 9 2 9 10
M  V30 10 1 10 11
M  V30 11 1 11 12
M  V30 12 1 12 13
M  V30 13 2 13 14
M  V30 14 1 14 15
M  V30 15 1 15 16
M  V30 16 1 16 17
M  V30 17 1 17 18
M  V30 18 1 15 19
M  V30 19 2 19 20
M  V30 20 1 20 21
M  V30 21 1 21 22
M  V30 22 1 22 23
M  V30 23 1 23 24
M  V30 24 1 24 25
M  V30 25 1 25 26
M  V30 26 2 11 27
M  V30 27 1 27 28
M  V30 28 2 28 29
M  V30 29 2 7 30
M  V30 30 1 30 31
M  V30 31 2 31 32
M  V30 32 1 32 33
M  V30 33 1 32 5
M  V30 34 1 29 9
M  V30 35 1 20 13
M  V30 36 1 26 21
M  V30 37 1 18 16
M  V30 38 1 1 34
M  V30 39 1 1 35
M  V30 40 1 6 36
M  V30 41 1 8 37
M  V30 42 1 10 38
M  V30 43 1 14 39
M  V30 44 1 16 40
M  V30 45 1 17 41
M  V30 46 1 17 42
M  V30 47 1 18 43
M  V30 48 1 18 44
M  V30 49 1 21 45
M  V30 50 1 22 46
M  V30 51 1 22 47
M  V30 52 1 23 48
M  V30 53 1 23 49
M  V30 54 1 25 50
M  V30 55 1 25 51
M  V30 56 1 26 52
M  V30 57 1 26 53
M  V30 58 1 27 54
M  V30 59 1 28 55
M  V30 60 1 30 56
M  V30 61 1 31 57
M  V30 END BOND
M  V30 END CTAB
M  END
>  <Dataset>  (554) 
ChEMBL_Kinases

>  <Ligand_Instance>  (554) 
nan

>  <PDB_ID>  (554) 
nan

>  <Standardized_SMILES>  (554) 
NS(=O)(=O)c1cc(Nc2cc(Oc3cn(C4CC4)nc3C3CCOCC3)ccn2)ccc1F

>  <Name>  (554) 
nan

>  <Pocket>  (554) 
nan

>  <ATP_Site>  (554) 
nan

>  <Peripheral>  (554) 
nan

>  <Num_H_Atoms_ProtBoundConf>  (554) 
nan

>  <Num_Resolved_Atoms>  (554) 
nan

>  <Num_Not_Resolved_Atoms>  (554) 
nan

$$$$
CHEMBL452085
     RDKit          3D

  0  0  0  0  0  0  0  0  0  0999 V3000
M  V30 BEGIN CTAB
M  V30 COUNTS 38 41 0 0 0
M  V30 BEGIN ATOM
M  V30 1 C 1.650340 -6.898731 1.166227 0
M  V30 2 O 1.391250 -6.265908 2.420971 0
M  V30 3 C 1.070690 -4.939142 2.552042 0
M  V30 4 C 0.854392 -4.502964 3.840642 0
M  V30 5 C 0.527651 -3.185931 4.066573 0
M  V30 6 C 0.417676 -2.308100 3.006530 0
M  V30 7 C 0.625149 -2.701626 1.705517 0
M  V30 8 C 0.528847 -1.839400 0.532572 0
M  V30 9 C 0.215760 -0.517332 0.591530 0
M  V30 10 C 0.119797 0.314505 -0.506023 0
M  V30 11 C -0.223390 1.724284 -0.338654 0
M  V30 12 C -0.347334 2.644931 -1.355732 0
M  V30 13 C -0.680323 3.841778 -0.745984 0
M  V30 14 C -0.923654 5.091251 -1.281946 0
M  V30 15 O -0.861379 5.300490 -2.529834 0
M  V30 16 N -1.232212 6.084984 -0.415072 0
M  V30 17 C -1.308865 5.903567 0.921608 0
M  V30 18 N -1.068690 4.672390 1.445152 0
M  V30 19 C -0.752728 3.625406 0.634465 0
M  V30 20 N -0.468857 2.328975 0.837579 0
M  V30 21 C 0.351882 -0.200596 -1.765477 0
M  V30 22 C 0.666403 -1.543074 -1.787148 0
M  V30 23 N 0.751755 -2.324733 -0.701684 0
M  V30 24 C 0.950205 -4.031561 1.532247 0
M  V30 25 H 0.687440 -7.122392 0.670010 0
M  V30 26 H 2.178655 -6.124630 0.548773 0
M  V30 27 H 2.281661 -7.795336 1.290805 0
M  V30 28 H 0.928802 -5.153854 4.706748 0
M  V30 29 H 0.341120 -2.764925 5.060575 0
M  V30 30 H 0.161428 -1.273415 3.179022 0
M  V30 31 H 0.023297 -0.057026 1.549296 0
M  V30 32 H -0.214936 2.476854 -2.404088 0
M  V30 33 H -1.417132 7.031948 -0.815693 0
M  V30 34 H -1.563016 6.754044 1.551930 0
M  V30 35 H -0.460660 1.923372 1.807402 0
M  V30 36 H 0.291242 0.402513 -2.661591 0
M  V30 37 H 0.861234 -2.011054 -2.751423 0
M  V30 38 H 1.121219 -4.380695 0.524313 0
M  V30 END ATOM
M  V30 BEGIN BOND
M  V30 1 1 1 2
M  V30 2 1 2 3
M  V30 3 2 3 4
M  V30 4 1 4 5
M  V30 5 2 5 6
M  V30 6 1 6 7
M  V30 7 1 7 8
M  V30 8 2 8 9
M  V30 9 1 9 10
M  V30 10 1 10 11
M  V30 11 2 11 12
M  V30 12 1 12 13
M  V30 13 1 13 14
M  V30 14 2 14 15
M  V30 15 1 14 16
M  V30 16 1 16 17
M  V30 17 2 17 18
M  V30 18 1 18 19
M  V30 19 1 19 20
M  V30 20 2 10 21
M  V30 21 1 21 22
M  V30 22 2 22 23
M  V30 23 2 7 24
M  V30 24 1 24 3
M  V30 25 1 23 8
M  V30 26 1 20 11
M  V30 27 2 19 13
M  V30 28 1 1 25
M  V30 29 1 1 26
M  V30 30 1 1 27
M  V30 31 1 4 28
M  V30 32 1 5 29
M  V30 33 1 6 30
M  V30 34 1 9 31
M  V30 35 1 12 32
M  V30 36 1 16 33
M  V30 37 1 17 34
M  V30 38 1 20 35
M  V30 39 1 21 36
M  V30 40 1 22 37
M  V30 41 1 24 38
M  V30 END BOND
M  V30 END CTAB
M  END
>  <Dataset>  (555) 
ChEMBL_Kinases

>  <Ligand_Instance>  (555) 
nan

>  <PDB_ID>  (555) 
nan

>  <Standardized_SMILES>  (555) 
COc1cccc(-c2cc(-c3cc4c(=O)[nH]cnc4[nH]3)ccn2)c1

>  <Name>  (555) 
nan

>  <Pocket>  (555) 
nan

>  <ATP_Site>  (555) 
nan

>  <Peripheral>  (555) 
nan

>  <Num_H_Atoms_ProtBoundConf>  (555) 
nan

>  <Num_Resolved_Atoms>  (555) 
nan

>  <Num_Not_Resolved_Atoms>  (555) 
nan

$$$$
CHEMBL4646574
     RDKit          3D

  0  0  0  0  0  0  0  0  0  0999 V3000
M  V30 BEGIN CTAB
M  V30 COUNTS 42 45 0 0 0
M  V30 BEGIN ATOM
M  V30 1 C -1.546914 -5.511308 2.685867 0
M  V30 2 C -0.196271 -5.018819 2.327944 0
M  V30 3 C 0.064102 -3.688456 1.998395 0
M  V30 4 C 1.309721 -3.208336 1.663046 0
M  V30 5 C 1.392509 -1.781921 1.346162 0
M  V30 6 C 2.505320 -1.020874 1.592067 0
M  V30 7 C 2.591764 0.332752 1.294205 0
M  V30 8 C 1.499229 0.945851 0.719668 0
M  V30 9 N 1.177195 2.182855 0.291473 0
M  V30 10 C -0.074826 2.211115 -0.201801 0
M  V30 11 N -0.778764 3.321319 -0.747953 0
M  V30 12 C -0.170564 4.578881 -0.821621 0
M  V30 13 O 1.006465 4.683829 -0.390258 0
M  V30 14 C -1.014450 5.680248 -1.421183 0
M  V30 15 C -0.576558 6.960051 -1.567579 0
M  V30 16 C -1.377506 7.894957 -2.109874 0
M  V30 17 C -2.708103 7.387736 -2.501246 0
M  V30 18 S -2.602175 5.559589 -2.008035 0
M  V30 19 N -0.518963 0.950194 -0.065418 0
M  V30 20 N 0.413090 0.187677 0.483514 0
M  V30 21 C 0.310194 -1.143312 0.769449 0
M  V30 22 C 2.354120 -4.108667 1.656499 0
M  V30 23 C 2.121780 -5.435082 1.980007 0
M  V30 24 C 3.258589 -6.394140 1.968671 0
M  V30 25 C 0.854710 -5.896389 2.315478 0
M  V30 26 O 0.656878 -7.236907 2.635368 0
M  V30 27 H -1.807970 -6.316522 1.993212 0
M  V30 28 H -1.519166 -5.825278 3.753162 0
M  V30 29 H -2.312847 -4.704881 2.539756 0
M  V30 30 H -0.839166 -3.064728 2.036755 0
M  V30 31 H 3.381044 -1.482404 2.045337 0
M  V30 32 H 3.469353 0.930097 1.488749 0
M  V30 33 H -1.751781 3.171812 -1.088834 0
M  V30 34 H 0.420189 7.278419 -1.259092 0
M  V30 35 H -1.198835 8.941214 -2.299118 0
M  V30 36 H -3.507894 8.122500 -2.993663 0
M  V30 37 H -0.587892 -1.687470 0.553783 0
M  V30 38 H 3.321669 -3.711219 1.390628 0
M  V30 39 H 4.217526 -5.903045 2.279832 0
M  V30 40 H 3.367407 -6.881557 0.959425 0
M  V30 41 H 3.073105 -7.191130 2.734262 0
M  V30 42 H 0.189579 -7.901196 2.004676 0
M  V30 END ATOM
M  V30 BEGIN BOND
M  V30 1 1 1 2
M  V30 2 2 2 3
M  V30 3 1 3 4
M  V30 4 1 4 5
M  V30 5 1 5 6
M  V30 6 2 6 7
M  V30 7 1 7 8
M  V30 8 2 8 9
M  V30 9 1 9 10
M  V30 10 1 10 11
M  V30 11 1 11 12
M  V30 12 2 12 13
M  V30 13 1 12 14
M  V30 14 2 14 15
M  V30 15 1 15 16
M  V30 16 2 16 17
M  V30 17 1 17 18
M  V30 18 2 10 19
M  V30 19 1 19 20
M  V30 20 1 20 21
M  V30 21 2 4 22
M  V30 22 1 22 23
M  V30 23 1 23 24
M  V30 24 2 23 25
M  V30 25 1 25 26
M  V30 26 1 25 2
M  V30 27 2 21 5
M  V30 28 1 20 8
M  V30 29 1 18 14
M  V30 30 1 1 27
M  V30 31 1 1 28
M  V30 32 1 1 29
M  V30 33 1 3 30
M  V30 34 1 6 31
M  V30 35 1 7 32
M  V30 36 1 11 33
M  V30 37 1 15 34
M  V30 38 1 16 35
M  V30 39 1 17 36
M  V30 40 1 21 37
M  V30 41 1 22 38
M  V30 42 1 24 39
M  V30 43 1 24 40
M  V30 44 1 24 41
M  V30 45 1 26 42
M  V30 END BOND
M  V30 END CTAB
M  END
>  <Dataset>  (556) 
ChEMBL_Kinases

>  <Ligand_Instance>  (556) 
nan

>  <PDB_ID>  (556) 
nan

>  <Standardized_SMILES>  (556) 
Cc1cc(-c2ccc3nc(NC(=O)c4cccs4)nn3c2)cc(C)c1O

>  <Name>  (556) 
nan

>  <Pocket>  (556) 
nan

>  <ATP_Site>  (556) 
nan

>  <Peripheral>  (556) 
nan

>  <Num_H_Atoms_ProtBoundConf>  (556) 
nan

>  <Num_Resolved_Atoms>  (556) 
nan

>  <Num_Not_Resolved_Atoms>  (556) 
nan

$$$$
CHEMBL4646621
     RDKit          3D

  0  0  0  0  0  0  0  0  0  0999 V3000
M  V30 BEGIN CTAB
M  V30 COUNTS 50 53 0 0 0
M  V30 BEGIN ATOM
M  V30 1 C 4.063301 -5.903460 2.112987 0
M  V30 2 C 2.750627 -6.248118 2.784141 0
M  V30 3 C 2.923151 -7.688621 3.291094 0
M  V30 4 C 1.605004 -6.281287 1.831546 0
M  V30 5 N 1.342760 -5.043138 1.136509 0
M  V30 6 C 0.892548 -3.770984 1.568659 0
M  V30 7 C 0.580103 -3.502422 2.885416 0
M  V30 8 C 0.128446 -2.277260 3.338499 0
M  V30 9 C -0.016169 -1.260525 2.399608 0
M  V30 10 N 0.291718 -1.537069 1.121224 0
M  V30 11 C 0.244755 -0.751988 0.026452 0
M  V30 12 C -0.159813 0.647206 -0.093347 0
M  V30 13 C 0.237906 1.653127 0.764100 0
M  V30 14 C -0.208352 2.965091 0.560887 0
M  V30 15 C -1.046472 3.303818 -0.481627 0
M  V30 16 C -1.444367 4.702222 -0.591761 0
M  V30 17 O -1.009973 5.499816 0.251114 0
M  V30 18 N -2.302466 5.189371 -1.615483 0
M  V30 19 C -2.663569 6.562156 -1.683307 0
M  V30 20 C -4.185190 6.768209 -1.820611 0
M  V30 21 C -3.216014 7.241180 -2.844817 0
M  V30 22 C -1.450688 2.306778 -1.345198 0
M  V30 23 C -0.998352 1.015636 -1.127171 0
M  V30 24 C 0.651438 -1.442057 -1.098223 0
M  V30 25 N 0.951260 -2.680123 -0.661027 0
M  V30 26 C 0.729357 -2.713529 0.664341 0
M  V30 27 H 4.227714 -6.544306 1.238528 0
M  V30 28 H 4.148945 -4.830174 1.881963 0
M  V30 29 H 4.860860 -6.132341 2.859865 0
M  V30 30 H 2.557801 -5.617886 3.641465 0
M  V30 31 H 1.910451 -8.138572 3.390980 0
M  V30 32 H 3.462113 -7.714829 4.240708 0
M  V30 33 H 3.436265 -8.224326 2.475439 0
M  V30 34 H 0.684241 -6.436095 2.481741 0
M  V30 35 H 1.611834 -7.153203 1.173904 0
M  V30 36 H 1.534817 -5.128207 0.092261 0
M  V30 37 H 0.661635 -4.235630 3.651870 0
M  V30 38 H -0.112681 -2.081237 4.375641 0
M  V30 39 H -0.367760 -0.291126 2.723245 0
M  V30 40 H 0.891311 1.398776 1.579211 0
M  V30 41 H 0.153052 3.678859 1.277731 0
M  V30 42 H -2.677873 4.531550 -2.334064 0
M  V30 43 H -2.209836 7.183345 -0.869025 0
M  V30 44 H -4.657361 7.543220 -1.173463 0
M  V30 45 H -4.827774 5.909225 -2.013871 0
M  V30 46 H -3.049953 8.357471 -2.893012 0
M  V30 47 H -3.289421 6.812744 -3.846767 0
M  V30 48 H -2.105839 2.570461 -2.160400 0
M  V30 49 H -1.373575 0.290122 -1.866650 0
M  V30 50 H 0.741606 -1.143306 -2.132037 0
M  V30 END ATOM
M  V30 BEGIN BOND
M  V30 1 1 1 2
M  V30 2 1 2 3
M  V30 3 1 2 4
M  V30 4 1 4 5
M  V30 5 1 5 6
M  V30 6 2 6 7
M  V30 7 1 7 8
M  V30 8 2 8 9
M  V30 9 1 9 10
M  V30 10 1 10 11
M  V30 11 1 11 12
M  V30 12 2 12 13
M  V30 13 1 13 14
M  V30 14 2 14 15
M  V30 15 1 15 16
M  V30 16 2 16 17
M  V30 17 1 16 18
M  V30 18 1 18 19
M  V30 19 1 19 20
M  V30 20 1 20 21
M  V30 21 1 15 22
M  V30 22 2 22 23
M  V30 23 2 11 24
M  V30 24 1 24 25
M  V30 25 2 25 26
M  V30 26 1 26 6
M  V30 27 1 26 10
M  V30 28 1 23 12
M  V30 29 1 21 19
M  V30 30 1 1 27
M  V30 31 1 1 28
M  V30 32 1 1 29
M  V30 33 1 2 30
M  V30 34 1 3 31
M  V30 35 1 3 32
M  V30 36 1 3 33
M  V30 37 1 4 34
M  V30 38 1 4 35
M  V30 39 1 5 36
M  V30 40 1 7 37
M  V30 41 1 8 38
M  V30 42 1 9 39
M  V30 43 1 13 40
M  V30 44 1 14 41
M  V30 45 1 18 42
M  V30 46 1 19 43
M  V30 47 1 20 44
M  V30 48 1 20 45
M  V30 49 1 21 46
M  V30 50 1 21 47
M  V30 51 1 22 48
M  V30 52 1 23 49
M  V30 53 1 24 50
M  V30 END BOND
M  V30 END CTAB
M  END
>  <Dataset>  (557) 
ChEMBL_Kinases

>  <Ligand_Instance>  (557) 
nan

>  <PDB_ID>  (557) 
nan

>  <Standardized_SMILES>  (557) 
CC(C)CNc1cccn2c(-c3ccc(C(=O)NC4CC4)cc3)cnc12

>  <Name>  (557) 
nan

>  <Pocket>  (557) 
nan

>  <ATP_Site>  (557) 
nan

>  <Peripheral>  (557) 
nan

>  <Num_H_Atoms_ProtBoundConf>  (557) 
nan

>  <Num_Resolved_Atoms>  (557) 
nan

>  <Num_Not_Resolved_Atoms>  (557) 
nan

$$$$
CHEMBL452079
     RDKit          3D

  0  0  0  0  0  0  0  0  0  0999 V3000
M  V30 BEGIN CTAB
M  V30 COUNTS 58 63 0 0 0
M  V30 BEGIN ATOM
M  V30 1 O 3.285045 1.986030 2.839834 0
M  V30 2 C 2.241454 1.303900 2.971678 0
M  V30 3 N 1.321053 1.388295 4.079931 0
M  V30 4 C 0.282885 0.452835 3.842521 0
M  V30 5 O -0.599254 0.400827 4.712847 0
M  V30 6 C 0.485851 -0.244287 2.618890 0
M  V30 7 C 1.652404 0.278081 2.121590 0
M  V30 8 C 2.179661 -0.171117 0.918279 0
M  V30 9 C 3.383691 0.284180 0.236190 0
M  V30 10 C 3.809112 1.548946 -0.108084 0
M  V30 11 C 5.003602 1.740681 -0.741287 0
M  V30 12 C 5.839497 0.693767 -1.067698 0
M  V30 13 C 5.455310 -0.589789 -0.743323 0
M  V30 14 C 4.246244 -0.766133 -0.103879 0
M  V30 15 C 1.471333 -1.173162 0.244483 0
M  V30 16 C 0.281265 -1.718335 0.734916 0
M  V30 17 C -0.176220 -1.218747 1.934359 0
M  V30 18 C -1.315598 -1.878706 2.208309 0
M  V30 19 C -2.264090 -1.917294 3.187910 0
M  V30 20 C -3.365249 -2.743230 3.207864 0
M  V30 21 O -4.322195 -2.774133 4.207676 0
M  V30 22 C -3.559622 -3.634341 2.145317 0
M  V30 23 C -2.616793 -3.617748 1.139762 0
M  V30 24 C -1.517437 -2.749125 1.182210 0
M  V30 25 N -0.540780 -2.686331 0.229550 0
M  V30 26 C -0.299063 -3.334189 -1.004649 0
M  V30 27 C -0.727195 -2.693382 -2.261677 0
M  V30 28 C -2.157104 -2.371415 -2.461055 0
M  V30 29 N -2.668001 -1.446155 -1.491214 0
M  V30 30 C -2.357326 -0.095281 -1.217814 0
M  V30 31 C -1.463020 0.687769 -1.904205 0
M  V30 32 C -1.145336 1.995676 -1.636819 0
M  V30 33 C -1.794298 2.573392 -0.570730 0
M  V30 34 C -2.702342 1.858937 0.165404 0
M  V30 35 C -2.962409 0.558759 -0.166968 0
M  V30 36 H 1.502243 2.072856 4.873720 0
M  V30 37 H 3.101288 2.316839 0.169264 0
M  V30 38 H 5.245843 2.786759 -0.969208 0
M  V30 39 H 6.763135 0.961121 -1.569075 0
M  V30 40 H 6.109751 -1.400604 -0.999983 0
M  V30 41 H 4.027683 -1.824063 0.112995 0
M  V30 42 H 1.846037 -1.552631 -0.695116 0
M  V30 43 H -2.230112 -1.297069 4.037941 0
M  V30 44 H -4.805611 -1.939396 4.553522 0
M  V30 45 H -4.397719 -4.312781 2.089767 0
M  V30 46 H -2.772207 -4.306673 0.323889 0
M  V30 47 H 0.771540 -3.643624 -1.143463 0
M  V30 48 H -0.830585 -4.340039 -0.974074 0
M  V30 49 H -0.065288 -1.855362 -2.586943 0
M  V30 50 H -0.490697 -3.477538 -3.072586 0
M  V30 51 H -2.321555 -1.852730 -3.463420 0
M  V30 52 H -2.810009 -3.267931 -2.547866 0
M  V30 53 H -3.429818 -1.856461 -0.882126 0
M  V30 54 H -0.941909 0.277410 -2.753725 0
M  V30 55 H -0.431831 2.558518 -2.214515 0
M  V30 56 H -1.594618 3.599827 -0.301354 0
M  V30 57 H -3.196534 2.334812 0.994789 0
M  V30 58 H -3.689498 0.051731 0.454717 0
M  V30 END ATOM
M  V30 BEGIN BOND
M  V30 1 2 1 2
M  V30 2 1 2 3
M  V30 3 1 3 4
M  V30 4 2 4 5
M  V30 5 1 4 6
M  V30 6 2 6 7
M  V30 7 1 7 8
M  V30 8 1 8 9
M  V30 9 2 9 10
M  V30 10 1 10 11
M  V30 11 2 11 12
M  V30 12 1 12 13
M  V30 13 2 13 14
M  V30 14 2 8 15
M  V30 15 1 15 16
M  V30 16 2 16 17
M  V30 17 1 17 18
M  V30 18 2 18 19
M  V30 19 1 19 20
M  V30 20 1 20 21
M  V30 21 2 20 22
M  V30 22 1 22 23
M  V30 23 2 23 24
M  V30 24 1 24 25
M  V30 25 1 25 26
M  V30 26 1 26 27
M  V30 27 1 27 28
M  V30 28 1 28 29
M  V30 29 1 29 30
M  V30 30 2 30 31
M  V30 31 1 31 32
M  V30 32 2 32 33
M  V30 33 1 33 34
M  V30 34 2 34 35
M  V30 35 1 7 2
M  V30 36 1 14 9
M  V30 37 1 25 16
M  V30 38 1 35 30
M  V30 39 1 17 6
M  V30 40 1 24 18
M  V30 41 1 3 36
M  V30 42 1 10 37
M  V30 43 1 11 38
M  V30 44 1 12 39
M  V30 45 1 13 40
M  V30 46 1 14 41
M  V30 47 1 15 42
M  V30 48 1 19 43
M  V30 49 1 21 44
M  V30 50 1 22 45
M  V30 51 1 23 46
M  V30 52 1 26 47
M  V30 53 1 26 48
M  V30 54 1 27 49
M  V30 55 1 27 50
M  V30 56 1 28 51
M  V30 57 1 28 52
M  V30 58 1 29 53
M  V30 59 1 31 54
M  V30 60 1 32 55
M  V30 61 1 33 56
M  V30 62 1 34 57
M  V30 63 1 35 58
M  V30 END BOND
M  V30 END CTAB
M  END
>  <Dataset>  (558) 
ChEMBL_Kinases

>  <Ligand_Instance>  (558) 
nan

>  <PDB_ID>  (558) 
nan

>  <Standardized_SMILES>  (558) 
O=C1NC(=O)c2c1c(-c1ccccc1)cc1c2c2cc(O)ccc2n1CCCNc1ccccc1

>  <Name>  (558) 
nan

>  <Pocket>  (558) 
nan

>  <ATP_Site>  (558) 
nan

>  <Peripheral>  (558) 
nan

>  <Num_H_Atoms_ProtBoundConf>  (558) 
nan

>  <Num_Resolved_Atoms>  (558) 
nan

>  <Num_Not_Resolved_Atoms>  (558) 
nan

$$$$
CHEMBL452078
     RDKit          3D

  0  0  0  0  0  0  0  0  0  0999 V3000
M  V30 BEGIN CTAB
M  V30 COUNTS 63 68 0 0 0
M  V30 BEGIN ATOM
M  V30 1 C 0.945267 2.502598 4.455279 0
M  V30 2 N 0.864190 1.063934 4.324002 0
M  V30 3 C 2.222941 0.560140 4.189443 0
M  V30 4 C 2.719199 0.700060 2.768434 0
M  V30 5 N 2.003834 -0.195025 1.851075 0
M  V30 6 C 2.862451 -1.314712 1.629561 0
M  V30 7 C 2.371477 -2.357943 0.696496 0
M  V30 8 C 2.126465 -1.964013 -0.708743 0
M  V30 9 N 1.162909 -0.914767 -0.916671 0
M  V30 10 C 1.251255 0.442184 -1.046042 0
M  V30 11 C 2.426859 1.203331 -1.022657 0
M  V30 12 C 2.401278 2.572930 -1.171842 0
M  V30 13 C 1.140897 3.153054 -1.346600 0
M  V30 14 O 1.151341 4.534931 -1.493641 0
M  V30 15 C 0.023939 2.349529 -1.360376 0
M  V30 16 C 0.019861 1.013549 -1.217692 0
M  V30 17 C -0.870680 -0.006274 -1.196701 0
M  V30 18 C -2.228299 0.002912 -1.322630 0
M  V30 19 C -2.910131 -1.189185 -1.264887 0
M  V30 20 C -2.253558 -2.392462 -1.082810 0
M  V30 21 C -2.941314 -3.672418 -1.016253 0
M  V30 22 C -3.400396 -4.214656 0.167524 0
M  V30 23 Cl -3.157105 -3.342966 1.668734 0
M  V30 24 C -4.053796 -5.428143 0.241609 0
M  V30 25 C -4.223959 -6.080793 -0.966672 0
M  V30 26 C -3.783910 -5.579403 -2.168481 0
M  V30 27 C -3.132541 -4.360450 -2.208621 0
M  V30 28 Cl -2.585955 -3.753012 -3.757377 0
M  V30 29 C -0.881182 -2.365281 -0.959236 0
M  V30 30 C -0.164924 -1.174129 -1.013642 0
M  V30 31 C -4.360757 -1.029389 -1.414478 0
M  V30 32 O -5.253729 -1.914170 -1.407276 0
M  V30 33 N -4.524785 0.391425 -1.573101 0
M  V30 34 C -3.241322 0.988100 -1.515323 0
M  V30 35 O -3.203554 2.210917 -1.635341 0
M  V30 36 C 0.762044 -0.570235 2.512832 0
M  V30 37 C 0.167250 0.724171 3.081289 0
M  V30 38 H 1.983745 2.824140 4.670515 0
M  V30 39 H 0.570322 2.997930 3.541011 0
M  V30 40 H 0.301316 2.764997 5.333565 0
M  V30 41 H 2.334477 -0.476345 4.552212 0
M  V30 42 H 2.880626 1.197614 4.811929 0
M  V30 43 H 2.659531 1.746678 2.422767 0
M  V30 44 H 3.801122 0.457717 2.794681 0
M  V30 45 H 3.081728 -1.744113 2.651002 0
M  V30 46 H 3.852699 -0.904876 1.308689 0
M  V30 47 H 1.499586 -2.899660 1.157195 0
M  V30 48 H 3.182327 -3.151224 0.660487 0
M  V30 49 H 3.120593 -1.622660 -1.135576 0
M  V30 50 H 1.888068 -2.854838 -1.366039 0
M  V30 51 H 3.383788 0.722203 -0.885598 0
M  V30 52 H 3.311736 3.147610 -1.152226 0
M  V30 53 H 0.461247 5.066422 -1.992454 0
M  V30 54 H -0.852720 2.931264 -1.501323 0
M  V30 55 H -4.412410 -5.850246 1.172351 0
M  V30 56 H -4.739105 -7.048360 -0.947370 0
M  V30 57 H -3.946976 -6.137522 -3.081411 0
M  V30 58 H -0.367084 -3.317931 -0.815625 0
M  V30 59 H -5.495629 0.789636 -1.702587 0
M  V30 60 H 0.010895 -1.004817 1.856364 0
M  V30 61 H 0.955916 -1.316831 3.310884 0
M  V30 62 H -0.914603 0.653367 3.246610 0
M  V30 63 H 0.341783 1.502938 2.311052 0
M  V30 END ATOM
M  V30 BEGIN BOND
M  V30 1 1 1 2
M  V30 2 1 2 3
M  V30 3 1 3 4
M  V30 4 1 4 5
M  V30 5 1 5 6
M  V30 6 1 6 7
M  V30 7 1 7 8
M  V30 8 1 8 9
M  V30 9 1 9 10
M  V30 10 2 10 11
M  V30 11 1 11 12
M  V30 12 2 12 13
M  V30 13 1 13 14
M  V30 14 1 13 15
M  V30 15 2 15 16
M  V30 16 1 16 17
M  V30 17 2 17 18
M  V30 18 1 18 19
M  V30 19 2 19 20
M  V30 20 1 20 21
M  V30 21 2 21 22
M  V30 22 1 22 23
M  V30 23 1 22 24
M  V30 24 2 24 25
M  V30 25 1 25 26
M  V30 26 2 26 27
M  V30 27 1 27 28
M  V30 28 1 20 29
M  V30 29 2 29 30
M  V30 30 1 19 31
M  V30 31 2 31 32
M  V30 32 1 31 33
M  V30 33 1 33 34
M  V30 34 2 34 35
M  V30 35 1 5 36
M  V30 36 1 36 37
M  V30 37 1 37 2
M  V30 38 1 30 9
M  V30 39 1 16 10
M  V30 40 1 30 17
M  V30 41 1 34 18
M  V30 42 1 27 21
M  V30 43 1 1 38
M  V30 44 1 1 39
M  V30 45 1 1 40
M  V30 46 1 3 41
M  V30 47 1 3 42
M  V30 48 1 4 43
M  V30 49 1 4 44
M  V30 50 1 6 45
M  V30 51 1 6 46
M  V30 52 1 7 47
M  V30 53 1 7 48
M  V30 54 1 8 49
M  V30 55 1 8 50
M  V30 56 1 11 51
M  V30 57 1 12 52
M  V30 58 1 14 53
M  V30 59 1 15 54
M  V30 60 1 24 55
M  V30 61 1 25 56
M  V30 62 1 26 57
M  V30 63 1 29 58
M  V30 64 1 33 59
M  V30 65 1 36 60
M  V30 66 1 36 61
M  V30 67 1 37 62
M  V30 68 1 37 63
M  V30 END BOND
M  V30 END CTAB
M  END
>  <Dataset>  (559) 
ChEMBL_Kinases

>  <Ligand_Instance>  (559) 
nan

>  <PDB_ID>  (559) 
nan

>  <Standardized_SMILES>  (559) 
CN1CCN(CCCn2c3ccc(O)cc3c3c4c(c(-c5c(Cl)cccc5Cl)cc32)C(=O)NC4=O)CC1

>  <Name>  (559) 
nan

>  <Pocket>  (559) 
nan

>  <ATP_Site>  (559) 
nan

>  <Peripheral>  (559) 
nan

>  <Num_H_Atoms_ProtBoundConf>  (559) 
nan

>  <Num_Resolved_Atoms>  (559) 
nan

>  <Num_Not_Resolved_Atoms>  (559) 
nan

$$$$
CHEMBL4646646
     RDKit          3D

  0  0  0  0  0  0  0  0  0  0999 V3000
M  V30 BEGIN CTAB
M  V30 COUNTS 64 66 0 0 0
M  V30 BEGIN ATOM
M  V30 1 C 2.712613 -2.789851 3.057335 0
M  V30 2 C 1.865129 -1.892865 3.967996 0
M  V30 3 C 2.512245 -1.747959 5.301843 0
M  V30 4 C 1.659191 -0.565517 3.297254 0
M  V30 5 C 2.299868 0.632818 3.404454 0
M  V30 6 N 1.695383 1.484247 2.571617 0
M  V30 7 N 0.689236 0.928730 1.912723 0
M  V30 8 C -0.174995 1.422496 0.980592 0
M  V30 9 N 0.042650 2.795410 0.681637 0
M  V30 10 C 1.102877 2.898309 -0.320622 0
M  V30 11 C 1.473378 4.301916 -0.589389 0
M  V30 12 C 0.984300 5.192904 -1.517431 0
M  V30 13 C 1.471262 6.482978 -1.612967 0
M  V30 14 C 2.469243 6.876856 -0.755487 0
M  V30 15 C 3.006378 6.045036 0.196324 0
M  V30 16 C 2.488663 4.765130 0.254823 0
M  V30 17 C -1.110552 0.533220 0.497771 0
M  V30 18 C -1.157717 -0.767656 0.937464 0
M  V30 19 N -2.124840 -1.678887 0.473431 0
M  V30 20 C -3.280126 -1.991111 -0.247558 0 CFG=1
M  V30 21 C -3.838909 -0.909720 -1.145002 0
M  V30 22 O -4.236677 0.186164 -0.424576 0
M  V30 23 C -3.274675 -3.298588 -1.020749 0
M  V30 24 C -2.184519 -3.384543 -2.062005 0
M  V30 25 C -2.237628 -4.699756 -2.808206 0
M  V30 26 C -2.089236 -5.912593 -1.977100 0
M  V30 27 C -0.791142 -6.026615 -1.234416 0
M  V30 28 N -0.536351 -4.940169 -0.319984 0
M  V30 29 N -0.258720 -1.142838 1.855022 0
M  V30 30 C 0.674885 -0.330137 2.365168 0
M  V30 31 H 2.441911 -3.845648 3.194462 0
M  V30 32 H 3.780522 -2.612984 3.142279 0
M  V30 33 H 2.398580 -2.466394 2.016317 0
M  V30 34 H 0.877691 -2.393775 4.043442 0
M  V30 35 H 1.828359 -1.791575 6.158331 0
M  V30 36 H 3.194246 -2.638700 5.421086 0
M  V30 37 H 3.198856 -0.876235 5.330214 0
M  V30 38 H 3.140619 0.792580 4.063710 0
M  V30 39 H -0.524729 3.531497 1.165211 0
M  V30 40 H 0.678371 2.389783 -1.236783 0
M  V30 41 H 1.989053 2.297589 -0.023439 0
M  V30 42 H 0.201485 4.760481 -2.134948 0
M  V30 43 H 1.031058 7.123585 -2.377700 0
M  V30 44 H 2.856302 7.881707 -0.824175 0
M  V30 45 H 3.797781 6.376648 0.871049 0
M  V30 46 H 2.956839 4.147241 1.040228 0
M  V30 47 H -1.745842 0.973141 -0.234856 0
M  V30 48 H -1.914800 -2.670293 0.819603 0
M  V30 49 H -4.113113 -2.135525 0.529238 0
M  V30 50 H -4.698314 -1.369445 -1.702654 0
M  V30 51 H -3.081580 -0.652205 -1.930509 0
M  V30 52 H -4.835222 -0.139652 0.312070 0
M  V30 53 H -3.210893 -4.194509 -0.357280 0
M  V30 54 H -4.273732 -3.379035 -1.520480 0
M  V30 55 H -1.185967 -3.123115 -1.677354 0
M  V30 56 H -2.400379 -2.598255 -2.845479 0
M  V30 57 H -3.203963 -4.695650 -3.386606 0
M  V30 58 H -1.428680 -4.681719 -3.567547 0
M  V30 59 H -2.125151 -6.797228 -2.677122 0
M  V30 60 H -2.916401 -6.086742 -1.260285 0
M  V30 61 H 0.099064 -6.140574 -1.896100 0
M  V30 62 H -0.780662 -6.958415 -0.581506 0
M  V30 63 H 0.462689 -5.061955 0.008151 0
M  V30 64 H -1.134746 -5.017414 0.533183 0
M  V30 END ATOM
M  V30 BEGIN BOND
M  V30 1 1 1 2
M  V30 2 1 2 3
M  V30 3 1 2 4
M  V30 4 1 4 5
M  V30 5 2 5 6
M  V30 6 1 6 7
M  V30 7 1 7 8
M  V30 8 1 8 9
M  V30 9 1 9 10
M  V30 10 1 10 11
M  V30 11 2 11 12
M  V30 12 1 12 13
M  V30 13 2 13 14
M  V30 14 1 14 15
M  V30 15 2 15 16
M  V30 16 2 8 17
M  V30 17 1 17 18
M  V30 18 1 18 19
M  V30 19 1 19 20
M  V30 20 1 20 21
M  V30 21 1 21 22
M  V30 22 1 20 23
M  V30 23 1 23 24
M  V30 24 1 24 25
M  V30 25 1 25 26
M  V30 26 1 26 27
M  V30 27 1 27 28
M  V30 28 2 18 29
M  V30 29 1 29 30
M  V30 30 2 30 4
M  V30 31 1 30 7
M  V30 32 1 16 11
M  V30 33 1 1 31
M  V30 34 1 1 32
M  V30 35 1 1 33
M  V30 36 1 2 34
M  V30 37 1 3 35
M  V30 38 1 3 36
M  V30 39 1 3 37
M  V30 40 1 5 38
M  V30 41 1 9 39
M  V30 42 1 10 40
M  V30 43 1 10 41
M  V30 44 1 12 42
M  V30 45 1 13 43
M  V30 46 1 14 44
M  V30 47 1 15 45
M  V30 48 1 16 46
M  V30 49 1 17 47
M  V30 50 1 19 48
M  V30 51 1 20 49 CFG=1
M  V30 52 1 21 50
M  V30 53 1 21 51
M  V30 54 1 22 52
M  V30 55 1 23 53
M  V30 56 1 23 54
M  V30 57 1 24 55
M  V30 58 1 24 56
M  V30 59 1 25 57
M  V30 60 1 25 58
M  V30 61 1 26 59
M  V30 62 1 26 60
M  V30 63 1 27 61
M  V30 64 1 27 62
M  V30 65 1 28 63
M  V30 66 1 28 64
M  V30 END BOND
M  V30 END CTAB
M  END
>  <Dataset>  (560) 
ChEMBL_Kinases

>  <Ligand_Instance>  (560) 
nan

>  <PDB_ID>  (560) 
nan

>  <Standardized_SMILES>  (560) 
CC(C)c1cnn2c(NCc3ccccc3)cc(N[C@@H](CO)CCCCCN)nc12

>  <Name>  (560) 
nan

>  <Pocket>  (560) 
nan

>  <ATP_Site>  (560) 
nan

>  <Peripheral>  (560) 
nan

>  <Num_H_Atoms_ProtBoundConf>  (560) 
nan

>  <Num_Resolved_Atoms>  (560) 
nan

>  <Num_Not_Resolved_Atoms>  (560) 
nan

$$$$
CHEMBL4643920
     RDKit          3D

  0  0  0  0  0  0  0  0  0  0999 V3000
M  V30 BEGIN CTAB
M  V30 COUNTS 52 55 0 0 0
M  V30 BEGIN ATOM
M  V30 1 C 1.317236 -4.504044 4.458970 0
M  V30 2 O 1.964950 -3.284654 4.306562 0
M  V30 3 C 3.170788 -3.401902 3.635708 0
M  V30 4 C 3.752231 -2.033615 3.543513 0
M  V30 5 C 4.604186 -1.472282 4.486204 0
M  V30 6 N 5.096898 -0.230867 4.349113 0
M  V30 7 C 4.786531 0.530990 3.287360 0
M  V30 8 C 3.950603 0.080569 2.288441 0
M  V30 9 C 3.549196 0.821898 1.093469 0
M  V30 10 C 4.343051 1.747966 0.443965 0
M  V30 11 C 3.855367 2.398853 -0.691640 0
M  V30 12 C 2.579606 2.143614 -1.198808 0
M  V30 13 N 1.892164 2.623080 -2.247528 0
M  V30 14 N 0.691660 2.039383 -2.292283 0
M  V30 15 C 0.593368 1.165725 -1.257708 0
M  V30 16 C -0.496156 0.282878 -0.851713 0
M  V30 17 O -0.447871 -0.501134 0.156122 0
M  V30 18 N -1.754017 0.168694 -1.509976 0
M  V30 19 C -2.547999 -0.821304 -0.781673 0
M  V30 20 C -3.893075 -0.956917 -1.466815 0
M  V30 21 C -4.638333 0.333527 -1.488346 0
M  V30 22 C -6.114179 0.126450 -1.313826 0
M  V30 23 O -6.480694 -0.995172 -2.046723 0
M  V30 24 C -6.120540 -2.094394 -1.271416 0
M  V30 25 C -4.683932 -2.110420 -0.895805 0
M  V30 26 C 1.779463 1.219848 -0.556332 0
M  V30 27 C 2.299180 0.606246 0.552937 0
M  V30 28 C 3.456933 -1.217088 2.465071 0
M  V30 29 H 0.364822 -4.344080 4.997594 0
M  V30 30 H 1.090686 -4.984205 3.484492 0
M  V30 31 H 1.968872 -5.137252 5.094314 0
M  V30 32 H 2.942444 -3.754397 2.587348 0
M  V30 33 H 3.832577 -4.098099 4.162817 0
M  V30 34 H 4.841017 -2.113181 5.341045 0
M  V30 35 H 5.164455 1.535432 3.142648 0
M  V30 36 H 5.329516 1.940184 0.844375 0
M  V30 37 H 4.513528 3.119122 -1.170393 0
M  V30 38 H 2.322805 3.339031 -2.869095 0
M  V30 39 H -1.906866 0.779264 -2.367197 0
M  V30 40 H -2.083454 -1.827344 -0.805523 0
M  V30 41 H -2.655369 -0.538788 0.283658 0
M  V30 42 H -3.687231 -1.241278 -2.528101 0
M  V30 43 H -4.237129 0.995089 -0.693492 0
M  V30 44 H -4.507327 0.906766 -2.442528 0
M  V30 45 H -6.670250 1.034936 -1.626566 0
M  V30 46 H -6.282489 -0.084826 -0.219818 0
M  V30 47 H -6.338857 -3.003595 -1.884140 0
M  V30 48 H -6.785729 -2.213724 -0.368305 0
M  V30 49 H -4.607098 -2.019791 0.213816 0
M  V30 50 H -4.205046 -3.083080 -1.161320 0
M  V30 51 H 1.664465 -0.110998 1.047158 0
M  V30 52 H 2.789386 -1.657657 1.724061 0
M  V30 END ATOM
M  V30 BEGIN BOND
M  V30 1 1 1 2
M  V30 2 1 2 3
M  V30 3 1 3 4
M  V30 4 2 4 5
M  V30 5 1 5 6
M  V30 6 2 6 7
M  V30 7 1 7 8
M  V30 8 1 8 9
M  V30 9 2 9 10
M  V30 10 1 10 11
M  V30 11 2 11 12
M  V30 12 1 12 13
M  V30 13 1 13 14
M  V30 14 2 14 15
M  V30 15 1 15 16
M  V30 16 2 16 17
M  V30 17 1 16 18
M  V30 18 1 18 19
M  V30 19 1 19 20
M  V30 20 1 20 21
M  V30 21 1 21 22
M  V30 22 1 22 23
M  V30 23 1 23 24
M  V30 24 1 24 25
M  V30 25 1 15 26
M  V30 26 2 26 27
M  V30 27 2 8 28
M  V30 28 1 28 4
M  V30 29 1 27 9
M  V30 30 1 26 12
M  V30 31 1 25 20
M  V30 32 1 1 29
M  V30 33 1 1 30
M  V30 34 1 1 31
M  V30 35 1 3 32
M  V30 36 1 3 33
M  V30 37 1 5 34
M  V30 38 1 7 35
M  V30 39 1 10 36
M  V30 40 1 11 37
M  V30 41 1 13 38
M  V30 42 1 18 39
M  V30 43 1 19 40
M  V30 44 1 19 41
M  V30 45 1 20 42
M  V30 46 1 21 43
M  V30 47 1 21 44
M  V30 48 1 22 45
M  V30 49 1 22 46
M  V30 50 1 24 47
M  V30 51 1 24 48
M  V30 52 1 25 49
M  V30 53 1 25 50
M  V30 54 1 27 51
M  V30 55 1 28 52
M  V30 END BOND
M  V30 END CTAB
M  END
>  <Dataset>  (561) 
ChEMBL_Kinases

>  <Ligand_Instance>  (561) 
nan

>  <PDB_ID>  (561) 
nan

>  <Standardized_SMILES>  (561) 
COCc1cncc(-c2ccc3[nH]nc(C(=O)NCC4CCOCC4)c3c2)c1

>  <Name>  (561) 
nan

>  <Pocket>  (561) 
nan

>  <ATP_Site>  (561) 
nan

>  <Peripheral>  (561) 
nan

>  <Num_H_Atoms_ProtBoundConf>  (561) 
nan

>  <Num_Resolved_Atoms>  (561) 
nan

>  <Num_Not_Resolved_Atoms>  (561) 
nan

$$$$
CHEMBL452062
     RDKit          3D

  0  0  0  0  0  0  0  0  0  0999 V3000
M  V30 BEGIN CTAB
M  V30 COUNTS 42 43 0 0 0
M  V30 BEGIN ATOM
M  V30 1 C -0.035472 -5.199106 -1.362096 0
M  V30 2 C 0.722116 -4.588084 -0.216879 0
M  V30 3 C -0.040094 -4.853790 1.059388 0
M  V30 4 C 1.045878 -3.165411 -0.436089 0
M  V30 5 O 2.201619 -2.645913 -0.491105 0
M  V30 6 O 0.196833 -2.116251 -0.623704 0
M  V30 7 C 0.590474 -0.781626 -0.827090 0
M  V30 8 C -0.636876 0.091970 -0.987063 0
M  V30 9 C -1.399598 -0.170507 -2.242825 0
M  V30 10 O -1.991819 -1.421455 -2.270237 0
M  V30 11 C -0.233887 1.573476 -0.878936 0
M  V30 12 C 0.116282 1.589818 0.567028 0
M  V30 13 C 0.900669 2.356743 1.269734 0
M  V30 14 C 1.240580 2.375001 2.685079 0
M  V30 15 C 2.604823 2.415244 2.996084 0
M  V30 16 C 3.081237 2.467920 4.294026 0
M  V30 17 C 2.135469 2.479803 5.324265 0
M  V30 18 F 2.616136 2.531126 6.587512 0
M  V30 19 C 0.779277 2.439219 4.996017 0
M  V30 20 C 0.335144 2.387666 3.689693 0
M  V30 21 C -0.576377 0.455716 1.204975 0
M  V30 22 O -0.399511 0.007220 2.393323 0
M  V30 23 O -1.447755 0.025315 0.178638 0
M  V30 24 H -1.146152 -5.098320 -1.274315 0
M  V30 25 H 0.174428 -6.293692 -1.366054 0
M  V30 26 H 0.315599 -4.829456 -2.341606 0
M  V30 27 H 1.682323 -5.165518 -0.133836 0
M  V30 28 H 0.361270 -4.323634 1.938058 0
M  V30 29 H -1.111445 -4.651297 0.964658 0
M  V30 30 H 0.049773 -5.964868 1.223940 0
M  V30 31 H 1.292379 -0.667927 -1.677540 0
M  V30 32 H 1.141644 -0.429369 0.067900 0
M  V30 33 H -2.214121 0.575551 -2.329396 0
M  V30 34 H -0.756746 -0.037029 -3.135949 0
M  V30 35 H -1.539998 -1.991083 -2.932143 0
M  V30 36 H -1.109348 2.174567 -1.122289 0
M  V30 37 H 0.596231 1.765050 -1.558434 0
M  V30 38 H 1.420289 3.156573 0.712021 0
M  V30 39 H 3.364532 2.406575 2.218940 0
M  V30 40 H 4.162309 2.498084 4.488172 0
M  V30 41 H 0.094231 2.452647 5.844839 0
M  V30 42 H -0.717455 2.376503 3.535010 0
M  V30 END ATOM
M  V30 BEGIN BOND
M  V30 1 1 1 2
M  V30 2 1 2 3
M  V30 3 1 2 4
M  V30 4 2 4 5
M  V30 5 1 4 6
M  V30 6 1 6 7
M  V30 7 1 7 8
M  V30 8 1 8 9
M  V30 9 1 9 10
M  V30 10 1 8 11
M  V30 11 1 11 12
M  V30 12 2 12 13
M  V30 13 1 13 14
M  V30 14 2 14 15
M  V30 15 1 15 16
M  V30 16 2 16 17
M  V30 17 1 17 18
M  V30 18 1 17 19
M  V30 19 2 19 20
M  V30 20 1 12 21
M  V30 21 2 21 22
M  V30 22 1 21 23
M  V30 23 1 23 8
M  V30 24 1 20 14
M  V30 25 1 1 24
M  V30 26 1 1 25
M  V30 27 1 1 26
M  V30 28 1 2 27
M  V30 29 1 3 28
M  V30 30 1 3 29
M  V30 31 1 3 30
M  V30 32 1 7 31
M  V30 33 1 7 32
M  V30 34 1 9 33
M  V30 35 1 9 34
M  V30 36 1 10 35
M  V30 37 1 11 36
M  V30 38 1 11 37
M  V30 39 1 13 38
M  V30 40 1 15 39
M  V30 41 1 16 40
M  V30 42 1 19 41
M  V30 43 1 20 42
M  V30 END BOND
M  V30 END CTAB
M  END
>  <Dataset>  (562) 
ChEMBL_Kinases

>  <Ligand_Instance>  (562) 
nan

>  <PDB_ID>  (562) 
nan

>  <Standardized_SMILES>  (562) 
CC(C)C(=O)OCC1(CO)C/C(=C/c2ccc(F)cc2)C(=O)O1

>  <Name>  (562) 
nan

>  <Pocket>  (562) 
nan

>  <ATP_Site>  (562) 
nan

>  <Peripheral>  (562) 
nan

>  <Num_H_Atoms_ProtBoundConf>  (562) 
nan

>  <Num_Resolved_Atoms>  (562) 
nan

>  <Num_Not_Resolved_Atoms>  (562) 
nan

$$$$
CHEMBL4646772
     RDKit          3D

  0  0  0  0  0  0  0  0  0  0999 V3000
M  V30 BEGIN CTAB
M  V30 COUNTS 54 58 0 0 0
M  V30 BEGIN ATOM
M  V30 1 N 1.272862 -0.797871 3.051213 0
M  V30 2 C 2.451598 -0.921986 2.881516 0
M  V30 3 C 3.978118 -1.068005 2.694437 0
M  V30 4 C 4.636185 -2.080894 3.362112 0
M  V30 5 C 5.986211 -2.176896 2.968336 0
M  V30 6 C 6.619462 -1.397192 2.024585 0
M  V30 7 C 5.870122 -0.395847 1.391495 0
M  V30 8 C 4.615442 -0.243238 1.723050 0
M  V30 9 N 3.887356 0.818220 1.199190 0
M  V30 10 C 3.155347 1.886924 0.669650 0
M  V30 11 N 2.588199 3.093624 0.773790 0
M  V30 12 C 1.616564 3.147365 -0.149795 0
M  V30 13 C 0.536715 3.874251 -0.339113 0
M  V30 14 C -0.640527 3.806231 -1.025520 0
M  V30 15 C -0.464506 2.617969 -1.641063 0
M  V30 16 C -1.664390 1.609218 -1.740533 0
M  V30 17 C -2.376239 1.856926 -0.479965 0
M  V30 18 C -3.260254 0.994775 -0.013017 0
M  V30 19 C -3.613507 -0.112254 -0.580927 0
M  V30 20 C -4.337591 -1.386792 -0.330238 0
M  V30 21 O -4.993119 -2.219675 -0.904070 0
M  V30 22 N -4.000889 -1.502661 1.132549 0
M  V30 23 C -4.489219 -2.853595 1.745064 0
M  V30 24 C -3.466318 -3.770451 1.106159 0
M  V30 25 C -3.874676 -4.522995 0.006964 0
M  V30 26 C -2.701417 -5.081904 -0.600006 0
M  V30 27 C -1.408549 -4.910672 -0.200832 0
M  V30 28 C -1.115148 -4.134711 0.913819 0
M  V30 29 C -2.202308 -3.567635 1.549357 0
M  V30 30 C -2.954186 -0.352631 -1.796138 0
M  V30 31 C -1.966685 0.417331 -2.481182 0
M  V30 32 C 0.493290 1.535568 -1.782440 0
M  V30 33 N 1.583800 1.937407 -0.896651 0
M  V30 34 N 2.589977 1.112783 -0.382303 0
M  V30 35 H 4.142923 -2.627330 4.093924 0
M  V30 36 H 6.407374 -2.948216 3.585870 0
M  V30 37 H 7.623970 -1.703520 1.960331 0
M  V30 38 H 6.400752 0.153675 0.668071 0
M  V30 39 H 3.560090 1.170287 2.156447 0
M  V30 40 H 0.501781 4.851669 0.244170 0
M  V30 41 H -1.564325 4.231836 -1.264781 0
M  V30 42 H -2.243053 2.716839 0.211683 0
M  V30 43 H -3.809697 1.072834 0.931684 0
M  V30 44 H -3.574618 -0.929971 1.844282 0
M  V30 45 H -4.271774 -2.819862 2.781630 0
M  V30 46 H -5.455865 -3.112807 1.434820 0
M  V30 47 H -4.860148 -4.709552 -0.285250 0
M  V30 48 H -2.985282 -5.660374 -1.440822 0
M  V30 49 H -0.710840 -5.407107 -0.825236 0
M  V30 50 H -0.084155 -4.074603 1.111855 0
M  V30 51 H -1.817255 -2.997828 2.407048 0
M  V30 52 H -3.037070 -1.137025 -2.522422 0
M  V30 53 H -1.318398 0.620057 -3.276311 0
M  V30 54 H 0.634829 0.576858 -2.257786 0
M  V30 END ATOM
M  V30 BEGIN BOND
M  V30 1 3 1 2
M  V30 2 1 2 3
M  V30 3 2 3 4
M  V30 4 1 4 5
M  V30 5 2 5 6
M  V30 6 1 6 7
M  V30 7 2 7 8
M  V30 8 1 8 9
M  V30 9 1 9 10
M  V30 10 1 10 11
M  V30 11 2 11 12
M  V30 12 1 12 13
M  V30 13 2 13 14
M  V30 14 1 14 15
M  V30 15 1 15 16
M  V30 16 2 16 17
M  V30 17 1 17 18
M  V30 18 2 18 19
M  V30 19 1 19 20
M  V30 20 2 20 21
M  V30 21 1 20 22
M  V30 22 1 22 23
M  V30 23 1 23 24
M  V30 24 2 24 25
M  V30 25 1 25 26
M  V30 26 2 26 27
M  V30 27 1 27 28
M  V30 28 2 28 29
M  V30 29 1 19 30
M  V30 30 2 30 31
M  V30 31 2 15 32
M  V30 32 1 32 33
M  V30 33 1 33 34
M  V30 34 1 8 3
M  V30 35 2 34 10
M  V30 36 1 33 12
M  V30 37 1 31 16
M  V30 38 1 29 24
M  V30 39 1 4 35
M  V30 40 1 5 36
M  V30 41 1 6 37
M  V30 42 1 7 38
M  V30 43 1 9 39
M  V30 44 1 13 40
M  V30 45 1 14 41
M  V30 46 1 17 42
M  V30 47 1 18 43
M  V30 48 1 22 44
M  V30 49 1 23 45
M  V30 50 1 23 46
M  V30 51 1 25 47
M  V30 52 1 26 48
M  V30 53 1 27 49
M  V30 54 1 28 50
M  V30 55 1 29 51
M  V30 56 1 30 52
M  V30 57 1 31 53
M  V30 58 1 32 54
M  V30 END BOND
M  V30 END CTAB
M  END
>  <Dataset>  (563) 
ChEMBL_Kinases

>  <Ligand_Instance>  (563) 
nan

>  <PDB_ID>  (563) 
nan

>  <Standardized_SMILES>  (563) 
N#Cc1ccccc1Nc1nc2ccc(-c3ccc(C(=O)NCc4ccccc4)cc3)cn2n1

>  <Name>  (563) 
nan

>  <Pocket>  (563) 
nan

>  <ATP_Site>  (563) 
nan

>  <Peripheral>  (563) 
nan

>  <Num_H_Atoms_ProtBoundConf>  (563) 
nan

>  <Num_Resolved_Atoms>  (563) 
nan

>  <Num_Not_Resolved_Atoms>  (563) 
nan

$$$$
CHEMBL452060
     RDKit          3D

  0  0  0  0  0  0  0  0  0  0999 V3000
M  V30 BEGIN CTAB
M  V30 COUNTS 70 72 0 0 0
M  V30 BEGIN ATOM
M  V30 1 C 4.979800 0.494633 3.352241 0
M  V30 2 C 4.552802 1.880359 2.881457 0
M  V30 3 C 4.331519 2.821798 4.043135 0
M  V30 4 C 3.273071 1.754954 2.098110 0
M  V30 5 C 2.117467 1.215883 2.634554 0
M  V30 6 C 0.940548 1.110603 1.869045 0
M  V30 7 C -0.133644 0.617761 2.702270 0
M  V30 8 C -0.294804 1.686219 3.833762 0
M  V30 9 C -1.485171 0.407571 2.133916 0
M  V30 10 C 0.963972 1.553120 0.569351 0
M  V30 11 C -0.205486 1.358536 -0.283619 0
M  V30 12 O -1.226043 2.017622 -0.464481 0
M  V30 13 O -0.414454 0.368157 -1.098521 0
M  V30 14 C -0.623487 -0.621649 -1.913066 0
M  V30 15 C -1.817156 -1.490978 -1.657123 0
M  V30 16 C -3.066071 -0.653040 -1.841850 0
M  V30 17 O -4.218354 -1.450688 -1.767806 0
M  V30 18 C -1.912925 -2.605518 -2.711654 0
M  V30 19 C -2.445267 -3.728996 -1.886025 0
M  V30 20 C -3.283171 -4.744707 -2.171574 0
M  V30 21 C -3.680315 -5.753422 -1.181625 0
M  V30 22 C -4.043388 -5.349665 0.107373 0
M  V30 23 C -4.411827 -6.246208 1.087797 0
M  V30 24 C -4.432893 -7.598359 0.815768 0
M  V30 25 C -4.077766 -8.002490 -0.450433 0
M  V30 26 C -3.709265 -7.106886 -1.430597 0
M  V30 27 C -1.793099 -3.520127 -0.574709 0
M  V30 28 O -1.413545 -4.535188 0.116861 0
M  V30 29 O -1.760754 -2.143345 -0.425454 0
M  V30 30 C 2.079188 2.104496 -0.032323 0
M  V30 31 C 2.209827 2.613393 -1.378655 0
M  V30 32 C 1.689964 4.060605 -1.393707 0
M  V30 33 C 1.701345 1.852253 -2.533282 0
M  V30 34 C 3.210200 2.173541 0.803906 0
M  V30 35 H 5.866343 0.196442 2.791131 0
M  V30 36 H 4.165490 -0.245114 3.096168 0
M  V30 37 H 5.189253 0.482054 4.440829 0
M  V30 38 H 5.326219 2.335628 2.231756 0
M  V30 39 H 5.259824 3.368757 4.338839 0
M  V30 40 H 3.587308 3.568152 3.740946 0
M  V30 41 H 3.955564 2.223215 4.907772 0
M  V30 42 H 2.255631 0.900563 3.683849 0
M  V30 43 H 0.164978 -0.294407 3.250702 0
M  V30 44 H -1.251195 1.387914 4.356244 0
M  V30 45 H -0.370237 2.681706 3.398345 0
M  V30 46 H 0.518027 1.497606 4.528711 0
M  V30 47 H -2.130256 -0.135954 2.891409 0
M  V30 48 H -1.986094 1.422394 2.129820 0
M  V30 49 H -1.608913 -0.137782 1.229956 0
M  V30 50 H -0.618065 -0.340569 -3.024183 0
M  V30 51 H 0.297972 -1.325712 -1.897619 0
M  V30 52 H -3.030629 -0.234453 -2.859568 0
M  V30 53 H -3.087919 0.164458 -1.121457 0
M  V30 54 H -4.771930 -1.374708 -2.570779 0
M  V30 55 H -0.885060 -2.872330 -3.001537 0
M  V30 56 H -2.575802 -2.326267 -3.553108 0
M  V30 57 H -3.657442 -4.778756 -3.198793 0
M  V30 58 H -4.073692 -4.318664 0.427922 0
M  V30 59 H -4.694304 -5.925422 2.095055 0
M  V30 60 H -4.723597 -8.289442 1.594347 0
M  V30 61 H -4.110724 -9.072076 -0.613791 0
M  V30 62 H -3.437302 -7.451434 -2.409060 0
M  V30 63 H 3.315098 2.779695 -1.604686 0
M  V30 64 H 2.243161 4.569534 -0.552840 0
M  V30 65 H 0.594973 4.084265 -1.266582 0
M  V30 66 H 2.031584 4.549567 -2.325421 0
M  V30 67 H 1.850949 0.776558 -2.508440 0
M  V30 68 H 2.258093 2.159147 -3.483553 0
M  V30 69 H 0.671314 2.198571 -2.774866 0
M  V30 70 H 4.142333 2.602304 0.397947 0
M  V30 END ATOM
M  V30 BEGIN BOND
M  V30 1 1 1 2
M  V30 2 1 2 3
M  V30 3 1 2 4
M  V30 4 2 4 5
M  V30 5 1 5 6
M  V30 6 1 6 7
M  V30 7 1 7 8
M  V30 8 1 7 9
M  V30 9 2 6 10
M  V30 10 1 10 11
M  V30 11 2 11 12
M  V30 12 1 11 13
M  V30 13 1 13 14
M  V30 14 1 14 15
M  V30 15 1 15 16
M  V30 16 1 16 17
M  V30 17 1 15 18
M  V30 18 1 18 19
M  V30 19 2 19 20
M  V30 20 1 20 21
M  V30 21 2 21 22
M  V30 22 1 22 23
M  V30 23 2 23 24
M  V30 24 1 24 25
M  V30 25 2 25 26
M  V30 26 1 19 27
M  V30 27 2 27 28
M  V30 28 1 27 29
M  V30 29 1 10 30
M  V30 30 1 30 31
M  V30 31 1 31 32
M  V30 32 1 31 33
M  V30 33 2 30 34
M  V30 34 1 34 4
M  V30 35 1 29 15
M  V30 36 1 26 21
M  V30 37 1 1 35
M  V30 38 1 1 36
M  V30 39 1 1 37
M  V30 40 1 2 38
M  V30 41 1 3 39
M  V30 42 1 3 40
M  V30 43 1 3 41
M  V30 44 1 5 42
M  V30 45 1 7 43
M  V30 46 1 8 44
M  V30 47 1 8 45
M  V30 48 1 8 46
M  V30 49 1 9 47
M  V30 50 1 9 48
M  V30 51 1 9 49
M  V30 52 1 14 50
M  V30 53 1 14 51
M  V30 54 1 16 52
M  V30 55 1 16 53
M  V30 56 1 17 54
M  V30 57 1 18 55
M  V30 58 1 18 56
M  V30 59 1 20 57
M  V30 60 1 22 58
M  V30 61 1 23 59
M  V30 62 1 24 60
M  V30 63 1 25 61
M  V30 64 1 26 62
M  V30 65 1 31 63
M  V30 66 1 32 64
M  V30 67 1 32 65
M  V30 68 1 32 66
M  V30 69 1 33 67
M  V30 70 1 33 68
M  V30 71 1 33 69
M  V30 72 1 34 70
M  V30 END BOND
M  V30 END CTAB
M  END
>  <Dataset>  (564) 
ChEMBL_Kinases

>  <Ligand_Instance>  (564) 
nan

>  <PDB_ID>  (564) 
nan

>  <Standardized_SMILES>  (564) 
CC(C)c1cc(C(C)C)c(C(=O)OCC2(CO)C/C(=C/c3ccccc3)C(=O)O2)c(C(C)C)c1

>  <Name>  (564) 
nan

>  <Pocket>  (564) 
nan

>  <ATP_Site>  (564) 
nan

>  <Peripheral>  (564) 
nan

>  <Num_H_Atoms_ProtBoundConf>  (564) 
nan

>  <Num_Resolved_Atoms>  (564) 
nan

>  <Num_Not_Resolved_Atoms>  (564) 
nan

$$$$
CHEMBL4520598
     RDKit          3D

  0  0  0  0  0  0  0  0  0  0999 V3000
M  V30 BEGIN CTAB
M  V30 COUNTS 50 53 0 0 0
M  V30 BEGIN ATOM
M  V30 1 C 0.719993 0.417277 -2.654843 0
M  V30 2 C 1.905846 -0.081810 -1.913745 0
M  V30 3 C 2.955460 -0.551722 -2.668303 0
M  V30 4 C 4.085981 -1.022923 -2.033003 0
M  V30 5 C 4.110999 -1.000490 -0.653879 0
M  V30 6 N 5.229765 -1.458652 -0.089930 0
M  V30 7 C 5.328141 -1.460138 1.247629 0
M  V30 8 N 4.327255 -1.011747 2.022660 0
M  V30 9 C 3.151737 -0.527729 1.525841 0
M  V30 10 C 2.002945 -0.046287 2.343373 0
M  V30 11 C 1.838670 1.439452 2.368911 0
M  V30 12 C 0.449792 1.932718 2.592199 0
M  V30 13 N -0.589768 1.089878 2.137318 0
M  V30 14 C -1.687832 1.303286 1.227912 0
M  V30 15 O -1.875070 2.408608 0.655030 0
M  V30 16 C -2.600291 0.198984 0.972593 0
M  V30 17 C -2.258888 -0.488936 -0.185665 0
M  V30 18 C -3.005360 -1.590131 -0.606197 0
M  V30 19 C -4.098653 -1.987158 0.156500 0
M  V30 20 O -4.896905 -3.073099 -0.186546 0
M  V30 21 C -4.606458 -4.382977 0.275426 0
M  V30 22 F -4.612195 -4.469791 1.655008 0
M  V30 23 F -3.370452 -4.841861 -0.170372 0
M  V30 24 F -5.557537 -5.258714 -0.195228 0
M  V30 25 C -4.420427 -1.284571 1.309158 0
M  V30 26 C -3.683853 -0.195006 1.726903 0
M  V30 27 C -0.426273 -0.191185 2.754480 0
M  V30 28 C 0.806667 -0.912788 2.318746 0
M  V30 29 C 3.062720 -0.530880 0.145552 0
M  V30 30 C 1.965158 -0.074596 -0.536157 0
M  V30 31 H 0.121613 -0.442460 -2.963913 0
M  V30 32 H 1.086766 0.918695 -3.588982 0
M  V30 33 H 0.158462 1.197378 -2.099755 0
M  V30 34 H 2.922920 -0.563382 -3.750902 0
M  V30 35 H 4.918766 -1.395343 -2.605709 0
M  V30 36 H 6.189308 -1.809865 1.802499 0
M  V30 37 H 2.401520 -0.222802 3.404047 0
M  V30 38 H 2.223913 1.898926 1.414139 0
M  V30 39 H 2.474244 1.971646 3.114545 0
M  V30 40 H 0.329650 2.948591 2.167740 0
M  V30 41 H 0.249067 2.093841 3.695719 0
M  V30 42 H -1.441175 -0.288876 -0.863759 0
M  V30 43 H -2.834765 -2.190366 -1.477115 0
M  V30 44 H -5.271351 -1.562360 1.938443 0
M  V30 45 H -3.863726 0.400896 2.601049 0
M  V30 46 H -0.419175 -0.091603 3.848831 0
M  V30 47 H -1.286361 -0.874131 2.485422 0
M  V30 48 H 0.900481 -1.747110 3.086954 0
M  V30 49 H 0.647414 -1.529577 1.404931 0
M  V30 50 H 1.142783 0.299452 0.013709 0
M  V30 END ATOM
M  V30 BEGIN BOND
M  V30 1 1 1 2
M  V30 2 2 2 3
M  V30 3 1 3 4
M  V30 4 2 4 5
M  V30 5 1 5 6
M  V30 6 2 6 7
M  V30 7 1 7 8
M  V30 8 2 8 9
M  V30 9 1 9 10
M  V30 10 1 10 11
M  V30 11 1 11 12
M  V30 12 1 12 13
M  V30 13 1 13 14
M  V30 14 2 14 15
M  V30 15 1 14 16
M  V30 16 2 16 17
M  V30 17 1 17 18
M  V30 18 2 18 19
M  V30 19 1 19 20
M  V30 20 1 20 21
M  V30 21 1 21 22
M  V30 22 1 21 23
M  V30 23 1 21 24
M  V30 24 1 19 25
M  V30 25 2 25 26
M  V30 26 1 13 27
M  V30 27 1 27 28
M  V30 28 1 9 29
M  V30 29 2 29 30
M  V30 30 1 30 2
M  V30 31 1 29 5
M  V30 32 1 28 10
M  V30 33 1 26 16
M  V30 34 1 1 31
M  V30 35 1 1 32
M  V30 36 1 1 33
M  V30 37 1 3 34
M  V30 38 1 4 35
M  V30 39 1 7 36
M  V30 40 1 10 37
M  V30 41 1 11 38
M  V30 42 1 11 39
M  V30 43 1 12 40
M  V30 44 1 12 41
M  V30 45 1 17 42
M  V30 46 1 18 43
M  V30 47 1 25 44
M  V30 48 1 26 45
M  V30 49 1 27 46
M  V30 50 1 27 47
M  V30 51 1 28 48
M  V30 52 1 28 49
M  V30 53 1 30 50
M  V30 END BOND
M  V30 END CTAB
M  END
>  <Dataset>  (565) 
ChEMBL_Kinases

>  <Ligand_Instance>  (565) 
nan

>  <PDB_ID>  (565) 
nan

>  <Standardized_SMILES>  (565) 
Cc1ccc2ncnc(C3CCN(C(=O)c4ccc(OC(F)(F)F)cc4)CC3)c2c1

>  <Name>  (565) 
nan

>  <Pocket>  (565) 
nan

>  <ATP_Site>  (565) 
nan

>  <Peripheral>  (565) 
nan

>  <Num_H_Atoms_ProtBoundConf>  (565) 
nan

>  <Num_Resolved_Atoms>  (565) 
nan

>  <Num_Not_Resolved_Atoms>  (565) 
nan

$$$$
CHEMBL452059
     RDKit          3D

  0  0  0  0  0  0  0  0  0  0999 V3000
M  V30 BEGIN CTAB
M  V30 COUNTS 52 54 0 0 0
M  V30 BEGIN ATOM
M  V30 1 C -0.914518 -6.084011 -3.152917 0
M  V30 2 C -0.076804 -4.938375 -2.674362 0
M  V30 3 C -0.042557 -3.834615 -3.496111 0
M  V30 4 C 0.753163 -2.801277 -3.006635 0
M  V30 5 C 0.898159 -1.544314 -3.758160 0
M  V30 6 C 1.424398 -2.920179 -1.806483 0
M  V30 7 C 2.276762 -1.848736 -1.270007 0
M  V30 8 O 3.400048 -1.336943 -1.194264 0
M  V30 9 O 1.444570 -1.021418 -0.480672 0
M  V30 10 C 2.004068 0.123694 0.187153 0
M  V30 11 C 0.905083 0.812810 0.944447 0
M  V30 12 C -0.137965 1.272841 -0.039624 0
M  V30 13 O 0.439627 2.177714 -0.934504 0
M  V30 14 C 1.354729 1.989515 1.769349 0
M  V30 15 C 0.191013 2.067734 2.736003 0
M  V30 16 C -0.532835 3.020781 3.283413 0
M  V30 17 C -1.632836 2.768177 4.209760 0
M  V30 18 C -2.530462 1.774748 3.790101 0
M  V30 19 C -3.597890 1.442504 4.590729 0
M  V30 20 C -3.851172 2.046501 5.825754 0
M  V30 21 C -2.939359 3.021209 6.199515 0
M  V30 22 C -1.850125 3.376630 5.406851 0
M  V30 23 C 0.023483 0.626532 3.019895 0
M  V30 24 O -0.381696 0.145870 4.144098 0
M  V30 25 O 0.374613 -0.106312 1.881381 0
M  V30 26 C 1.340817 -4.061472 -1.037070 0
M  V30 27 C 2.085818 -4.157247 0.255066 0
M  V30 28 C 0.561504 -5.126845 -1.473444 0
M  V30 29 H -0.351652 -6.674656 -3.877406 0
M  V30 30 H -1.240254 -6.729276 -2.297729 0
M  V30 31 H -1.855388 -5.650880 -3.558614 0
M  V30 32 H -0.577902 -3.765355 -4.431082 0
M  V30 33 H 0.916234 -1.800188 -4.838121 0
M  V30 34 H 0.008634 -0.856824 -3.635243 0
M  V30 35 H 1.834917 -1.012871 -3.556647 0
M  V30 36 H 2.571364 0.766372 -0.498683 0
M  V30 37 H 2.710820 -0.302212 0.946871 0
M  V30 38 H -0.966243 1.754872 0.514698 0
M  V30 39 H -0.473108 0.351555 -0.569047 0
M  V30 40 H 0.708362 1.660513 -1.735259 0
M  V30 41 H 1.331719 2.884652 1.115112 0
M  V30 42 H 2.313808 1.836311 2.281679 0
M  V30 43 H -0.196861 4.014206 2.951328 0
M  V30 44 H -2.510949 1.192432 2.852347 0
M  V30 45 H -4.328302 0.682056 4.320040 0
M  V30 46 H -4.692029 1.778529 6.447493 0
M  V30 47 H -3.089904 3.528862 7.160061 0
M  V30 48 H -1.134259 4.134340 5.688791 0
M  V30 49 H 1.795307 -5.046003 0.833190 0
M  V30 50 H 3.179238 -4.206671 -0.032802 0
M  V30 51 H 1.962307 -3.277091 0.897314 0
M  V30 52 H 0.458841 -6.044731 -0.913864 0
M  V30 END ATOM
M  V30 BEGIN BOND
M  V30 1 1 1 2
M  V30 2 2 2 3
M  V30 3 1 3 4
M  V30 4 1 4 5
M  V30 5 2 4 6
M  V30 6 1 6 7
M  V30 7 2 7 8
M  V30 8 1 7 9
M  V30 9 1 9 10
M  V30 10 1 10 11
M  V30 11 1 11 12
M  V30 12 1 12 13
M  V30 13 1 11 14
M  V30 14 1 14 15
M  V30 15 2 15 16
M  V30 16 1 16 17
M  V30 17 2 17 18
M  V30 18 1 18 19
M  V30 19 2 19 20
M  V30 20 1 20 21
M  V30 21 2 21 22
M  V30 22 1 15 23
M  V30 23 2 23 24
M  V30 24 1 23 25
M  V30 25 1 6 26
M  V30 26 1 26 27
M  V30 27 2 26 28
M  V30 28 1 28 2
M  V30 29 1 25 11
M  V30 30 1 22 17
M  V30 31 1 1 29
M  V30 32 1 1 30
M  V30 33 1 1 31
M  V30 34 1 3 32
M  V30 35 1 5 33
M  V30 36 1 5 34
M  V30 37 1 5 35
M  V30 38 1 10 36
M  V30 39 1 10 37
M  V30 40 1 12 38
M  V30 41 1 12 39
M  V30 42 1 13 40
M  V30 43 1 14 41
M  V30 44 1 14 42
M  V30 45 1 16 43
M  V30 46 1 18 44
M  V30 47 1 19 45
M  V30 48 1 20 46
M  V30 49 1 21 47
M  V30 50 1 22 48
M  V30 51 1 27 49
M  V30 52 1 27 50
M  V30 53 1 27 51
M  V30 54 1 28 52
M  V30 END BOND
M  V30 END CTAB
M  END
>  <Dataset>  (566) 
ChEMBL_Kinases

>  <Ligand_Instance>  (566) 
nan

>  <PDB_ID>  (566) 
nan

>  <Standardized_SMILES>  (566) 
Cc1cc(C)c(C(=O)OCC2(CO)C/C(=C/c3ccccc3)C(=O)O2)c(C)c1

>  <Name>  (566) 
nan

>  <Pocket>  (566) 
nan

>  <ATP_Site>  (566) 
nan

>  <Peripheral>  (566) 
nan

>  <Num_H_Atoms_ProtBoundConf>  (566) 
nan

>  <Num_Resolved_Atoms>  (566) 
nan

>  <Num_Not_Resolved_Atoms>  (566) 
nan

$$$$
CHEMBL452058
     RDKit          3D

  0  0  0  0  0  0  0  0  0  0999 V3000
M  V30 BEGIN CTAB
M  V30 COUNTS 46 48 0 0 0
M  V30 BEGIN ATOM
M  V30 1 C -0.115352 -2.297503 -0.611383 0
M  V30 2 C 0.969983 -2.704116 -1.500310 0
M  V30 3 C 0.810461 -3.809850 -2.305984 0
M  V30 4 C 1.871011 -4.136029 -3.121951 0
M  V30 5 C 3.063378 -3.424026 -3.171818 0
M  V30 6 C 3.157198 -2.329702 -2.340939 0
M  V30 7 C 2.122747 -1.954948 -1.499549 0
M  V30 8 C 2.426098 -0.796156 -0.722162 0
M  V30 9 O 3.478664 -0.115370 -0.727183 0
M  V30 10 O 1.888092 0.015194 0.219094 0
M  V30 11 C 2.550532 1.136067 0.774787 0
M  V30 12 C 1.645310 1.798708 1.793274 0
M  V30 13 C 2.295067 3.049358 2.352538 0
M  V30 14 O 1.408016 3.572889 3.282803 0
M  V30 15 C 1.335182 0.810341 2.870945 0
M  V30 16 C -0.087054 0.478126 2.604075 0
M  V30 17 C -0.873059 -0.589513 2.829928 0
M  V30 18 C -2.281932 -0.709276 2.472950 0
M  V30 19 C -2.634236 -0.290625 1.184780 0
M  V30 20 C -3.934431 -0.343485 0.738332 0
M  V30 21 C -4.938317 -0.824712 1.578964 0
M  V30 22 C -4.568671 -1.232422 2.844158 0
M  V30 23 C -3.256524 -1.191451 3.328800 0
M  V30 24 C -0.627642 1.707907 1.980898 0
M  V30 25 O -1.817708 2.132620 2.167087 0
M  V30 26 O 0.431540 2.223973 1.204807 0
M  V30 27 H -0.367198 -3.203936 0.013881 0
M  V30 28 H 0.177382 -1.520396 0.090709 0
M  V30 29 H -1.067148 -2.036428 -1.161596 0
M  V30 30 H -0.100811 -4.387737 -2.294746 0
M  V30 31 H 1.751155 -4.999506 -3.753049 0
M  V30 32 H 3.859488 -3.731505 -3.834567 0
M  V30 33 H 4.114911 -1.809420 -2.424936 0
M  V30 34 H 3.508660 0.830269 1.238165 0
M  V30 35 H 2.814191 1.815080 -0.054909 0
M  V30 36 H 2.354509 3.776943 1.508948 0
M  V30 37 H 3.296991 2.836058 2.806952 0
M  V30 38 H 1.597110 3.344230 4.216173 0
M  V30 39 H 2.012147 -0.067501 2.814726 0
M  V30 40 H 1.459281 1.298650 3.844172 0
M  V30 41 H -0.340006 -1.408275 3.332769 0
M  V30 42 H -1.982820 0.095411 0.412004 0
M  V30 43 H -4.287539 -0.040889 -0.237608 0
M  V30 44 H -5.971668 -0.883699 1.269128 0
M  V30 45 H -5.288539 -1.623950 3.571753 0
M  V30 46 H -2.970154 -1.505868 4.302992 0
M  V30 END ATOM
M  V30 BEGIN BOND
M  V30 1 1 1 2
M  V30 2 2 2 3
M  V30 3 1 3 4
M  V30 4 2 4 5
M  V30 5 1 5 6
M  V30 6 2 6 7
M  V30 7 1 7 8
M  V30 8 2 8 9
M  V30 9 1 8 10
M  V30 10 1 10 11
M  V30 11 1 11 12
M  V30 12 1 12 13
M  V30 13 1 13 14
M  V30 14 1 12 15
M  V30 15 1 15 16
M  V30 16 2 16 17
M  V30 17 1 17 18
M  V30 18 2 18 19
M  V30 19 1 19 20
M  V30 20 2 20 21
M  V30 21 1 21 22
M  V30 22 2 22 23
M  V30 23 1 16 24
M  V30 24 2 24 25
M  V30 25 1 24 26
M  V30 26 1 7 2
M  V30 27 1 26 12
M  V30 28 1 23 18
M  V30 29 1 1 27
M  V30 30 1 1 28
M  V30 31 1 1 29
M  V30 32 1 3 30
M  V30 33 1 4 31
M  V30 34 1 5 32
M  V30 35 1 6 33
M  V30 36 1 11 34
M  V30 37 1 11 35
M  V30 38 1 13 36
M  V30 39 1 13 37
M  V30 40 1 14 38
M  V30 41 1 15 39
M  V30 42 1 15 40
M  V30 43 1 17 41
M  V30 44 1 19 42
M  V30 45 1 20 43
M  V30 46 1 21 44
M  V30 47 1 22 45
M  V30 48 1 23 46
M  V30 END BOND
M  V30 END CTAB
M  END
>  <Dataset>  (567) 
ChEMBL_Kinases

>  <Ligand_Instance>  (567) 
nan

>  <PDB_ID>  (567) 
nan

>  <Standardized_SMILES>  (567) 
Cc1ccccc1C(=O)OCC1(CO)C/C(=C/c2ccccc2)C(=O)O1

>  <Name>  (567) 
nan

>  <Pocket>  (567) 
nan

>  <ATP_Site>  (567) 
nan

>  <Peripheral>  (567) 
nan

>  <Num_H_Atoms_ProtBoundConf>  (567) 
nan

>  <Num_Resolved_Atoms>  (567) 
nan

>  <Num_Not_Resolved_Atoms>  (567) 
nan

$$$$
CHEMBL4520531
     RDKit          3D

  0  0  0  0  0  0  0  0  0  0999 V3000
M  V30 BEGIN CTAB
M  V30 COUNTS 40 43 0 0 0
M  V30 BEGIN ATOM
M  V30 1 O 1.212133 -7.196506 3.808653 0
M  V30 2 C 0.640359 -6.469742 2.955837 0
M  V30 3 O 0.612208 -7.420841 1.938993 0
M  V30 4 C 0.141363 -5.095864 2.942236 0
M  V30 5 C 0.314281 -4.435336 4.138700 0
M  V30 6 C -0.126048 -3.126322 4.261659 0
M  V30 7 C -0.728589 -2.492362 3.202561 0
M  V30 8 N -1.225928 -1.141174 3.261165 0
M  V30 9 C -1.668470 -0.513518 2.023993 0
M  V30 10 N -0.990704 0.223084 1.357232 0
M  V30 11 C -1.367855 0.798670 0.224729 0
M  V30 12 C -0.508992 1.699915 -0.535371 0
M  V30 13 C -0.914004 2.283408 -1.714356 0
M  V30 14 C -0.118443 3.163525 -2.459509 0
M  V30 15 C 1.143688 3.451137 -1.967245 0
M  V30 16 C 1.999459 4.323424 -2.651918 0
M  V30 17 C 3.251786 4.597325 -2.143031 0
M  V30 18 C 3.731342 4.051136 -0.966374 0
M  V30 19 C 2.879483 3.195532 -0.304150 0
M  V30 20 C 1.624275 2.896423 -0.777079 0
M  V30 21 C 0.756892 2.046136 -0.129777 0
M  V30 22 C -2.700027 0.489782 -0.205721 0
M  V30 23 S -3.263132 -0.648806 1.152422 0
M  V30 24 C -0.870417 -3.212351 2.030422 0
M  V30 25 C -0.457438 -4.507561 1.843925 0
M  V30 26 O -0.593561 -5.236996 0.678228 0
M  V30 27 H 0.000643 -8.250131 1.952795 0
M  V30 28 H 0.774519 -4.860335 5.006670 0
M  V30 29 H -0.000136 -2.580384 5.203804 0
M  V30 30 H -1.263150 -0.637619 4.163091 0
M  V30 31 H -1.884895 2.094503 -2.144742 0
M  V30 32 H -0.482475 3.595856 -3.379839 0
M  V30 33 H 1.679920 4.779005 -3.572517 0
M  V30 34 H 3.934382 5.276118 -2.663415 0
M  V30 35 H 4.709843 4.265325 -0.568025 0
M  V30 36 H 3.142798 2.704778 0.631263 0
M  V30 37 H 1.107610 1.591620 0.811729 0
M  V30 38 H -3.178762 0.901063 -1.160868 0
M  V30 39 H -1.347659 -2.756497 1.150418 0
M  V30 40 H 0.237183 -5.693865 0.309239 0
M  V30 END ATOM
M  V30 BEGIN BOND
M  V30 1 2 1 2
M  V30 2 1 2 3
M  V30 3 1 2 4
M  V30 4 2 4 5
M  V30 5 1 5 6
M  V30 6 2 6 7
M  V30 7 1 7 8
M  V30 8 1 8 9
M  V30 9 2 9 10
M  V30 10 1 10 11
M  V30 11 1 11 12
M  V30 12 2 12 13
M  V30 13 1 13 14
M  V30 14 2 14 15
M  V30 15 1 15 16
M  V30 16 2 16 17
M  V30 17 1 17 18
M  V30 18 2 18 19
M  V30 19 1 19 20
M  V30 20 2 20 21
M  V30 21 2 11 22
M  V30 22 1 22 23
M  V30 23 1 7 24
M  V30 24 2 24 25
M  V30 25 1 25 26
M  V30 26 1 25 4
M  V30 27 1 23 9
M  V30 28 1 21 12
M  V30 29 1 20 15
M  V30 30 1 3 27
M  V30 31 1 5 28
M  V30 32 1 6 29
M  V30 33 1 8 30
M  V30 34 1 13 31
M  V30 35 1 14 32
M  V30 36 1 16 33
M  V30 37 1 17 34
M  V30 38 1 18 35
M  V30 39 1 19 36
M  V30 40 1 21 37
M  V30 41 1 22 38
M  V30 42 1 24 39
M  V30 43 1 26 40
M  V30 END BOND
M  V30 END CTAB
M  END
>  <Dataset>  (568) 
ChEMBL_Kinases

>  <Ligand_Instance>  (568) 
nan

>  <PDB_ID>  (568) 
nan

>  <Standardized_SMILES>  (568) 
O=C(O)c1ccc(Nc2nc(-c3ccc4ccccc4c3)cs2)cc1O

>  <Name>  (568) 
nan

>  <Pocket>  (568) 
nan

>  <ATP_Site>  (568) 
nan

>  <Peripheral>  (568) 
nan

>  <Num_H_Atoms_ProtBoundConf>  (568) 
nan

>  <Num_Resolved_Atoms>  (568) 
nan

>  <Num_Not_Resolved_Atoms>  (568) 
nan

$$$$
CHEMBL4520505
     RDKit          3D

  0  0  0  0  0  0  0  0  0  0999 V3000
M  V30 BEGIN CTAB
M  V30 COUNTS 31 32 0 0 0
M  V30 BEGIN ATOM
M  V30 1 C -4.354214 0.070644 2.476651 0
M  V30 2 C -3.464884 -1.096196 2.896577 0
M  V30 3 C -2.712289 -1.485724 1.675918 0
M  V30 4 C -1.489666 -0.942263 1.336695 0
M  V30 5 C -0.790212 -1.304100 0.202494 0
M  V30 6 N 0.455242 -0.675659 -0.038433 0
M  V30 7 C 1.772036 -0.999035 0.333144 0
M  V30 8 O 2.019174 -2.026705 1.015973 0
M  V30 9 C 2.864373 -0.145485 -0.069875 0
M  V30 10 N 2.641631 0.971381 -0.806181 0
M  V30 11 C 3.683565 1.770746 -1.181226 0
M  V30 12 C 4.943499 1.381091 -0.774819 0
M  V30 13 N 5.208011 0.264711 -0.033538 0
M  V30 14 C 4.145680 -0.511289 0.324115 0
M  V30 15 N 4.373911 -1.687712 1.098891 0
M  V30 16 C -1.322565 -2.264646 -0.661435 0
M  V30 17 C -2.544896 -2.784081 -0.288901 0
M  V30 18 N -3.209520 -2.416727 0.821711 0
M  V30 19 H -4.711410 -0.161269 1.454243 0
M  V30 20 H -5.200760 0.187349 3.194527 0
M  V30 21 H -3.739937 1.014295 2.430514 0
M  V30 22 H -2.803276 -0.794204 3.731862 0
M  V30 23 H -4.098408 -1.903795 3.272763 0
M  V30 24 H -1.130553 -0.199555 2.051852 0
M  V30 25 H 0.270990 0.167833 -0.596539 0
M  V30 26 H 3.582072 2.672359 -1.765715 0
M  V30 27 H 5.779296 2.005667 -1.065114 0
M  V30 28 H 4.502248 -2.331734 0.299032 0
M  V30 29 H 4.278935 -1.216101 2.044022 0
M  V30 30 H -0.780612 -2.551815 -1.549745 0
M  V30 31 H -3.012825 -3.532294 -0.914001 0
M  V30 END ATOM
M  V30 BEGIN BOND
M  V30 1 1 1 2
M  V30 2 1 2 3
M  V30 3 2 3 4
M  V30 4 1 4 5
M  V30 5 1 5 6
M  V30 6 1 6 7
M  V30 7 2 7 8
M  V30 8 1 7 9
M  V30 9 2 9 10
M  V30 10 1 10 11
M  V30 11 2 11 12
M  V30 12 1 12 13
M  V30 13 2 13 14
M  V30 14 1 14 15
M  V30 15 2 5 16
M  V30 16 1 16 17
M  V30 17 2 17 18
M  V30 18 1 18 3
M  V30 19 1 14 9
M  V30 20 1 1 19
M  V30 21 1 1 20
M  V30 22 1 1 21
M  V30 23 1 2 22
M  V30 24 1 2 23
M  V30 25 1 4 24
M  V30 26 1 6 25
M  V30 27 1 11 26
M  V30 28 1 12 27
M  V30 29 1 15 28
M  V30 30 1 15 29
M  V30 31 1 16 30
M  V30 32 1 17 31
M  V30 END BOND
M  V30 END CTAB
M  END
>  <Dataset>  (569) 
ChEMBL_Kinases

>  <Ligand_Instance>  (569) 
nan

>  <PDB_ID>  (569) 
nan

>  <Standardized_SMILES>  (569) 
CCc1cc(NC(=O)c2nccnc2N)ccn1

>  <Name>  (569) 
nan

>  <Pocket>  (569) 
nan

>  <ATP_Site>  (569) 
nan

>  <Peripheral>  (569) 
nan

>  <Num_H_Atoms_ProtBoundConf>  (569) 
nan

>  <Num_Resolved_Atoms>  (569) 
nan

>  <Num_Not_Resolved_Atoms>  (569) 
nan

$$$$
CHEMBL452049
     RDKit          3D

  0  0  0  0  0  0  0  0  0  0999 V3000
M  V30 BEGIN CTAB
M  V30 COUNTS 45 46 0 0 0
M  V30 BEGIN ATOM
M  V30 1 C -0.101361 -4.804655 1.532182 0
M  V30 2 C -0.153659 -3.331180 1.207492 0
M  V30 3 C -0.693948 -2.588807 2.386540 0
M  V30 4 C -0.989547 -3.074330 -0.042322 0
M  V30 5 C 1.218526 -2.839165 0.933111 0
M  V30 6 O 2.141254 -3.682217 0.972428 0
M  V30 7 O 1.507994 -1.521034 0.644441 0
M  V30 8 C 2.839112 -1.104806 0.390814 0
M  V30 9 C 2.909744 0.364806 0.109169 0
M  V30 10 C 4.328776 0.732683 -0.220450 0
M  V30 11 O 4.404979 2.094663 -0.466560 0
M  V30 12 C 2.373430 1.143762 1.289528 0
M  V30 13 C 0.916257 1.267643 0.945245 0
M  V30 14 C -0.121555 1.318479 1.756528 0
M  V30 15 C -1.471751 1.437013 1.224074 0
M  V30 16 C -1.982714 0.646681 0.194748 0
M  V30 17 C -3.251692 0.787066 -0.322335 0
M  V30 18 C -4.088052 1.766337 0.199937 0
M  V30 19 Cl -5.694538 1.930550 -0.466245 0
M  V30 20 C -3.568970 2.539896 1.218334 0
M  V30 21 F -4.416434 3.498859 1.716638 0
M  V30 22 C -2.301225 2.408469 1.741612 0
M  V30 23 C 0.953426 1.354054 -0.533659 0
M  V30 24 O 0.031792 1.930684 -1.195184 0
M  V30 25 O 2.116788 0.724169 -1.023126 0
M  V30 26 H -1.129515 -5.203640 1.540538 0
M  V30 27 H 0.537443 -5.342440 0.819243 0
M  V30 28 H 0.403411 -4.886268 2.520926 0
M  V30 29 H -0.035163 -1.744882 2.702952 0
M  V30 30 H -0.872530 -3.194922 3.287446 0
M  V30 31 H -1.669365 -2.115297 2.090827 0
M  V30 32 H -1.203930 -4.031008 -0.543531 0
M  V30 33 H -0.439152 -2.439815 -0.764648 0
M  V30 34 H -1.911167 -2.532996 0.197606 0
M  V30 35 H 3.327671 -1.714260 -0.392030 0
M  V30 36 H 3.390896 -1.298373 1.331187 0
M  V30 37 H 5.049884 0.390359 0.551609 0
M  V30 38 H 4.597268 0.223278 -1.172035 0
M  V30 39 H 5.281675 2.485715 -0.224862 0
M  V30 40 H 2.484604 0.586924 2.228439 0
M  V30 41 H 2.861239 2.134986 1.342765 0
M  V30 42 H 0.153968 1.264365 2.822142 0
M  V30 43 H -1.359964 -0.143817 -0.230076 0
M  V30 44 H -3.588212 0.141039 -1.122596 0
M  V30 45 H -1.956858 3.048429 2.541304 0
M  V30 END ATOM
M  V30 BEGIN BOND
M  V30 1 1 1 2
M  V30 2 1 2 3
M  V30 3 1 2 4
M  V30 4 1 2 5
M  V30 5 2 5 6
M  V30 6 1 5 7
M  V30 7 1 7 8
M  V30 8 1 8 9
M  V30 9 1 9 10
M  V30 10 1 10 11
M  V30 11 1 9 12
M  V30 12 1 12 13
M  V30 13 2 13 14
M  V30 14 1 14 15
M  V30 15 2 15 16
M  V30 16 1 16 17
M  V30 17 2 17 18
M  V30 18 1 18 19
M  V30 19 1 18 20
M  V30 20 1 20 21
M  V30 21 2 20 22
M  V30 22 1 13 23
M  V30 23 2 23 24
M  V30 24 1 23 25
M  V30 25 1 25 9
M  V30 26 1 22 15
M  V30 27 1 1 26
M  V30 28 1 1 27
M  V30 29 1 1 28
M  V30 30 1 3 29
M  V30 31 1 3 30
M  V30 32 1 3 31
M  V30 33 1 4 32
M  V30 34 1 4 33
M  V30 35 1 4 34
M  V30 36 1 8 35
M  V30 37 1 8 36
M  V30 38 1 10 37
M  V30 39 1 10 38
M  V30 40 1 11 39
M  V30 41 1 12 40
M  V30 42 1 12 41
M  V30 43 1 14 42
M  V30 44 1 16 43
M  V30 45 1 17 44
M  V30 46 1 22 45
M  V30 END BOND
M  V30 END CTAB
M  END
>  <Dataset>  (570) 
ChEMBL_Kinases

>  <Ligand_Instance>  (570) 
nan

>  <PDB_ID>  (570) 
nan

>  <Standardized_SMILES>  (570) 
CC(C)(C)C(=O)OCC1(CO)C/C(=C/c2ccc(Cl)c(F)c2)C(=O)O1

>  <Name>  (570) 
nan

>  <Pocket>  (570) 
nan

>  <ATP_Site>  (570) 
nan

>  <Peripheral>  (570) 
nan

>  <Num_H_Atoms_ProtBoundConf>  (570) 
nan

>  <Num_Resolved_Atoms>  (570) 
nan

>  <Num_Not_Resolved_Atoms>  (570) 
nan

$$$$
CHEMBL4520397
     RDKit          3D

  0  0  0  0  0  0  0  0  0  0999 V3000
M  V30 BEGIN CTAB
M  V30 COUNTS 45 48 0 0 0
M  V30 BEGIN ATOM
M  V30 1 C -0.438523 -5.001629 3.033356 0
M  V30 2 N -0.514499 -4.492636 1.670060 0
M  V30 3 C -0.008345 -3.292113 1.327624 0
M  V30 4 C -0.237815 -3.104221 -0.019998 0
M  V30 5 C 0.158555 -1.922636 -0.783827 0
M  V30 6 C -0.123274 -1.841240 -2.132369 0
M  V30 7 C 0.294829 -0.687252 -2.748470 0
M  V30 8 N 0.035323 -0.567473 -4.082231 0
M  V30 9 C 0.450572 0.573814 -4.684230 0
M  V30 10 C 1.103927 1.568821 -3.987786 0
M  V30 11 N 1.364190 1.454496 -2.662053 0
M  V30 12 C 0.948410 0.311359 -2.058482 0
M  V30 13 C 1.216534 0.192130 -0.689731 0
M  V30 14 N 1.893410 1.244243 -0.014981 0
M  V30 15 C 2.194915 1.168616 1.406010 0
M  V30 16 C 0.957008 1.042812 2.224093 0
M  V30 17 C 1.266429 0.963962 3.706672 0
M  V30 18 N 0.046409 0.774525 4.448254 0
M  V30 19 C -1.114500 0.565381 3.621186 0
M  V30 20 C -1.317337 1.738340 2.687248 0
M  V30 21 F -2.324889 1.444701 1.815899 0
M  V30 22 F -1.771916 2.778814 3.504188 0
M  V30 23 C -0.025581 2.158653 2.020978 0
M  V30 24 N 0.798520 -0.933127 -0.132221 0
M  V30 25 C -0.897036 -4.226380 -0.480089 0
M  V30 26 N -1.032215 -5.027494 0.597651 0
M  V30 27 H 0.615118 -5.244879 3.289135 0
M  V30 28 H -1.097096 -5.884133 3.141515 0
M  V30 29 H -0.797971 -4.205978 3.739661 0
M  V30 30 H 0.492233 -2.590201 1.985282 0
M  V30 31 H -0.633614 -2.629388 -2.653903 0
M  V30 32 H 0.266514 0.716255 -5.748260 0
M  V30 33 H 1.407253 2.459012 -4.543548 0
M  V30 34 H 2.182617 2.081843 -0.525539 0
M  V30 35 H 2.889900 1.938546 1.732784 0
M  V30 36 H 2.741243 0.184750 1.513900 0
M  V30 37 H 0.450537 0.114356 1.971558 0
M  V30 38 H 1.848294 1.850965 3.981523 0
M  V30 39 H 1.906354 0.072838 3.844657 0
M  V30 40 H -0.111971 1.667803 4.970832 0
M  V30 41 H -1.992332 0.572522 4.312733 0
M  V30 42 H -1.152548 -0.415444 3.128588 0
M  V30 43 H -0.234075 2.374956 0.964727 0
M  V30 44 H 0.352898 3.091119 2.511813 0
M  V30 45 H -1.227619 -4.412412 -1.484064 0
M  V30 END ATOM
M  V30 BEGIN BOND
M  V30 1 1 1 2
M  V30 2 1 2 3
M  V30 3 2 3 4
M  V30 4 1 4 5
M  V30 5 2 5 6
M  V30 6 1 6 7
M  V30 7 2 7 8
M  V30 8 1 8 9
M  V30 9 2 9 10
M  V30 10 1 10 11
M  V30 11 2 11 12
M  V30 12 1 12 13
M  V30 13 1 13 14
M  V30 14 1 14 15
M  V30 15 1 15 16
M  V30 16 1 16 17
M  V30 17 1 17 18
M  V30 18 1 18 19
M  V30 19 1 19 20
M  V30 20 1 20 21
M  V30 21 1 20 22
M  V30 22 1 20 23
M  V30 23 2 13 24
M  V30 24 1 4 25
M  V30 25 2 25 26
M  V30 26 1 26 2
M  V30 27 1 24 5
M  V30 28 1 12 7
M  V30 29 1 23 16
M  V30 30 1 1 27
M  V30 31 1 1 28
M  V30 32 1 1 29
M  V30 33 1 3 30
M  V30 34 1 6 31
M  V30 35 1 9 32
M  V30 36 1 10 33
M  V30 37 1 14 34
M  V30 38 1 15 35
M  V30 39 1 15 36
M  V30 40 1 16 37
M  V30 41 1 17 38
M  V30 42 1 17 39
M  V30 43 1 18 40
M  V30 44 1 19 41
M  V30 45 1 19 42
M  V30 46 1 23 43
M  V30 47 1 23 44
M  V30 48 1 25 45
M  V30 END BOND
M  V30 END CTAB
M  END
>  <Dataset>  (571) 
ChEMBL_Kinases

>  <Ligand_Instance>  (571) 
nan

>  <PDB_ID>  (571) 
nan

>  <Standardized_SMILES>  (571) 
Cn1cc(-c2cc3nccnc3c(NCC3CNCC(F)(F)C3)n2)cn1

>  <Name>  (571) 
nan

>  <Pocket>  (571) 
nan

>  <ATP_Site>  (571) 
nan

>  <Peripheral>  (571) 
nan

>  <Num_H_Atoms_ProtBoundConf>  (571) 
nan

>  <Num_Resolved_Atoms>  (571) 
nan

>  <Num_Not_Resolved_Atoms>  (571) 
nan

$$$$
CHEMBL4520250
     RDKit          3D

  0  0  0  0  0  0  0  0  0  0999 V3000
M  V30 BEGIN CTAB
M  V30 COUNTS 42 45 0 0 0
M  V30 BEGIN ATOM
M  V30 1 C -2.036475 -6.511331 2.738847 0
M  V30 2 N -1.608284 -5.436216 1.838343 0
M  V30 3 C -2.278537 -5.458354 0.536850 0
M  V30 4 C -1.622265 -4.318306 -0.228738 0
M  V30 5 C -1.220590 -3.404203 0.896504 0
M  V30 6 O -2.319333 -2.706717 1.376060 0
M  V30 7 C -0.166876 -2.524445 0.386396 0
M  V30 8 C 0.688764 -1.783245 -0.030697 0
M  V30 9 C 1.695141 -0.888197 -0.535653 0
M  V30 10 C 1.924041 0.316437 0.062236 0
M  V30 11 C 2.853147 1.262119 -0.318942 0
M  V30 12 N 2.965758 2.475522 0.417176 0
M  V30 13 C 4.021619 3.179072 0.866477 0
M  V30 14 C 3.576802 4.307041 1.538287 0
M  V30 15 C 2.204529 4.284733 1.493645 0
M  V30 16 C 1.243804 5.160757 2.001435 0
M  V30 17 N -0.056623 4.895331 1.811454 0
M  V30 18 C -0.406033 3.782322 1.130657 0
M  V30 19 N -1.720437 3.329058 0.826792 0
M  V30 20 N 0.520522 2.937945 0.641221 0
M  V30 21 C 1.849823 3.136469 0.791412 0
M  V30 22 C 3.616716 0.924565 -1.425883 0
M  V30 23 C 3.400777 -0.295796 -2.049679 0
M  V30 24 N 2.465889 -1.180461 -1.618499 0
M  V30 25 C -0.673619 -4.341320 1.916312 0
M  V30 26 O 0.227939 -4.578865 2.790234 0
M  V30 27 H -1.890048 -7.488159 2.236763 0
M  V30 28 H -1.563295 -6.457245 3.720539 0
M  V30 29 H -3.149251 -6.397817 2.887319 0
M  V30 30 H -2.090362 -6.400158 -0.005156 0
M  V30 31 H -3.349220 -5.285985 0.726571 0
M  V30 32 H -2.333280 -3.849295 -0.930780 0
M  V30 33 H -0.724542 -4.727004 -0.710192 0
M  V30 34 H -2.080135 -1.768631 1.568058 0
M  V30 35 H 1.313468 0.548972 0.920764 0
M  V30 36 H 5.035438 2.849243 0.690090 0
M  V30 37 H 4.192676 5.052198 2.002760 0
M  V30 38 H 1.509977 6.056956 2.549264 0
M  V30 39 H -2.456820 2.738874 1.311753 0
M  V30 40 H -2.075565 3.649369 -0.118074 0
M  V30 41 H 4.353775 1.640739 -1.752492 0
M  V30 42 H 4.025877 -0.518518 -2.917717 0
M  V30 END ATOM
M  V30 BEGIN BOND
M  V30 1 1 1 2
M  V30 2 1 2 3
M  V30 3 1 3 4
M  V30 4 1 4 5
M  V30 5 1 5 6
M  V30 6 1 5 7
M  V30 7 3 7 8
M  V30 8 1 8 9
M  V30 9 2 9 10
M  V30 10 1 10 11
M  V30 11 1 11 12
M  V30 12 1 12 13
M  V30 13 2 13 14
M  V30 14 1 14 15
M  V30 15 2 15 16
M  V30 16 1 16 17
M  V30 17 2 17 18
M  V30 18 1 18 19
M  V30 19 1 18 20
M  V30 20 2 20 21
M  V30 21 2 11 22
M  V30 22 1 22 23
M  V30 23 2 23 24
M  V30 24 1 5 25
M  V30 25 2 25 26
M  V30 26 1 25 2
M  V30 27 1 24 9
M  V30 28 1 21 12
M  V30 29 1 21 15
M  V30 30 1 1 27
M  V30 31 1 1 28
M  V30 32 1 1 29
M  V30 33 1 3 30
M  V30 34 1 3 31
M  V30 35 1 4 32
M  V30 36 1 4 33
M  V30 37 1 6 34
M  V30 38 1 10 35
M  V30 39 1 13 36
M  V30 40 1 14 37
M  V30 41 1 16 38
M  V30 42 1 19 39
M  V30 43 1 19 40
M  V30 44 1 22 41
M  V30 45 1 23 42
M  V30 END BOND
M  V30 END CTAB
M  END
>  <Dataset>  (572) 
ChEMBL_Kinases

>  <Ligand_Instance>  (572) 
nan

>  <PDB_ID>  (572) 
nan

>  <Standardized_SMILES>  (572) 
CN1CCC(O)(C#Cc2cc(-n3ccc4cnc(N)nc43)ccn2)C1=O

>  <Name>  (572) 
nan

>  <Pocket>  (572) 
nan

>  <ATP_Site>  (572) 
nan

>  <Peripheral>  (572) 
nan

>  <Num_H_Atoms_ProtBoundConf>  (572) 
nan

>  <Num_Resolved_Atoms>  (572) 
nan

>  <Num_Not_Resolved_Atoms>  (572) 
nan

$$$$
CHEMBL452063
     RDKit          3D

  0  0  0  0  0  0  0  0  0  0999 V3000
M  V30 BEGIN CTAB
M  V30 COUNTS 42 43 0 0 0
M  V30 BEGIN ATOM
M  V30 1 C 0.125721 -5.467493 -1.257619 0
M  V30 2 C 0.732215 -4.764302 -0.073456 0
M  V30 3 C -0.229927 -4.988526 1.088932 0
M  V30 4 C 1.040651 -3.353652 -0.312303 0
M  V30 5 O 2.187883 -2.814329 -0.282931 0
M  V30 6 O 0.247577 -2.286522 -0.612902 0
M  V30 7 C 0.718997 -0.973875 -0.814777 0
M  V30 8 C -0.444436 -0.052790 -1.103704 0
M  V30 9 C -1.128471 -0.321249 -2.397786 0
M  V30 10 O -0.254799 -0.299187 -3.498330 0
M  V30 11 C -0.000760 1.407647 -0.982519 0
M  V30 12 C 0.166388 1.532499 0.485605 0
M  V30 13 C 0.823976 2.401751 1.234636 0
M  V30 14 C 0.942379 2.466314 2.684702 0
M  V30 15 C 2.280031 2.604133 3.079150 0
M  V30 16 C 2.656602 2.707946 4.413556 0
M  V30 17 C 1.661480 2.670777 5.349253 0
M  V30 18 Br 2.108554 2.807523 7.196111 0
M  V30 19 C 0.313934 2.534762 4.998492 0
M  V30 20 C -0.000954 2.436533 3.661441 0
M  V30 21 C -0.552607 0.389686 1.091611 0
M  V30 22 O -0.445708 -0.032300 2.298013 0
M  V30 23 O -1.343559 -0.077880 0.020878 0
M  V30 24 H 0.221474 -6.569699 -1.017607 0
M  V30 25 H -0.955877 -5.279633 -1.369693 0
M  V30 26 H 0.700058 -5.338870 -2.189843 0
M  V30 27 H 1.672720 -5.295904 0.158438 0
M  V30 28 H -0.006414 -4.375761 1.960291 0
M  V30 29 H -1.293412 -4.895610 0.750587 0
M  V30 30 H -0.088898 -6.049766 1.393705 0
M  V30 31 H 1.511879 -0.898354 -1.572251 0
M  V30 32 H 1.145357 -0.660232 0.171021 0
M  V30 33 H -1.783109 -1.196889 -2.370537 0
M  V30 34 H -1.808626 0.561792 -2.578980 0
M  V30 35 H 0.211199 0.592979 -3.425065 0
M  V30 36 H -0.847850 2.015345 -1.363574 0
M  V30 37 H 0.909310 1.585276 -1.566792 0
M  V30 38 H 1.344416 3.174740 0.640975 0
M  V30 39 H 3.143313 2.644162 2.396654 0
M  V30 40 H 3.695318 2.815019 4.722319 0
M  V30 41 H -0.498130 2.502595 5.712325 0
M  V30 42 H -1.013003 2.348799 3.313687 0
M  V30 END ATOM
M  V30 BEGIN BOND
M  V30 1 1 1 2
M  V30 2 1 2 3
M  V30 3 1 2 4
M  V30 4 2 4 5
M  V30 5 1 4 6
M  V30 6 1 6 7
M  V30 7 1 7 8
M  V30 8 1 8 9
M  V30 9 1 9 10
M  V30 10 1 8 11
M  V30 11 1 11 12
M  V30 12 2 12 13
M  V30 13 1 13 14
M  V30 14 2 14 15
M  V30 15 1 15 16
M  V30 16 2 16 17
M  V30 17 1 17 18
M  V30 18 1 17 19
M  V30 19 2 19 20
M  V30 20 1 12 21
M  V30 21 2 21 22
M  V30 22 1 21 23
M  V30 23 1 23 8
M  V30 24 1 20 14
M  V30 25 1 1 24
M  V30 26 1 1 25
M  V30 27 1 1 26
M  V30 28 1 2 27
M  V30 29 1 3 28
M  V30 30 1 3 29
M  V30 31 1 3 30
M  V30 32 1 7 31
M  V30 33 1 7 32
M  V30 34 1 9 33
M  V30 35 1 9 34
M  V30 36 1 10 35
M  V30 37 1 11 36
M  V30 38 1 11 37
M  V30 39 1 13 38
M  V30 40 1 15 39
M  V30 41 1 16 40
M  V30 42 1 19 41
M  V30 43 1 20 42
M  V30 END BOND
M  V30 END CTAB
M  END
>  <Dataset>  (573) 
ChEMBL_Kinases

>  <Ligand_Instance>  (573) 
nan

>  <PDB_ID>  (573) 
nan

>  <Standardized_SMILES>  (573) 
CC(C)C(=O)OCC1(CO)C/C(=C/c2ccc(Br)cc2)C(=O)O1

>  <Name>  (573) 
nan

>  <Pocket>  (573) 
nan

>  <ATP_Site>  (573) 
nan

>  <Peripheral>  (573) 
nan

>  <Num_H_Atoms_ProtBoundConf>  (573) 
nan

>  <Num_Resolved_Atoms>  (573) 
nan

>  <Num_Not_Resolved_Atoms>  (573) 
nan

$$$$
CHEMBL4646258
     RDKit          3D

  0  0  0  0  0  0  0  0  0  0999 V3000
M  V30 BEGIN CTAB
M  V30 COUNTS 60 64 0 0 0
M  V30 BEGIN ATOM
M  V30 1 C 0.179826 -1.246824 5.697220 0
M  V30 2 C 0.961411 -1.749290 4.545242 0
M  V30 3 C 2.325613 -1.633167 4.646505 0
M  V30 4 C 3.213016 -2.033061 3.674579 0
M  V30 5 C 2.652853 -2.577880 2.542954 0
M  V30 6 N 3.515337 -3.011341 1.501772 0
M  V30 7 C 2.982993 -3.101102 0.190053 0
M  V30 8 C 2.681206 -1.883611 -0.422910 0
M  V30 9 C 2.156598 -1.630429 -1.714306 0
M  V30 10 O 1.976020 -0.297204 -2.011880 0
M  V30 11 C 0.918893 0.507713 -1.739757 0
M  V30 12 C 1.088559 1.647196 -0.935386 0
M  V30 13 N -0.088658 2.327620 -0.777624 0
M  V30 14 C -0.195922 3.534988 0.003542 0
M  V30 15 C -1.410897 4.353166 -0.073770 0
M  V30 16 C -1.160218 3.527462 1.190434 0
M  V30 17 N -0.963956 1.642693 -1.457696 0
M  V30 18 C -0.422331 0.565556 -2.042290 0
M  V30 19 C -1.073239 -0.447628 -2.896627 0
M  V30 20 C -1.691475 -1.588677 -2.106364 0
M  V30 21 C -2.824124 -1.092844 -1.234564 0
M  V30 22 O -3.789771 -0.384626 -1.921775 0
M  V30 23 C -3.547492 -0.436514 -3.290348 0
M  V30 24 C -2.216938 0.216721 -3.665099 0
M  V30 25 C 1.904730 -2.777393 -2.485656 0
M  V30 26 C 2.210247 -3.941021 -1.853401 0
M  V30 27 N 2.701628 -4.174728 -0.650623 0
M  V30 28 C 1.276612 -2.695406 2.444773 0
M  V30 29 C 0.379672 -2.300165 3.413231 0
M  V30 30 S -1.339324 -2.441031 3.336436 0
M  V30 31 N -1.985152 -3.430415 4.629114 0
M  V30 32 O -1.665522 -3.259053 2.091317 0
M  V30 33 O -2.039309 -1.148137 3.202213 0
M  V30 34 H 0.740997 -1.236208 6.632160 0
M  V30 35 H -0.067758 -0.177292 5.455307 0
M  V30 36 H -0.774235 -1.744360 5.848620 0
M  V30 37 H 2.797825 -1.194491 5.540503 0
M  V30 38 H 4.286394 -1.951853 3.743060 0
M  V30 39 H 4.505447 -3.269047 1.689733 0
M  V30 40 H 2.882226 -0.987567 0.192220 0
M  V30 41 H 2.027218 1.981169 -0.477731 0
M  V30 42 H 0.754913 4.111596 0.172430 0
M  V30 43 H -1.344142 5.466244 0.078625 0
M  V30 44 H -2.258347 4.085554 -0.735276 0
M  V30 45 H -1.795745 2.624915 1.345988 0
M  V30 46 H -0.845275 4.097978 2.112923 0
M  V30 47 H -0.342820 -0.924126 -3.586111 0
M  V30 48 H -0.983795 -2.118772 -1.468946 0
M  V30 49 H -2.056890 -2.321846 -2.850984 0
M  V30 50 H -2.400139 -0.555597 -0.355668 0
M  V30 51 H -3.319560 -2.006757 -0.842949 0
M  V30 52 H -3.673682 -1.434138 -3.736464 0
M  V30 53 H -4.324152 0.221829 -3.761548 0
M  V30 54 H -2.291968 1.281968 -3.343640 0
M  V30 55 H -2.104002 0.103328 -4.747582 0
M  V30 56 H 1.514028 -2.548841 -3.448362 0
M  V30 57 H 2.010692 -4.839643 -2.465461 0
M  V30 58 H 0.858033 -3.127205 1.522110 0
M  V30 59 H -3.007493 -3.552755 4.403820 0
M  V30 60 H -1.541981 -4.370613 4.518784 0
M  V30 END ATOM
M  V30 BEGIN BOND
M  V30 1 1 1 2
M  V30 2 2 2 3
M  V30 3 1 3 4
M  V30 4 2 4 5
M  V30 5 1 5 6
M  V30 6 1 6 7
M  V30 7 2 7 8
M  V30 8 1 8 9
M  V30 9 1 9 10
M  V30 10 1 10 11
M  V30 11 2 11 12
M  V30 12 1 12 13
M  V30 13 1 13 14
M  V30 14 1 14 15
M  V30 15 1 15 16
M  V30 16 1 13 17
M  V30 17 2 17 18
M  V30 18 1 18 19
M  V30 19 1 19 20
M  V30 20 1 20 21
M  V30 21 1 21 22
M  V30 22 1 22 23
M  V30 23 1 23 24
M  V30 24 2 9 25
M  V30 25 1 25 26
M  V30 26 2 26 27
M  V30 27 1 5 28
M  V30 28 2 28 29
M  V30 29 1 29 30
M  V30 30 1 30 31
M  V30 31 2 30 32
M  V30 32 2 30 33
M  V30 33 1 29 2
M  V30 34 1 27 7
M  V30 35 1 18 11
M  V30 36 1 24 19
M  V30 37 1 16 14
M  V30 38 1 1 34
M  V30 39 1 1 35
M  V30 40 1 1 36
M  V30 41 1 3 37
M  V30 42 1 4 38
M  V30 43 1 6 39
M  V30 44 1 8 40
M  V30 45 1 12 41
M  V30 46 1 14 42
M  V30 47 1 15 43
M  V30 48 1 15 44
M  V30 49 1 16 45
M  V30 50 1 16 46
M  V30 51 1 19 47
M  V30 52 1 20 48
M  V30 53 1 20 49
M  V30 54 1 21 50
M  V30 55 1 21 51
M  V30 56 1 23 52
M  V30 57 1 23 53
M  V30 58 1 24 54
M  V30 59 1 24 55
M  V30 60 1 25 56
M  V30 61 1 26 57
M  V30 62 1 28 58
M  V30 63 1 31 59
M  V30 64 1 31 60
M  V30 END BOND
M  V30 END CTAB
M  END
>  <Dataset>  (574) 
ChEMBL_Kinases

>  <Ligand_Instance>  (574) 
nan

>  <PDB_ID>  (574) 
nan

>  <Standardized_SMILES>  (574) 
Cc1ccc(Nc2cc(Oc3cn(C4CC4)nc3C3CCOCC3)ccn2)cc1S(N)(=O)=O

>  <Name>  (574) 
nan

>  <Pocket>  (574) 
nan

>  <ATP_Site>  (574) 
nan

>  <Peripheral>  (574) 
nan

>  <Num_H_Atoms_ProtBoundConf>  (574) 
nan

>  <Num_Resolved_Atoms>  (574) 
nan

>  <Num_Not_Resolved_Atoms>  (574) 
nan

$$$$
CHEMBL4522263
     RDKit          3D

  0  0  0  0  0  0  0  0  0  0999 V3000
M  V30 BEGIN CTAB
M  V30 COUNTS 42 45 0 0 0
M  V30 BEGIN ATOM
M  V30 1 C -2.045882 -7.705057 0.889083 0
M  V30 2 O -0.847179 -6.965693 0.765074 0
M  V30 3 C -0.891158 -5.593592 0.654204 0
M  V30 4 C -2.030096 -4.816417 0.649673 0
M  V30 5 C -2.029776 -3.442330 0.536387 0
M  V30 6 C -0.845663 -2.791205 0.420883 0
M  V30 7 C -0.848177 -1.337726 0.300623 0
M  V30 8 C 0.248426 -0.699797 0.837779 0
M  V30 9 N 0.293544 0.640085 0.751491 0
M  V30 10 C -0.645435 1.411321 0.182766 0
M  V30 11 C -0.682775 2.718586 0.054659 0
M  V30 12 C 0.372524 3.686336 0.542688 0
M  V30 13 C 1.216834 4.446269 0.948388 0
M  V30 14 C 2.235786 5.333773 1.433813 0
M  V30 15 C 3.171971 5.808984 0.513468 0
M  V30 16 C 4.195422 6.677619 0.910222 0
M  V30 17 C 4.224931 7.031650 2.243901 0
M  V30 18 N 3.315454 6.572711 3.148876 0
M  V30 19 C 2.327417 5.733993 2.765103 0
M  V30 20 S -2.080258 3.217075 -0.738360 0
M  V30 21 N -2.760054 1.482306 -0.960702 0
M  V30 22 C -1.750359 0.798101 -0.360917 0
M  V30 23 C -1.850298 -0.598536 -0.299331 0
M  V30 24 C 0.326547 -3.517752 0.419569 0
M  V30 25 C 0.300081 -4.893756 0.534338 0
M  V30 26 O 1.478558 -5.597967 0.530918 0
M  V30 27 C 2.748111 -5.013812 0.416339 0
M  V30 28 H -1.787113 -8.712646 1.307368 0
M  V30 29 H -2.448159 -7.839098 -0.152359 0
M  V30 30 H -2.730762 -7.178303 1.555271 0
M  V30 31 H -2.979326 -5.326559 0.741211 0
M  V30 32 H -2.997913 -2.919046 0.544085 0
M  V30 33 H 1.078496 -1.221902 1.327701 0
M  V30 34 H 3.145194 5.526839 -0.539220 0
M  V30 35 H 4.942883 7.080705 0.269556 0
M  V30 36 H 4.968829 7.704716 2.699223 0
M  V30 37 H 1.592975 5.354767 3.459836 0
M  V30 38 H -2.627220 -1.228642 -0.665144 0
M  V30 39 H 1.260209 -2.990428 0.327485 0
M  V30 40 H 2.847686 -4.079013 1.004961 0
M  V30 41 H 2.924238 -4.812478 -0.676433 0
M  V30 42 H 3.526380 -5.736624 0.737239 0
M  V30 END ATOM
M  V30 BEGIN BOND
M  V30 1 1 1 2
M  V30 2 1 2 3
M  V30 3 2 3 4
M  V30 4 1 4 5
M  V30 5 2 5 6
M  V30 6 1 6 7
M  V30 7 1 7 8
M  V30 8 2 8 9
M  V30 9 1 9 10
M  V30 10 2 10 11
M  V30 11 1 11 12
M  V30 12 3 12 13
M  V30 13 1 13 14
M  V30 14 2 14 15
M  V30 15 1 15 16
M  V30 16 2 16 17
M  V30 17 1 17 18
M  V30 18 2 18 19
M  V30 19 1 11 20
M  V30 20 1 20 21
M  V30 21 2 21 22
M  V30 22 1 22 23
M  V30 23 1 6 24
M  V30 24 2 24 25
M  V30 25 1 25 26
M  V30 26 1 26 27
M  V30 27 1 25 3
M  V30 28 2 23 7
M  V30 29 1 22 10
M  V30 30 1 19 14
M  V30 31 1 1 28
M  V30 32 1 1 29
M  V30 33 1 1 30
M  V30 34 1 4 31
M  V30 35 1 5 32
M  V30 36 1 8 33
M  V30 37 1 15 34
M  V30 38 1 16 35
M  V30 39 1 17 36
M  V30 40 1 19 37
M  V30 41 1 23 38
M  V30 42 1 24 39
M  V30 43 1 27 40
M  V30 44 1 27 41
M  V30 45 1 27 42
M  V30 END BOND
M  V30 END CTAB
M  END
>  <Dataset>  (575) 
ChEMBL_Kinases

>  <Ligand_Instance>  (575) 
nan

>  <PDB_ID>  (575) 
nan

>  <Standardized_SMILES>  (575) 
COc1ccc(-c2cnc3c(C#Cc4cccnc4)snc3c2)cc1OC

>  <Name>  (575) 
nan

>  <Pocket>  (575) 
nan

>  <ATP_Site>  (575) 
nan

>  <Peripheral>  (575) 
nan

>  <Num_H_Atoms_ProtBoundConf>  (575) 
nan

>  <Num_Resolved_Atoms>  (575) 
nan

>  <Num_Not_Resolved_Atoms>  (575) 
nan

$$$$
CHEMBL452220
     RDKit          3D

  0  0  0  0  0  0  0  0  0  0999 V3000
M  V30 BEGIN CTAB
M  V30 COUNTS 38 41 0 0 0
M  V30 BEGIN ATOM
M  V30 1 C -1.723959 -4.712179 0.340078 0
M  V30 2 C -0.323874 -4.087757 0.374664 0
M  V30 3 C 0.706906 -5.205349 0.234181 0
M  V30 4 C -0.211120 -3.397244 1.657156 0
M  V30 5 C -0.016223 -2.086090 1.778099 0
M  V30 6 C 0.091067 -1.292498 0.564186 0
M  V30 7 C -0.010684 -1.911939 -0.660032 0
M  V30 8 C 0.078986 -1.238328 -1.859311 0
M  V30 9 C 0.281401 0.126503 -1.788434 0
M  V30 10 O 0.381134 0.866878 -2.964730 0
M  V30 11 C 0.380128 0.725201 -0.558892 0
M  V30 12 C 0.583677 2.102159 -0.566683 0
M  V30 13 O 0.678998 2.804677 -1.599951 0
M  V30 14 C 0.682499 2.700557 0.680542 0
M  V30 15 C 0.884805 4.066576 0.719271 0
M  V30 16 C 0.997614 4.762863 1.909113 0
M  V30 17 C 0.902992 4.056631 3.092731 0
M  V30 18 C 0.698371 2.674055 3.069957 0
M  V30 19 O 0.609688 2.006993 4.271508 0
M  V30 20 C 0.589501 2.005110 1.867921 0
M  V30 21 N 0.389550 0.654944 1.831683 0
M  V30 22 C 0.291520 0.058503 0.645125 0
M  V30 23 O -0.215610 -3.291962 -0.762586 0
M  V30 24 H -2.406622 -4.206470 1.046846 0
M  V30 25 H -1.677595 -5.774323 0.654702 0
M  V30 26 H -2.179905 -4.623065 -0.659616 0
M  V30 27 H 0.361749 -5.838161 -0.619404 0
M  V30 28 H 1.670161 -4.753121 -0.060110 0
M  V30 29 H 0.759452 -5.841815 1.133288 0
M  V30 30 H -0.308142 -4.100000 2.488047 0
M  V30 31 H 0.044570 -1.730946 2.775935 0
M  V30 32 H -0.002590 -1.736321 -2.816045 0
M  V30 33 H -0.407670 1.313537 -3.395575 0
M  V30 34 H 0.961240 4.635115 -0.202254 0
M  V30 35 H 1.154912 5.825420 1.930872 0
M  V30 36 H 0.994908 4.627119 4.006022 0
M  V30 37 H 1.451677 1.784644 4.774201 0
M  V30 38 H 0.331206 0.208946 2.749675 0
M  V30 END ATOM
M  V30 BEGIN BOND
M  V30 1 1 1 2
M  V30 2 1 2 3
M  V30 3 1 2 4
M  V30 4 2 4 5
M  V30 5 1 5 6
M  V30 6 2 6 7
M  V30 7 1 7 8
M  V30 8 2 8 9
M  V30 9 1 9 10
M  V30 10 1 9 11
M  V30 11 1 11 12
M  V30 12 2 12 13
M  V30 13 1 12 14
M  V30 14 2 14 15
M  V30 15 1 15 16
M  V30 16 2 16 17
M  V30 17 1 17 18
M  V30 18 1 18 19
M  V30 19 2 18 20
M  V30 20 1 20 21
M  V30 21 1 21 22
M  V30 22 1 7 23
M  V30 23 1 23 2
M  V30 24 1 22 6
M  V30 25 2 22 11
M  V30 26 1 20 14
M  V30 27 1 1 24
M  V30 28 1 1 25
M  V30 29 1 1 26
M  V30 30 1 3 27
M  V30 31 1 3 28
M  V30 32 1 3 29
M  V30 33 1 4 30
M  V30 34 1 5 31
M  V30 35 1 8 32
M  V30 36 1 10 33
M  V30 37 1 15 34
M  V30 38 1 16 35
M  V30 39 1 17 36
M  V30 40 1 19 37
M  V30 41 1 21 38
M  V30 END BOND
M  V30 END CTAB
M  END
>  <Dataset>  (576) 
ChEMBL_Kinases

>  <Ligand_Instance>  (576) 
nan

>  <PDB_ID>  (576) 
nan

>  <Standardized_SMILES>  (576) 
CC1(C)C=Cc2c(cc(O)c3c(=O)c4cccc(O)c4[nH]c23)O1

>  <Name>  (576) 
ATOLAPHYLLIDINE

>  <Pocket>  (576) 
nan

>  <ATP_Site>  (576) 
nan

>  <Peripheral>  (576) 
nan

>  <Num_H_Atoms_ProtBoundConf>  (576) 
nan

>  <Num_Resolved_Atoms>  (576) 
nan

>  <Num_Not_Resolved_Atoms>  (576) 
nan

$$$$
CHEMBL4522110
     RDKit          3D

  0  0  0  0  0  0  0  0  0  0999 V3000
M  V30 BEGIN CTAB
M  V30 COUNTS 72 76 0 0 0
M  V30 BEGIN ATOM
M  V30 1 N 2.189711 -0.172615 4.352820 0
M  V30 2 C 2.703396 0.986907 3.721862 0
M  V30 3 O 3.523733 1.579595 4.462474 0
M  V30 4 C 2.382969 1.500342 2.397286 0
M  V30 5 C 3.043054 2.659105 2.039231 0
M  V30 6 C 2.755312 3.171740 0.774760 0
M  V30 7 C 3.455871 4.405950 0.391634 0
M  V30 8 C 4.728710 4.574552 0.906354 0
M  V30 9 C 5.463722 5.712109 0.597496 0
M  V30 10 C 4.902034 6.670922 -0.231677 0
M  V30 11 C 3.622361 6.484203 -0.739161 0
M  V30 12 C 2.881865 5.343984 -0.431398 0
M  V30 13 C 1.858249 2.580268 -0.110792 0
M  V30 14 C 1.262677 1.427979 0.361471 0
M  V30 15 C 0.340960 0.650553 -0.308601 0
M  V30 16 C -0.313535 0.712979 -1.642741 0
M  V30 17 C -1.572731 1.498048 -1.514007 0
M  V30 18 C -2.798897 0.612500 -1.383669 0
M  V30 19 N -2.981079 -0.228486 -2.491014 0
M  V30 20 S -4.269216 -1.295115 -2.523636 0
M  V30 21 O -4.238377 -2.056762 -3.847601 0
M  V30 22 O -5.582895 -0.531529 -2.451298 0
M  V30 23 C -4.321874 -2.511993 -1.266347 0
M  V30 24 C -3.164502 -3.445728 -1.209952 0
M  V30 25 C -3.421509 -4.416285 -0.042743 0
M  V30 26 N -2.312298 -5.301543 0.009213 0
M  V30 27 C -2.346924 -6.295977 1.046375 0
M  V30 28 C -2.403909 -5.716643 2.433808 0
M  V30 29 C -0.987611 -5.336549 2.781145 0
M  V30 30 C -0.142697 -5.805547 1.614479 0
M  V30 31 C -0.987074 -6.968725 1.082765 0
M  V30 32 C -1.787751 -0.724038 -3.055914 0
M  V30 33 C -0.542220 -0.624086 -2.241007 0
M  V30 34 C 0.019820 -0.402847 0.551077 0
M  V30 35 N 0.728307 -0.266873 1.710875 0
M  V30 36 C 1.478820 0.842498 1.590961 0
M  V30 37 H 2.834199 -0.832206 3.867011 0
M  V30 38 H 1.412401 -0.220016 5.060411 0
M  V30 39 H 3.739502 3.151003 2.681540 0
M  V30 40 H 5.266071 3.900430 1.557870 0
M  V30 41 H 6.478838 5.889502 0.983052 0
M  V30 42 H 5.458819 7.571420 -0.488200 0
M  V30 43 H 3.216936 7.257653 -1.385338 0
M  V30 44 H 1.885586 5.200182 -0.827324 0
M  V30 45 H 1.646150 2.984228 -1.079462 0
M  V30 46 H 0.354374 1.277797 -2.336575 0
M  V30 47 H -1.502696 2.197744 -0.675744 0
M  V30 48 H -1.774795 2.130601 -2.418151 0
M  V30 49 H -3.649612 1.309292 -1.192305 0
M  V30 50 H -2.647300 0.062672 -0.410518 0
M  V30 51 H -4.427727 -2.053355 -0.239978 0
M  V30 52 H -5.234883 -3.117641 -1.407697 0
M  V30 53 H -2.263280 -2.885222 -0.896870 0
M  V30 54 H -3.009039 -4.034484 -2.120497 0
M  V30 55 H -3.525460 -3.753905 0.831321 0
M  V30 56 H -4.337126 -5.002419 -0.268315 0
M  V30 57 H -2.168974 -5.750651 -0.906773 0
M  V30 58 H -3.108425 -7.080290 0.917256 0
M  V30 59 H -2.671220 -6.571054 3.110426 0
M  V30 60 H -3.155304 -4.949863 2.593116 0
M  V30 61 H -0.849321 -4.266405 3.021413 0
M  V30 62 H -0.594678 -5.879115 3.677730 0
M  V30 63 H -0.123654 -5.066594 0.786419 0
M  V30 64 H 0.849079 -6.155245 1.924466 0
M  V30 65 H -0.718294 -7.237262 0.052648 0
M  V30 66 H -0.994676 -7.809527 1.801351 0
M  V30 67 H -1.987233 -1.816892 -3.307962 0
M  V30 68 H -1.633117 -0.207647 -4.039999 0
M  V30 69 H 0.302354 -0.891249 -2.960765 0
M  V30 70 H -0.475540 -1.454967 -1.479511 0
M  V30 71 H -0.639479 -1.285817 0.531625 0
M  V30 72 H 0.763320 -0.841726 2.580432 0
M  V30 END ATOM
M  V30 BEGIN BOND
M  V30 1 1 1 2
M  V30 2 2 2 3
M  V30 3 1 2 4
M  V30 4 2 4 5
M  V30 5 1 5 6
M  V30 6 1 6 7
M  V30 7 2 7 8
M  V30 8 1 8 9
M  V30 9 2 9 10
M  V30 10 1 10 11
M  V30 11 2 11 12
M  V30 12 2 6 13
M  V30 13 1 13 14
M  V30 14 1 14 15
M  V30 15 1 15 16
M  V30 16 1 16 17
M  V30 17 1 17 18
M  V30 18 1 18 19
M  V30 19 1 19 20
M  V30 20 2 20 21
M  V30 21 2 20 22
M  V30 22 1 20 23
M  V30 23 1 23 24
M  V30 24 1 24 25
M  V30 25 1 25 26
M  V30 26 1 26 27
M  V30 27 1 27 28
M  V30 28 1 28 29
M  V30 29 1 29 30
M  V30 30 1 30 31
M  V30 31 1 19 32
M  V30 32 1 32 33
M  V30 33 2 15 34
M  V30 34 1 34 35
M  V30 35 1 35 36
M  V30 36 1 36 4
M  V30 37 1 12 7
M  V30 38 2 36 14
M  V30 39 1 33 16
M  V30 40 1 31 27
M  V30 41 1 1 37
M  V30 42 1 1 38
M  V30 43 1 5 39
M  V30 44 1 8 40
M  V30 45 1 9 41
M  V30 46 1 10 42
M  V30 47 1 11 43
M  V30 48 1 12 44
M  V30 49 1 13 45
M  V30 50 1 16 46
M  V30 51 1 17 47
M  V30 52 1 17 48
M  V30 53 1 18 49
M  V30 54 1 18 50
M  V30 55 1 23 51
M  V30 56 1 23 52
M  V30 57 1 24 53
M  V30 58 1 24 54
M  V30 59 1 25 55
M  V30 60 1 25 56
M  V30 61 1 26 57
M  V30 62 1 27 58
M  V30 63 1 28 59
M  V30 64 1 28 60
M  V30 65 1 29 61
M  V30 66 1 29 62
M  V30 67 1 30 63
M  V30 68 1 30 64
M  V30 69 1 31 65
M  V30 70 1 31 66
M  V30 71 1 32 67
M  V30 72 1 32 68
M  V30 73 1 33 69
M  V30 74 1 33 70
M  V30 75 1 34 71
M  V30 76 1 35 72
M  V30 END BOND
M  V30 END CTAB
M  END
>  <Dataset>  (577) 
ChEMBL_Kinases

>  <Ligand_Instance>  (577) 
nan

>  <PDB_ID>  (577) 
nan

>  <Standardized_SMILES>  (577) 
NC(=O)c1cc(-c2ccccc2)cc2c(C3CCN(S(=O)(=O)CCCNC4CCCC4)CC3)c[nH]c12

>  <Name>  (577) 
nan

>  <Pocket>  (577) 
nan

>  <ATP_Site>  (577) 
nan

>  <Peripheral>  (577) 
nan

>  <Num_H_Atoms_ProtBoundConf>  (577) 
nan

>  <Num_Resolved_Atoms>  (577) 
nan

>  <Num_Not_Resolved_Atoms>  (577) 
nan

$$$$
CHEMBL4522043
     RDKit          3D

  0  0  0  0  0  0  0  0  0  0999 V3000
M  V30 BEGIN CTAB
M  V30 COUNTS 39 42 0 0 0
M  V30 BEGIN ATOM
M  V30 1 C 1.879846 -5.751397 1.792677 0
M  V30 2 C 1.582214 -4.441579 2.419189 0
M  V30 3 C 1.431224 -4.267112 3.762522 0
M  V30 4 C 1.156294 -3.105460 4.443553 0
M  V30 5 C 1.021248 -1.981322 3.619734 0
M  V30 6 C 1.153521 -2.031529 2.226592 0
M  V30 7 N 1.004632 -0.889857 1.452302 0
M  V30 8 C 0.101585 -0.075515 0.736144 0
M  V30 9 N 0.624423 1.028976 0.126846 0
M  V30 10 C -0.153486 1.863788 -0.576565 0
M  V30 11 C 0.470213 3.026024 -1.202675 0
M  V30 12 C -0.351593 3.870361 -1.920658 0
M  V30 13 C 0.310298 4.954553 -2.488165 0
M  V30 14 N 1.621425 5.204609 -2.379939 0
M  V30 15 C 2.356788 4.315953 -1.651024 0
M  V30 16 C 1.828228 3.196919 -1.033359 0
M  V30 17 N -1.465874 1.598916 -0.676186 0
M  V30 18 C -2.080966 0.542032 -0.116904 0
M  V30 19 C -3.432675 0.292399 -0.234761 0
M  V30 20 N -3.941316 -0.809759 0.375732 0
M  V30 21 C -3.148429 -1.638344 1.078134 0
M  V30 22 C -1.797067 -1.395137 1.200099 0
M  V30 23 C -1.247932 -0.292490 0.597706 0
M  V30 24 C 1.433376 -3.280749 1.674473 0
M  V30 25 H 1.038007 -6.439065 1.988159 0
M  V30 26 H 2.072561 -5.606152 0.713007 0
M  V30 27 H 2.761913 -6.173333 2.323446 0
M  V30 28 H 1.538300 -5.149523 4.394744 0
M  V30 29 H 1.049770 -3.038091 5.508345 0
M  V30 30 H 0.801568 -1.034993 4.126520 0
M  V30 31 H 2.017052 -0.648662 1.503584 0
M  V30 32 H -1.409928 3.713629 -2.037296 0
M  V30 33 H -0.246859 5.686878 -3.078787 0
M  V30 34 H 3.428973 4.521467 -1.563220 0
M  V30 35 H 2.440754 2.519360 -0.466864 0
M  V30 36 H -4.019418 0.993833 -0.811844 0
M  V30 37 H -3.567215 -2.517103 1.562183 0
M  V30 38 H -1.209814 -2.092936 1.774700 0
M  V30 39 H 1.535326 -3.310392 0.583968 0
M  V30 END ATOM
M  V30 BEGIN BOND
M  V30 1 1 1 2
M  V30 2 2 2 3
M  V30 3 1 3 4
M  V30 4 2 4 5
M  V30 5 1 5 6
M  V30 6 1 6 7
M  V30 7 1 7 8
M  V30 8 2 8 9
M  V30 9 1 9 10
M  V30 10 1 10 11
M  V30 11 2 11 12
M  V30 12 1 12 13
M  V30 13 2 13 14
M  V30 14 1 14 15
M  V30 15 2 15 16
M  V30 16 2 10 17
M  V30 17 1 17 18
M  V30 18 2 18 19
M  V30 19 1 19 20
M  V30 20 2 20 21
M  V30 21 1 21 22
M  V30 22 2 22 23
M  V30 23 2 6 24
M  V30 24 1 24 2
M  V30 25 1 23 8
M  V30 26 1 16 11
M  V30 27 1 23 18
M  V30 28 1 1 25
M  V30 29 1 1 26
M  V30 30 1 1 27
M  V30 31 1 3 28
M  V30 32 1 4 29
M  V30 33 1 5 30
M  V30 34 1 7 31
M  V30 35 1 12 32
M  V30 36 1 13 33
M  V30 37 1 15 34
M  V30 38 1 16 35
M  V30 39 1 19 36
M  V30 40 1 21 37
M  V30 41 1 22 38
M  V30 42 1 24 39
M  V30 END BOND
M  V30 END CTAB
M  END
>  <Dataset>  (578) 
ChEMBL_Kinases

>  <Ligand_Instance>  (578) 
nan

>  <PDB_ID>  (578) 
nan

>  <Standardized_SMILES>  (578) 
Cc1cccc(Nc2nc(-c3ccncc3)nc3cnccc23)c1

>  <Name>  (578) 
nan

>  <Pocket>  (578) 
nan

>  <ATP_Site>  (578) 
nan

>  <Peripheral>  (578) 
nan

>  <Num_H_Atoms_ProtBoundConf>  (578) 
nan

>  <Num_Resolved_Atoms>  (578) 
nan

>  <Num_Not_Resolved_Atoms>  (578) 
nan

$$$$
CHEMBL4646272
     RDKit          3D

  0  0  0  0  0  0  0  0  0  0999 V3000
M  V30 BEGIN CTAB
M  V30 COUNTS 65 69 0 0 0
M  V30 BEGIN ATOM
M  V30 1 C -0.574318 -5.600402 1.999154 0
M  V30 2 O 0.231399 -4.814923 2.852763 0
M  V30 3 C 0.304755 -3.447367 2.637240 0
M  V30 4 C -0.385885 -2.832604 1.613882 0
M  V30 5 C -0.318664 -1.471977 1.391790 0
M  V30 6 C -1.017186 -0.839788 0.353884 0
M  V30 7 C -1.864265 -1.642852 -0.520309 0
M  V30 8 N -1.307279 -2.440786 -1.507116 0
M  V30 9 C -0.576171 -1.976341 -2.589531 0
M  V30 10 C 0.748121 -1.332658 -2.271625 0
M  V30 11 C 0.933502 0.021090 -2.927674 0
M  V30 12 N 0.774875 -0.053276 -4.359815 0
M  V30 13 S 0.615792 1.535940 -4.999665 0
M  V30 14 O 0.396952 1.388153 -6.499496 0
M  V30 15 O 1.864959 2.334701 -4.843247 0
M  V30 16 C -0.784130 2.370223 -4.383033 0
M  V30 17 C -0.621587 3.125267 -3.239153 0
M  V30 18 C -1.744089 3.774271 -2.772586 0
M  V30 19 C -3.007803 3.720861 -3.366133 0
M  V30 20 N -4.117958 4.421084 -2.819627 0 CHG=1 VAL=4
M  V30 21 O -3.947908 5.097554 -1.791356 0
M  V30 22 O -5.305563 4.257545 -3.531826 0 CHG=-1 VAL=1
M  V30 23 C -3.109019 2.951410 -4.505335 0
M  V30 24 C -2.016003 2.281954 -5.013162 0
M  V30 25 C -0.398651 -0.827063 -4.728157 0
M  V30 26 C -1.295469 -1.033802 -3.523122 0
M  V30 27 C -0.907546 0.547064 0.179130 0
M  V30 28 C -0.094534 1.278446 1.054084 0
M  V30 29 C 0.608399 0.664045 2.093818 0
M  V30 30 C 0.487887 -0.719678 2.253864 0
M  V30 31 C 1.175160 -1.330097 3.272051 0
M  V30 32 C 1.093128 -2.684887 3.473827 0
M  V30 33 O 1.789105 -3.325668 4.509986 0
M  V30 34 C 2.607573 -2.577559 5.391065 0
M  V30 35 C 1.349796 1.696831 2.810004 0
M  V30 36 O 2.098630 1.543978 3.804307 0
M  V30 37 N 1.109827 2.965977 2.215173 0
M  V30 38 C 0.210475 2.722872 1.117865 0
M  V30 39 O -0.238118 3.605284 0.343418 0
M  V30 40 H -0.157848 -5.657157 0.967143 0
M  V30 41 H -0.665651 -6.641831 2.393780 0
M  V30 42 H -1.602708 -5.197491 1.901008 0
M  V30 43 H -0.986372 -3.440252 0.982921 0
M  V30 44 H -2.527199 -2.310407 0.123379 0
M  V30 45 H -2.659360 -0.992082 -1.014727 0
M  V30 46 H -1.294333 -3.453191 -1.396936 0
M  V30 47 H -0.329478 -2.873368 -3.241919 0
M  V30 48 H 0.867877 -1.237206 -1.186685 0
M  V30 49 H 1.607102 -1.977905 -2.605232 0
M  V30 50 H 0.335606 0.824607 -2.460954 0
M  V30 51 H 1.996203 0.299015 -2.750436 0
M  V30 52 H 0.308351 3.240356 -2.693980 0
M  V30 53 H -1.656439 4.367453 -1.890275 0
M  V30 54 H -4.068838 2.878145 -5.003379 0
M  V30 55 H -2.117324 1.692942 -5.894831 0
M  V30 56 H -0.930250 -0.416821 -5.586715 0
M  V30 57 H -0.039413 -1.847976 -4.999821 0
M  V30 58 H -1.401004 -0.068352 -3.027870 0
M  V30 59 H -2.237143 -1.435548 -3.936780 0
M  V30 60 H -1.443438 1.047234 -0.620910 0
M  V30 61 H 1.787738 -0.767973 3.929143 0
M  V30 62 H 2.009920 -2.053342 6.164660 0
M  V30 63 H 3.301789 -3.319154 5.873083 0
M  V30 64 H 3.243769 -1.830093 4.884489 0
M  V30 65 H 1.478580 3.924443 2.470943 0
M  V30 END ATOM
M  V30 BEGIN BOND
M  V30 1 1 1 2
M  V30 2 1 2 3
M  V30 3 2 3 4
M  V30 4 1 4 5
M  V30 5 2 5 6
M  V30 6 1 6 7
M  V30 7 1 7 8
M  V30 8 1 8 9
M  V30 9 1 9 10
M  V30 10 1 10 11
M  V30 11 1 11 12
M  V30 12 1 12 13
M  V30 13 2 13 14
M  V30 14 2 13 15
M  V30 15 1 13 16
M  V30 16 2 16 17
M  V30 17 1 17 18
M  V30 18 2 18 19
M  V30 19 1 19 20
M  V30 20 2 20 21
M  V30 21 1 20 22
M  V30 22 1 19 23
M  V30 23 2 23 24
M  V30 24 1 12 25
M  V30 25 1 25 26
M  V30 26 1 6 27
M  V30 27 2 27 28
M  V30 28 1 28 29
M  V30 29 2 29 30
M  V30 30 1 30 31
M  V30 31 2 31 32
M  V30 32 1 32 33
M  V30 33 1 33 34
M  V30 34 1 29 35
M  V30 35 2 35 36
M  V30 36 1 35 37
M  V30 37 1 37 38
M  V30 38 2 38 39
M  V30 39 1 32 3
M  V30 40 1 30 5
M  V30 41 1 26 9
M  V30 42 1 38 28
M  V30 43 1 24 16
M  V30 44 1 1 40
M  V30 45 1 1 41
M  V30 46 1 1 42
M  V30 47 1 4 43
M  V30 48 1 7 44
M  V30 49 1 7 45
M  V30 50 1 8 46
M  V30 51 1 9 47
M  V30 52 1 10 48
M  V30 53 1 10 49
M  V30 54 1 11 50
M  V30 55 1 11 51
M  V30 56 1 17 52
M  V30 57 1 18 53
M  V30 58 1 23 54
M  V30 59 1 24 55
M  V30 60 1 25 56
M  V30 61 1 25 57
M  V30 62 1 26 58
M  V30 63 1 26 59
M  V30 64 1 27 60
M  V30 65 1 31 61
M  V30 66 1 34 62
M  V30 67 1 34 63
M  V30 68 1 34 64
M  V30 69 1 37 65
M  V30 END BOND
M  V30 END CTAB
M  END
>  <Dataset>  (579) 
ChEMBL_Kinases

>  <Ligand_Instance>  (579) 
nan

>  <PDB_ID>  (579) 
nan

>  <Standardized_SMILES>  (579) 
COc1cc2c(CNC3CCN(S(=O)(=O)c4ccc([N+](=O)[O-])cc4)CC3)cc3c(c2cc1OC)C(=O)NC3=O

>  <Name>  (579) 
nan

>  <Pocket>  (579) 
nan

>  <ATP_Site>  (579) 
nan

>  <Peripheral>  (579) 
nan

>  <Num_H_Atoms_ProtBoundConf>  (579) 
nan

>  <Num_Resolved_Atoms>  (579) 
nan

>  <Num_Not_Resolved_Atoms>  (579) 
nan

$$$$
CHEMBL4646278
     RDKit          3D

  0  0  0  0  0  0  0  0  0  0999 V3000
M  V30 BEGIN CTAB
M  V30 COUNTS 54 57 0 0 0
M  V30 BEGIN ATOM
M  V30 1 C -2.906526 -7.350083 3.710595 0
M  V30 2 O -3.552427 -6.635435 2.694395 0
M  V30 3 C -3.026115 -5.690840 1.870939 0
M  V30 4 C -1.740918 -5.193648 1.825597 0
M  V30 5 C -1.357362 -4.225579 0.923448 0
M  V30 6 C 0.010545 -3.717792 0.899546 0
M  V30 7 C 1.109439 -4.556542 0.947655 0
M  V30 8 N 2.380700 -4.116240 0.922427 0
M  V30 9 C 2.585486 -2.788117 0.846181 0
M  V30 10 C 1.532020 -1.864713 0.793041 0
M  V30 11 C 1.846135 -0.414133 0.697806 0
M  V30 12 C 1.124367 0.249947 -0.291095 0
M  V30 13 C 1.292763 1.613852 -0.509198 0
M  V30 14 C 2.206879 2.262037 0.303131 0
M  V30 15 N 2.371373 3.679582 0.071332 0
M  V30 16 C 1.444696 4.529768 0.837171 0
M  V30 17 C 0.352976 4.918291 -0.136063 0
M  V30 18 N 0.990408 5.286891 -1.381080 0
M  V30 19 C 2.366826 5.706594 -1.176521 0
M  V30 20 C 3.239805 4.537545 -0.750190 0
M  V30 21 C 2.931764 1.619203 1.288837 0
M  V30 22 C 2.754995 0.252881 1.498389 0
M  V30 23 C 0.216944 -2.352846 0.821427 0
M  V30 24 C -0.877654 -1.392844 0.779283 0
M  V30 25 N -1.748897 -0.632737 0.765849 0
M  V30 26 C -2.308880 -3.731454 0.021908 0
M  V30 27 C -3.622223 -4.199863 0.025093 0
M  V30 28 O -4.552026 -3.716371 -0.857771 0
M  V30 29 C -4.267869 -2.718096 -1.826960 0
M  V30 30 C -3.945182 -5.176975 0.960679 0
M  V30 31 F -5.236849 -5.590533 0.912898 0
M  V30 32 H -3.507230 -7.479470 4.634053 0
M  V30 33 H -1.936099 -6.849021 3.929726 0
M  V30 34 H -2.637750 -8.387392 3.359336 0
M  V30 35 H -1.060914 -5.620117 2.549469 0
M  V30 36 H 0.891999 -5.629342 1.009491 0
M  V30 37 H 3.620227 -2.467615 0.827967 0
M  V30 38 H 0.401918 -0.210535 -0.954377 0
M  V30 39 H 0.737518 2.138219 -1.274992 0
M  V30 40 H 1.906792 5.438624 1.221217 0
M  V30 41 H 0.965374 3.997153 1.665317 0
M  V30 42 H -0.316412 5.715883 0.271486 0
M  V30 43 H -0.346298 4.067075 -0.359338 0
M  V30 44 H 0.475460 6.115180 -1.758975 0
M  V30 45 H 2.725322 6.154391 -2.121376 0
M  V30 46 H 2.442677 6.535088 -0.422902 0
M  V30 47 H 4.047648 4.915451 -0.129918 0
M  V30 48 H 3.556456 3.990651 -1.659400 0
M  V30 49 H 3.640907 2.147249 1.911816 0
M  V30 50 H 3.272174 -0.328900 2.238085 0
M  V30 51 H -2.066021 -2.974463 -0.709946 0
M  V30 52 H -3.705162 -3.201110 -2.641706 0
M  V30 53 H -3.645691 -1.894075 -1.407868 0
M  V30 54 H -5.187129 -2.288128 -2.257214 0
M  V30 END ATOM
M  V30 BEGIN BOND
M  V30 1 1 1 2
M  V30 2 1 2 3
M  V30 3 2 3 4
M  V30 4 1 4 5
M  V30 5 1 5 6
M  V30 6 2 6 7
M  V30 7 1 7 8
M  V30 8 2 8 9
M  V30 9 1 9 10
M  V30 10 1 10 11
M  V30 11 2 11 12
M  V30 12 1 12 13
M  V30 13 2 13 14
M  V30 14 1 14 15
M  V30 15 1 15 16
M  V30 16 1 16 17
M  V30 17 1 17 18
M  V30 18 1 18 19
M  V30 19 1 19 20
M  V30 20 1 14 21
M  V30 21 2 21 22
M  V30 22 2 10 23
M  V30 23 1 23 24
M  V30 24 3 24 25
M  V30 25 2 5 26
M  V30 26 1 26 27
M  V30 27 1 27 28
M  V30 28 1 28 29
M  V30 29 2 27 30
M  V30 30 1 30 31
M  V30 31 1 30 3
M  V30 32 1 23 6
M  V30 33 1 22 11
M  V30 34 1 20 15
M  V30 35 1 1 32
M  V30 36 1 1 33
M  V30 37 1 1 34
M  V30 38 1 4 35
M  V30 39 1 7 36
M  V30 40 1 9 37
M  V30 41 1 12 38
M  V30 42 1 13 39
M  V30 43 1 16 40
M  V30 44 1 16 41
M  V30 45 1 17 42
M  V30 46 1 17 43
M  V30 47 1 18 44
M  V30 48 1 19 45
M  V30 49 1 19 46
M  V30 50 1 20 47
M  V30 51 1 20 48
M  V30 52 1 21 49
M  V30 53 1 22 50
M  V30 54 1 26 51
M  V30 55 1 29 52
M  V30 56 1 29 53
M  V30 57 1 29 54
M  V30 END BOND
M  V30 END CTAB
M  END
>  <Dataset>  (580) 
ChEMBL_Kinases

>  <Ligand_Instance>  (580) 
nan

>  <PDB_ID>  (580) 
nan

>  <Standardized_SMILES>  (580) 
COc1cc(-c2cncc(-c3ccc(N4CCNCC4)cc3)c2C#N)cc(OC)c1F

>  <Name>  (580) 
nan

>  <Pocket>  (580) 
nan

>  <ATP_Site>  (580) 
nan

>  <Peripheral>  (580) 
nan

>  <Num_H_Atoms_ProtBoundConf>  (580) 
nan

>  <Num_Resolved_Atoms>  (580) 
nan

>  <Num_Not_Resolved_Atoms>  (580) 
nan

$$$$
CHEMBL4646296
     RDKit          3D

  0  0  0  0  0  0  0  0  0  0999 V3000
M  V30 BEGIN CTAB
M  V30 COUNTS 44 47 0 0 0
M  V30 BEGIN ATOM
M  V30 1 C -2.098820 -5.034731 2.001156 0
M  V30 2 C -0.978577 -4.741828 1.048548 0
M  V30 3 C -0.825770 -3.418609 0.635854 0
M  V30 4 C 0.183822 -3.044589 -0.244717 0
M  V30 5 C 0.275820 -1.631119 -0.629775 0
M  V30 6 C 0.743200 -1.209505 -1.859465 0
M  V30 7 C 0.781508 0.146503 -2.099866 0
M  V30 8 C 0.379454 1.087642 -1.180004 0
M  V30 9 N 0.325831 2.444448 -1.184990 0
M  V30 10 C -0.159514 2.848279 0.002666 0
M  V30 11 N -0.495956 4.010998 0.755646 0
M  V30 12 C 0.466666 4.566740 1.679761 0
M  V30 13 C 1.707279 3.941866 1.829945 0
M  V30 14 C 2.633640 4.472329 2.727657 0
M  V30 15 C 2.313973 5.586555 3.439375 0
M  V30 16 C 1.095783 6.238792 3.321676 0
M  V30 17 C 0.177339 5.699592 2.421356 0
M  V30 18 C -1.109807 6.327705 2.246619 0
M  V30 19 N -2.164811 6.820285 2.106124 0
M  V30 20 N -0.395328 1.730008 0.716927 0
M  V30 21 N -0.075029 0.646351 0.017933 0
M  V30 22 C -0.126074 -0.692737 0.288778 0
M  V30 23 C 1.046395 -4.020078 -0.711988 0
M  V30 24 C 0.902704 -5.341122 -0.307595 0
M  V30 25 C 1.795259 -6.416754 -0.784664 0
M  V30 26 C -0.113628 -5.711980 0.578324 0
M  V30 27 O -0.300353 -7.018099 1.014675 0
M  V30 28 H -1.851649 -5.898186 2.630427 0
M  V30 29 H -2.235012 -4.114568 2.637411 0
M  V30 30 H -3.023817 -5.159191 1.414406 0
M  V30 31 H -1.527808 -2.666523 1.024072 0
M  V30 32 H 1.057362 -1.934320 -2.582841 0
M  V30 33 H 1.132968 0.546797 -3.036087 0
M  V30 34 H -1.415104 4.494557 0.675990 0
M  V30 35 H 1.892297 3.045615 1.218813 0
M  V30 36 H 3.583178 3.954228 2.812452 0
M  V30 37 H 3.070431 5.944268 4.113777 0
M  V30 38 H 0.882259 7.123773 3.907206 0
M  V30 39 H -0.510757 -0.915598 1.286203 0
M  V30 40 H 1.831533 -3.735945 -1.395296 0
M  V30 41 H 2.562469 -6.706922 -0.040448 0
M  V30 42 H 1.121143 -7.256153 -1.080955 0
M  V30 43 H 2.314768 -6.101157 -1.721391 0
M  V30 44 H 0.528618 -7.578432 1.183895 0
M  V30 END ATOM
M  V30 BEGIN BOND
M  V30 1 1 1 2
M  V30 2 2 2 3
M  V30 3 1 3 4
M  V30 4 1 4 5
M  V30 5 1 5 6
M  V30 6 2 6 7
M  V30 7 1 7 8
M  V30 8 2 8 9
M  V30 9 1 9 10
M  V30 10 1 10 11
M  V30 11 1 11 12
M  V30 12 2 12 13
M  V30 13 1 13 14
M  V30 14 2 14 15
M  V30 15 1 15 16
M  V30 16 2 16 17
M  V30 17 1 17 18
M  V30 18 3 18 19
M  V30 19 2 10 20
M  V30 20 1 20 21
M  V30 21 1 21 22
M  V30 22 2 4 23
M  V30 23 1 23 24
M  V30 24 1 24 25
M  V30 25 2 24 26
M  V30 26 1 26 27
M  V30 27 1 26 2
M  V30 28 2 22 5
M  V30 29 1 21 8
M  V30 30 1 17 12
M  V30 31 1 1 28
M  V30 32 1 1 29
M  V30 33 1 1 30
M  V30 34 1 3 31
M  V30 35 1 6 32
M  V30 36 1 7 33
M  V30 37 1 11 34
M  V30 38 1 13 35
M  V30 39 1 14 36
M  V30 40 1 15 37
M  V30 41 1 16 38
M  V30 42 1 22 39
M  V30 43 1 23 40
M  V30 44 1 25 41
M  V30 45 1 25 42
M  V30 46 1 25 43
M  V30 47 1 27 44
M  V30 END BOND
M  V30 END CTAB
M  END
>  <Dataset>  (581) 
ChEMBL_Kinases

>  <Ligand_Instance>  (581) 
nan

>  <PDB_ID>  (581) 
nan

>  <Standardized_SMILES>  (581) 
Cc1cc(-c2ccc3nc(Nc4ccccc4C#N)nn3c2)cc(C)c1O

>  <Name>  (581) 
nan

>  <Pocket>  (581) 
nan

>  <ATP_Site>  (581) 
nan

>  <Peripheral>  (581) 
nan

>  <Num_H_Atoms_ProtBoundConf>  (581) 
nan

>  <Num_Resolved_Atoms>  (581) 
nan

>  <Num_Not_Resolved_Atoms>  (581) 
nan

$$$$
CHEMBL4521733
     RDKit          3D

  0  0  0  0  0  0  0  0  0  0999 V3000
M  V30 BEGIN CTAB
M  V30 COUNTS 55 59 0 0 0
M  V30 BEGIN ATOM
M  V30 1 O 2.439626 -2.235051 0.264051 0
M  V30 2 C 2.152485 -0.991884 0.436720 0
M  V30 3 N 3.152101 -0.035060 0.405712 0
M  V30 4 C 4.459178 -0.528292 0.190505 0
M  V30 5 C 5.021597 -0.790014 1.454220 0
M  V30 6 C 6.324994 -1.289949 1.534428 0
M  V30 7 N 7.019445 -1.513077 0.411430 0
M  V30 8 N 6.478181 -1.263539 -0.759612 0
M  V30 9 C 5.236736 -0.785253 -0.906256 0
M  V30 10 C 0.872491 -1.642607 0.541627 0
M  V30 11 C 0.398951 -0.248508 0.887291 0
M  V30 12 C -0.920267 0.220718 1.211070 0
M  V30 13 N -1.493428 1.480049 1.532704 0
M  V30 14 C -2.122607 1.717770 2.837641 0
M  V30 15 C -2.623904 3.112177 2.704800 0 CFG=1
M  V30 16 C -1.638522 4.109221 3.216162 0
M  V30 17 O -1.384257 5.041790 2.220100 0
M  V30 18 C -2.380490 4.921927 1.254474 0
M  V30 19 C -2.658534 3.434560 1.224354 0 CFG=1
M  V30 20 C -1.531157 2.647109 0.647274 0
M  V30 21 C -1.977890 -0.704041 1.226176 0
M  V30 22 C -1.596196 -1.982745 0.917566 0
M  V30 23 C -0.308211 -2.242781 0.638405 0
M  V30 24 O 0.412830 -3.392767 0.290856 0
M  V30 25 C -0.107547 -4.644598 0.125384 0
M  V30 26 C -1.090301 -4.847557 -0.968124 0
M  V30 27 C -2.460780 -4.928069 -1.052390 0
M  V30 28 C -3.038819 -5.103305 -2.307785 0
M  V30 29 C -2.339955 -5.203456 -3.484188 0
M  V30 30 C -0.945728 -5.125591 -3.432314 0
M  V30 31 C -0.372762 -4.949176 -2.167462 0
M  V30 32 H 2.578341 0.803707 0.558166 0
M  V30 33 H 4.597297 -0.664456 2.450411 0
M  V30 34 H 6.836453 -1.517503 2.478464 0
M  V30 35 H 4.669717 -0.536606 -1.799408 0
M  V30 36 H 0.759400 0.835720 1.027626 0
M  V30 37 H -1.331841 1.671615 3.643426 0
M  V30 38 H -2.887538 0.982145 3.091469 0
M  V30 39 H -3.651474 3.237211 3.110747 0
M  V30 40 H -2.012873 4.545713 4.144027 0
M  V30 41 H -0.660373 3.622517 3.438579 0
M  V30 42 H -3.286176 5.428940 1.625040 0
M  V30 43 H -2.022148 5.313435 0.284601 0
M  V30 44 H -3.616521 3.206675 0.760366 0
M  V30 45 H -1.775387 2.276005 -0.389910 0
M  V30 46 H -0.541145 3.113940 0.694934 0
M  V30 47 H -3.032810 -0.741005 1.407846 0
M  V30 48 H -2.147635 -2.892804 0.857961 0
M  V30 49 H -0.612409 -5.032381 1.076042 0
M  V30 50 H 0.764148 -5.367091 0.001124 0
M  V30 51 H -2.914447 -4.852204 -0.096581 0
M  V30 52 H -4.124828 -5.153480 -2.263432 0
M  V30 53 H -2.904133 -5.339954 -4.398850 0
M  V30 54 H -0.437406 -5.209332 -4.374638 0
M  V30 55 H 0.721611 -4.909741 -2.315582 0
M  V30 END ATOM
M  V30 BEGIN BOND
M  V30 1 2 1 2
M  V30 2 1 2 3
M  V30 3 1 3 4
M  V30 4 2 4 5
M  V30 5 1 5 6
M  V30 6 2 6 7
M  V30 7 1 7 8
M  V30 8 2 8 9
M  V30 9 1 2 10
M  V30 10 2 10 11
M  V30 11 1 11 12
M  V30 12 1 12 13
M  V30 13 1 13 14
M  V30 14 1 14 15
M  V30 15 1 15 16
M  V30 16 1 16 17
M  V30 17 1 17 18
M  V30 18 1 18 19
M  V30 19 1 19 20
M  V30 20 2 12 21
M  V30 21 1 21 22
M  V30 22 2 22 23
M  V30 23 1 23 24
M  V30 24 1 24 25
M  V30 25 1 25 26
M  V30 26 2 26 27
M  V30 27 1 27 28
M  V30 28 2 28 29
M  V30 29 1 29 30
M  V30 30 2 30 31
M  V30 31 1 9 4
M  V30 32 1 23 10
M  V30 33 1 31 26
M  V30 34 1 20 13
M  V30 35 1 19 15
M  V30 36 1 3 32
M  V30 37 1 5 33
M  V30 38 1 6 34
M  V30 39 1 9 35
M  V30 40 1 11 36
M  V30 41 1 14 37
M  V30 42 1 14 38
M  V30 43 1 15 39 CFG=1
M  V30 44 1 16 40
M  V30 45 1 16 41
M  V30 46 1 18 42
M  V30 47 1 18 43
M  V30 48 1 19 44 CFG=3
M  V30 49 1 20 45
M  V30 50 1 20 46
M  V30 51 1 21 47
M  V30 52 1 22 48
M  V30 53 1 25 49
M  V30 54 1 25 50
M  V30 55 1 27 51
M  V30 56 1 28 52
M  V30 57 1 29 53
M  V30 58 1 30 54
M  V30 59 1 31 55
M  V30 END BOND
M  V30 END CTAB
M  END
>  <Dataset>  (582) 
ChEMBL_Kinases

>  <Ligand_Instance>  (582) 
nan

>  <PDB_ID>  (582) 
nan

>  <Standardized_SMILES>  (582) 
O=C(Nc1ccnnc1)c1cc(N2C[C@H]3COC[C@H]3C2)ccc1OCc1ccccc1

>  <Name>  (582) 
nan

>  <Pocket>  (582) 
nan

>  <ATP_Site>  (582) 
nan

>  <Peripheral>  (582) 
nan

>  <Num_H_Atoms_ProtBoundConf>  (582) 
nan

>  <Num_Resolved_Atoms>  (582) 
nan

>  <Num_Not_Resolved_Atoms>  (582) 
nan

$$$$
CHEMBL4521694
     RDKit          3D

  0  0  0  0  0  0  0  0  0  0999 V3000
M  V30 BEGIN CTAB
M  V30 COUNTS 38 40 0 0 0
M  V30 BEGIN ATOM
M  V30 1 C 0.371063 -4.781829 -1.825258 0
M  V30 2 O 0.713753 -3.571548 -1.190494 0
M  V30 3 C 1.910819 -3.466742 -0.544029 0
M  V30 4 C 2.782958 -4.533438 -0.508557 0
M  V30 5 C 3.997628 -4.471709 0.130411 0
M  V30 6 C 4.280820 -3.268357 0.732389 0
M  V30 7 C 3.417809 -2.197460 0.703144 0
M  V30 8 C 2.183362 -2.279167 0.046541 0
M  V30 9 C 1.377239 -1.071244 0.098342 0
M  V30 10 O 1.782538 -0.028898 0.700837 0
M  V30 11 N 0.113180 -0.817974 -0.445611 0
M  V30 12 C -0.481426 0.462286 -0.259081 0
M  V30 13 C -0.277583 1.500109 -1.166891 0
M  V30 14 C -0.892921 2.713257 -0.909992 0
M  V30 15 C -1.692351 2.909178 0.212449 0
M  V30 16 C -1.863916 1.840207 1.088219 0
M  V30 17 C -2.707204 2.074606 2.256406 0
M  V30 18 N -4.035687 1.895197 2.374414 0
M  V30 19 N -4.445739 2.213073 3.582451 0
M  V30 20 C -3.362808 2.610063 4.273318 0
M  V30 21 N -2.294809 2.524337 3.456634 0
M  V30 22 C -0.948791 2.877576 3.875275 0
M  V30 23 N -1.259676 0.665241 0.826639 0
M  V30 24 H 0.246742 -5.619811 -1.106077 0
M  V30 25 H 1.162256 -5.057170 -2.534800 0
M  V30 26 H -0.591896 -4.719135 -2.369619 0
M  V30 27 H 2.485079 -5.458596 -1.011989 0
M  V30 28 H 4.631957 -5.337274 0.122026 0
M  V30 29 H 5.223474 -3.161799 1.250622 0
M  V30 30 H 3.742891 -1.279129 1.217760 0
M  V30 31 H -0.344391 -1.590775 -0.971892 0
M  V30 32 H 0.344821 1.344115 -2.038809 0
M  V30 33 H -0.754329 3.551775 -1.603162 0
M  V30 34 H -2.149210 3.877964 0.364282 0
M  V30 35 H -3.404335 2.936103 5.318021 0
M  V30 36 H -0.985770 3.890878 4.311624 0
M  V30 37 H -0.552747 2.147343 4.612260 0
M  V30 38 H -0.248083 2.857612 3.014375 0
M  V30 END ATOM
M  V30 BEGIN BOND
M  V30 1 1 1 2
M  V30 2 1 2 3
M  V30 3 2 3 4
M  V30 4 1 4 5
M  V30 5 2 5 6
M  V30 6 1 6 7
M  V30 7 2 7 8
M  V30 8 1 8 9
M  V30 9 2 9 10
M  V30 10 1 9 11
M  V30 11 1 11 12
M  V30 12 2 12 13
M  V30 13 1 13 14
M  V30 14 2 14 15
M  V30 15 1 15 16
M  V30 16 1 16 17
M  V30 17 2 17 18
M  V30 18 1 18 19
M  V30 19 2 19 20
M  V30 20 1 20 21
M  V30 21 1 21 22
M  V30 22 2 16 23
M  V30 23 1 8 3
M  V30 24 1 23 12
M  V30 25 1 21 17
M  V30 26 1 1 24
M  V30 27 1 1 25
M  V30 28 1 1 26
M  V30 29 1 4 27
M  V30 30 1 5 28
M  V30 31 1 6 29
M  V30 32 1 7 30
M  V30 33 1 11 31
M  V30 34 1 13 32
M  V30 35 1 14 33
M  V30 36 1 15 34
M  V30 37 1 20 35
M  V30 38 1 22 36
M  V30 39 1 22 37
M  V30 40 1 22 38
M  V30 END BOND
M  V30 END CTAB
M  END
>  <Dataset>  (583) 
ChEMBL_Kinases

>  <Ligand_Instance>  (583) 
nan

>  <PDB_ID>  (583) 
nan

>  <Standardized_SMILES>  (583) 
COc1ccccc1C(=O)Nc1cccc(-c2nncn2C)n1

>  <Name>  (583) 
nan

>  <Pocket>  (583) 
nan

>  <ATP_Site>  (583) 
nan

>  <Peripheral>  (583) 
nan

>  <Num_H_Atoms_ProtBoundConf>  (583) 
nan

>  <Num_Resolved_Atoms>  (583) 
nan

>  <Num_Not_Resolved_Atoms>  (583) 
nan

$$$$
CHEMBL4646380
     RDKit          3D

  0  0  0  0  0  0  0  0  0  0999 V3000
M  V30 BEGIN CTAB
M  V30 COUNTS 52 55 0 0 0
M  V30 BEGIN ATOM
M  V30 1 C -3.359041 -1.745504 2.942302 0
M  V30 2 C -2.420893 -2.248516 1.931129 0
M  V30 3 C -1.133592 -1.773618 1.815506 0
M  V30 4 C -0.272346 -2.258662 0.855776 0
M  V30 5 C 1.106329 -1.798280 0.606899 0
M  V30 6 C 2.294485 -2.473515 0.438535 0
M  V30 7 N 3.246255 -1.561872 0.205736 0
M  V30 8 C 2.627730 -0.349072 0.235728 0
M  V30 9 C 3.162283 0.905482 0.047127 0
M  V30 10 N 4.521083 1.165192 -0.242718 0
M  V30 11 C 5.404291 2.271423 -0.486295 0
M  V30 12 C 5.689649 3.148402 0.691827 0
M  V30 13 C 4.493346 3.823120 1.288581 0
M  V30 14 C 6.461367 2.372104 1.765898 0
M  V30 15 N 2.344328 1.964903 0.117912 0
M  V30 16 C 1.028709 1.918141 0.358734 0
M  V30 17 C 0.542405 0.644140 0.538729 0
M  V30 18 N 1.321118 -0.457949 0.478589 0
M  V30 19 C -0.657782 -3.244908 -0.035022 0
M  V30 20 C -1.973245 -3.703971 0.112067 0
M  V30 21 C -2.869147 -3.246166 1.056368 0
M  V30 22 C -4.206904 -3.820245 1.060980 0
M  V30 23 O -4.717302 -4.731395 1.798696 0
M  V30 24 N -5.102009 -3.291193 0.091226 0
M  V30 25 C -6.497935 -3.663284 -0.145701 0
M  V30 26 C -7.417551 -2.622129 -0.742676 0
M  V30 27 C -6.914698 -3.705027 -1.641369 0
M  V30 28 H -2.744939 -1.561366 3.872575 0
M  V30 29 H -4.125453 -2.464946 3.224321 0
M  V30 30 H -3.740970 -0.727131 2.683854 0
M  V30 31 H -0.753735 -1.017278 2.473477 0
M  V30 32 H 2.359772 -3.548235 0.498365 0
M  V30 33 H 5.081965 0.257375 -0.295278 0
M  V30 34 H 4.823129 2.932497 -1.222222 0
M  V30 35 H 6.308322 2.009256 -1.062845 0
M  V30 36 H 6.393555 3.956604 0.336156 0
M  V30 37 H 3.935348 3.213400 2.012666 0
M  V30 38 H 4.815808 4.736121 1.880413 0
M  V30 39 H 3.819104 4.239846 0.493311 0
M  V30 40 H 7.389742 2.019090 1.263544 0
M  V30 41 H 5.846785 1.532321 2.132767 0
M  V30 42 H 6.754521 3.024784 2.602184 0
M  V30 43 H 0.367409 2.769196 0.416234 0
M  V30 44 H -0.526256 0.554751 0.730352 0
M  V30 45 H -0.040142 -3.674217 -0.810204 0
M  V30 46 H -2.299643 -4.490388 -0.588594 0
M  V30 47 H -4.770780 -2.527167 -0.574981 0
M  V30 48 H -6.965117 -4.428946 0.485078 0
M  V30 49 H -8.495909 -2.620903 -0.464384 0
M  V30 50 H -6.936842 -1.615490 -0.929259 0
M  V30 51 H -6.146613 -3.508225 -2.398534 0
M  V30 52 H -7.685654 -4.475091 -1.919869 0
M  V30 END ATOM
M  V30 BEGIN BOND
M  V30 1 1 1 2
M  V30 2 2 2 3
M  V30 3 1 3 4
M  V30 4 1 4 5
M  V30 5 2 5 6
M  V30 6 1 6 7
M  V30 7 2 7 8
M  V30 8 1 8 9
M  V30 9 1 9 10
M  V30 10 1 10 11
M  V30 11 1 11 12
M  V30 12 1 12 13
M  V30 13 1 12 14
M  V30 14 2 9 15
M  V30 15 1 15 16
M  V30 16 2 16 17
M  V30 17 1 17 18
M  V30 18 2 4 19
M  V30 19 1 19 20
M  V30 20 2 20 21
M  V30 21 1 21 22
M  V30 22 2 22 23
M  V30 23 1 22 24
M  V30 24 1 24 25
M  V30 25 1 25 26
M  V30 26 1 26 27
M  V30 27 1 21 2
M  V30 28 1 27 25
M  V30 29 1 18 5
M  V30 30 1 18 8
M  V30 31 1 1 28
M  V30 32 1 1 29
M  V30 33 1 1 30
M  V30 34 1 3 31
M  V30 35 1 6 32
M  V30 36 1 10 33
M  V30 37 1 11 34
M  V30 38 1 11 35
M  V30 39 1 12 36
M  V30 40 1 13 37
M  V30 41 1 13 38
M  V30 42 1 13 39
M  V30 43 1 14 40
M  V30 44 1 14 41
M  V30 45 1 14 42
M  V30 46 1 16 43
M  V30 47 1 17 44
M  V30 48 1 19 45
M  V30 49 1 20 46
M  V30 50 1 24 47
M  V30 51 1 25 48
M  V30 52 1 26 49
M  V30 53 1 26 50
M  V30 54 1 27 51
M  V30 55 1 27 52
M  V30 END BOND
M  V30 END CTAB
M  END
>  <Dataset>  (584) 
ChEMBL_Kinases

>  <Ligand_Instance>  (584) 
nan

>  <PDB_ID>  (584) 
nan

>  <Standardized_SMILES>  (584) 
Cc1cc(-c2cnc3c(NCC(C)C)nccn23)ccc1C(=O)NC1CC1

>  <Name>  (584) 
nan

>  <Pocket>  (584) 
nan

>  <ATP_Site>  (584) 
nan

>  <Peripheral>  (584) 
nan

>  <Num_H_Atoms_ProtBoundConf>  (584) 
nan

>  <Num_Resolved_Atoms>  (584) 
nan

>  <Num_Not_Resolved_Atoms>  (584) 
nan

$$$$
CHEMBL4646447
     RDKit          3D

  0  0  0  0  0  0  0  0  0  0999 V3000
M  V30 BEGIN CTAB
M  V30 COUNTS 50 53 0 0 0
M  V30 BEGIN ATOM
M  V30 1 C 2.018256 0.206760 -3.488366 0
M  V30 2 N 2.749932 0.113995 -2.244555 0
M  V30 3 C 4.186783 0.247658 -2.247296 0
M  V30 4 O 4.679202 0.151766 -3.403513 0
M  V30 5 C 5.089889 0.472737 -1.098879 0
M  V30 6 C 6.400942 0.521986 -1.529931 0
M  V30 7 C 7.341437 0.730348 -0.530673 0
M  V30 8 C 7.024305 0.880909 0.802261 0
M  V30 9 C 5.692801 0.824369 1.190730 0
M  V30 10 C 4.719224 0.618624 0.231520 0
M  V30 11 N 3.434631 0.597221 0.857258 0
M  V30 12 C 3.304646 1.134678 2.190442 0
M  V30 13 C 2.239090 0.082522 0.275396 0
M  V30 14 N 1.315970 -0.221603 1.197115 0
M  V30 15 C 0.100557 -0.724282 0.909134 0
M  V30 16 N -0.807338 -1.015507 1.932017 0
M  V30 17 C -2.101818 -1.536137 1.844878 0
M  V30 18 C -2.768129 -1.879339 0.692362 0
M  V30 19 C -4.045093 -2.392684 0.611098 0
M  V30 20 C -4.737207 -2.588039 1.788241 0
M  V30 21 N -6.055198 -3.110070 1.820206 0
M  V30 22 S -7.324581 -2.450835 2.794060 0
M  V30 23 C -7.688230 -0.778543 2.353034 0
M  V30 24 O -7.001057 -2.516104 4.259781 0
M  V30 25 O -8.552394 -3.262095 2.585310 0
M  V30 26 C -4.136045 -2.268256 2.977405 0
M  V30 27 C -2.857918 -1.760094 2.975453 0
M  V30 28 N -0.140590 -0.909038 -0.396596 0
M  V30 29 C 0.743573 -0.623270 -1.360619 0
M  V30 30 C 1.986200 -0.109239 -1.064677 0
M  V30 31 H 1.119860 0.863785 -3.399637 0
M  V30 32 H 2.689694 0.795392 -4.181176 0
M  V30 33 H 1.856171 -0.735991 -4.006997 0
M  V30 34 H 6.663775 0.405384 -2.572635 0
M  V30 35 H 8.394660 0.778854 -0.809255 0
M  V30 36 H 7.841585 1.041018 1.512147 0
M  V30 37 H 5.427674 0.938964 2.219839 0
M  V30 38 H 2.217923 1.392182 2.353598 0
M  V30 39 H 3.569284 0.456879 2.999000 0
M  V30 40 H 3.787784 2.151055 2.275186 0
M  V30 41 H -0.471463 -0.814482 2.921172 0
M  V30 42 H -2.294579 -1.755391 -0.256017 0
M  V30 43 H -4.522308 -2.645598 -0.319033 0
M  V30 44 H -6.212998 -3.951251 1.192069 0
M  V30 45 H -6.728323 -0.258370 2.145077 0
M  V30 46 H -8.399373 -0.702988 1.500389 0
M  V30 47 H -8.216285 -0.294466 3.207872 0
M  V30 48 H -4.672528 -2.419322 3.895145 0
M  V30 49 H -2.444865 -1.528318 3.969845 0
M  V30 50 H 0.483994 -0.797209 -2.399921 0
M  V30 END ATOM
M  V30 BEGIN BOND
M  V30 1 1 1 2
M  V30 2 1 2 3
M  V30 3 2 3 4
M  V30 4 1 3 5
M  V30 5 2 5 6
M  V30 6 1 6 7
M  V30 7 2 7 8
M  V30 8 1 8 9
M  V30 9 2 9 10
M  V30 10 1 10 11
M  V30 11 1 11 12
M  V30 12 1 11 13
M  V30 13 2 13 14
M  V30 14 1 14 15
M  V30 15 1 15 16
M  V30 16 1 16 17
M  V30 17 2 17 18
M  V30 18 1 18 19
M  V30 19 2 19 20
M  V30 20 1 20 21
M  V30 21 1 21 22
M  V30 22 1 22 23
M  V30 23 2 22 24
M  V30 24 2 22 25
M  V30 25 1 20 26
M  V30 26 2 26 27
M  V30 27 2 15 28
M  V30 28 1 28 29
M  V30 29 2 29 30
M  V30 30 1 30 2
M  V30 31 1 10 5
M  V30 32 1 30 13
M  V30 33 1 27 17
M  V30 34 1 1 31
M  V30 35 1 1 32
M  V30 36 1 1 33
M  V30 37 1 6 34
M  V30 38 1 7 35
M  V30 39 1 8 36
M  V30 40 1 9 37
M  V30 41 1 12 38
M  V30 42 1 12 39
M  V30 43 1 12 40
M  V30 44 1 16 41
M  V30 45 1 18 42
M  V30 46 1 19 43
M  V30 47 1 21 44
M  V30 48 1 23 45
M  V30 49 1 23 46
M  V30 50 1 23 47
M  V30 51 1 26 48
M  V30 52 1 27 49
M  V30 53 1 29 50
M  V30 END BOND
M  V30 END CTAB
M  END
>  <Dataset>  (585) 
ChEMBL_Kinases

>  <Ligand_Instance>  (585) 
nan

>  <PDB_ID>  (585) 
nan

>  <Standardized_SMILES>  (585) 
CN1C(=O)c2ccccc2N(C)c2nc(Nc3ccc(NS(C)(=O)=O)cc3)ncc21

>  <Name>  (585) 
nan

>  <Pocket>  (585) 
nan

>  <ATP_Site>  (585) 
nan

>  <Peripheral>  (585) 
nan

>  <Num_H_Atoms_ProtBoundConf>  (585) 
nan

>  <Num_Resolved_Atoms>  (585) 
nan

>  <Num_Not_Resolved_Atoms>  (585) 
nan

$$$$
CHEMBL4521651
     RDKit          3D

  0  0  0  0  0  0  0  0  0  0999 V3000
M  V30 BEGIN CTAB
M  V30 COUNTS 59 62 0 0 0
M  V30 BEGIN ATOM
M  V30 1 C 3.981218 -5.415606 2.776490 0
M  V30 2 O 2.771086 -4.748270 3.085974 0
M  V30 3 C 2.447432 -3.502376 2.581601 0
M  V30 4 C 3.188432 -2.660687 1.724638 0
M  V30 5 C 2.570906 -1.441868 1.381024 0
M  V30 6 C 1.292994 -1.000024 1.814999 0
M  V30 7 O 1.279039 0.189961 1.170069 0
M  V30 8 C 0.254227 0.873525 0.646243 0
M  V30 9 N 0.894537 1.987154 0.166494 0
M  V30 10 C 0.231395 2.987243 -0.459660 0
M  V30 11 N 0.734876 4.199598 -1.028110 0
M  V30 12 C 0.973742 5.525900 -0.575391 0
M  V30 13 C 1.513350 6.423252 -1.454061 0
M  V30 14 C 1.731714 7.693088 -0.981792 0
M  V30 15 C 1.442496 8.102193 0.303574 0
M  V30 16 F 1.628464 9.340018 0.830619 0
M  V30 17 C 0.889155 7.175908 1.201706 0
M  V30 18 C 0.680727 5.914291 0.704180 0
M  V30 19 N -1.123020 2.954724 -0.656155 0
M  V30 20 C -1.821039 1.872394 -0.204879 0
M  V30 21 C -1.093238 0.892358 0.420256 0
M  V30 22 N -1.688441 -0.315121 0.861910 0
M  V30 23 C -1.634805 -1.494220 0.161566 0
M  V30 24 O -0.909711 -0.920233 -0.785058 0
M  V30 25 C -1.849687 -2.848448 -0.170875 0
M  V30 26 C -2.754801 -3.526668 0.592789 0
M  V30 27 C -3.115081 -4.877962 0.448180 0
M  V30 28 O -4.001206 -5.652446 1.148589 0
M  V30 29 C -4.748413 -5.166680 2.222754 0
M  V30 30 C -2.402212 -5.458812 -0.616241 0
M  V30 31 C -1.455354 -4.848382 -1.453791 0
M  V30 32 O -0.849936 -5.574411 -2.450466 0
M  V30 33 C 0.098065 -4.953692 -3.286864 0
M  V30 34 C -1.252153 -3.552390 -1.150819 0
M  V30 35 C 0.676022 -1.884183 2.629719 0
M  V30 36 C 1.203311 -3.085715 3.012777 0
M  V30 37 H 3.732447 -6.032567 1.865474 0
M  V30 38 H 4.245376 -6.161348 3.547797 0
M  V30 39 H 4.822821 -4.728602 2.612608 0
M  V30 40 H 4.131948 -3.131017 1.482788 0
M  V30 41 H 3.363580 -1.010212 0.734817 0
M  V30 42 H 0.939517 3.917006 -2.017524 0
M  V30 43 H 1.789345 6.244915 -2.480128 0
M  V30 44 H 2.166232 8.455323 -1.642790 0
M  V30 45 H 0.643480 7.429475 2.219446 0
M  V30 46 H 0.259458 5.111125 1.317909 0
M  V30 47 H -2.875206 1.663830 -0.263186 0
M  V30 48 H -2.266230 -0.732220 1.687799 0
M  V30 49 H -3.289071 -3.046582 1.411804 0
M  V30 50 H -5.839332 -5.284758 1.993196 0
M  V30 51 H -4.637228 -4.082462 2.441222 0
M  V30 52 H -4.557241 -5.738028 3.166436 0
M  V30 53 H -2.609567 -6.516065 -0.812199 0
M  V30 54 H 1.134966 -4.968920 -2.894100 0
M  V30 55 H -0.158177 -3.922143 -3.506224 0
M  V30 56 H 0.171751 -5.536420 -4.256202 0
M  V30 57 H -0.511671 -3.026702 -1.769576 0
M  V30 58 H -0.294174 -1.498128 2.877946 0
M  V30 59 H 0.521756 -3.623848 3.680244 0
M  V30 END ATOM
M  V30 BEGIN BOND
M  V30 1 1 1 2
M  V30 2 1 2 3
M  V30 3 2 3 4
M  V30 4 1 4 5
M  V30 5 2 5 6
M  V30 6 1 6 7
M  V30 7 1 7 8
M  V30 8 2 8 9
M  V30 9 1 9 10
M  V30 10 1 10 11
M  V30 11 1 11 12
M  V30 12 2 12 13
M  V30 13 1 13 14
M  V30 14 2 14 15
M  V30 15 1 15 16
M  V30 16 1 15 17
M  V30 17 2 17 18
M  V30 18 2 10 19
M  V30 19 1 19 20
M  V30 20 2 20 21
M  V30 21 1 21 22
M  V30 22 1 22 23
M  V30 23 2 23 24
M  V30 24 1 23 25
M  V30 25 2 25 26
M  V30 26 1 26 27
M  V30 27 1 27 28
M  V30 28 1 28 29
M  V30 29 2 27 30
M  V30 30 1 30 31
M  V30 31 1 31 32
M  V30 32 1 32 33
M  V30 33 2 31 34
M  V30 34 1 6 35
M  V30 35 2 35 36
M  V30 36 1 36 3
M  V30 37 1 21 8
M  V30 38 1 34 25
M  V30 39 1 18 12
M  V30 40 1 1 37
M  V30 41 1 1 38
M  V30 42 1 1 39
M  V30 43 1 4 40
M  V30 44 1 5 41
M  V30 45 1 11 42
M  V30 46 1 13 43
M  V30 47 1 14 44
M  V30 48 1 17 45
M  V30 49 1 18 46
M  V30 50 1 20 47
M  V30 51 1 22 48
M  V30 52 1 26 49
M  V30 53 1 29 50
M  V30 54 1 29 51
M  V30 55 1 29 52
M  V30 56 1 30 53
M  V30 57 1 33 54
M  V30 58 1 33 55
M  V30 59 1 33 56
M  V30 60 1 34 57
M  V30 61 1 35 58
M  V30 62 1 36 59
M  V30 END BOND
M  V30 END CTAB
M  END
>  <Dataset>  (586) 
ChEMBL_Kinases

>  <Ligand_Instance>  (586) 
nan

>  <PDB_ID>  (586) 
nan

>  <Standardized_SMILES>  (586) 
COc1ccc(Oc2nc(Nc3ccc(F)cc3)ncc2NC(=O)c2cc(OC)cc(OC)c2)cc1

>  <Name>  (586) 
nan

>  <Pocket>  (586) 
nan

>  <ATP_Site>  (586) 
nan

>  <Peripheral>  (586) 
nan

>  <Num_H_Atoms_ProtBoundConf>  (586) 
nan

>  <Num_Resolved_Atoms>  (586) 
nan

>  <Num_Not_Resolved_Atoms>  (586) 
nan

$$$$
CHEMBL4646383
     RDKit          3D

  0  0  0  0  0  0  0  0  0  0999 V3000
M  V30 BEGIN CTAB
M  V30 COUNTS 72 76 0 0 0
M  V30 BEGIN ATOM
M  V30 1 C 3.595411 -5.643921 3.026444 0
M  V30 2 C 4.730291 -4.758841 2.493316 0
M  V30 3 O 4.114448 -3.643616 1.947068 0
M  V30 4 C 4.729026 -2.579886 1.354878 0
M  V30 5 O 5.830704 -3.141914 1.583847 0
M  V30 6 C 4.519674 -1.308038 0.702837 0
M  V30 7 C 5.678741 -0.696029 0.306525 0
M  V30 8 N 5.622343 0.491686 -0.313718 0
M  V30 9 C 4.420342 1.081917 -0.545765 0
M  V30 10 C 4.449245 2.302307 -1.181568 0
M  V30 11 C 3.251535 2.937902 -1.430169 0
M  V30 12 C 2.103883 2.295901 -1.018666 0
M  V30 13 C 0.821212 2.938622 -1.277226 0
M  V30 14 C -0.380032 2.362512 -0.911211 0
M  V30 15 C -1.593777 2.979033 -1.161132 0
M  V30 16 N -1.662253 4.163417 -1.769857 0
M  V30 17 C -0.512782 4.783102 -2.155562 0
M  V30 18 N -0.574972 6.061239 -2.814203 0
M  V30 19 C 0.682775 4.157575 -1.899753 0
M  V30 20 N 2.176509 1.121922 -0.413746 0
M  V30 21 C 3.285166 0.425906 -0.127921 0
M  V30 22 C 3.257615 -0.794057 0.514365 0
M  V30 23 N 2.090113 -1.413375 0.945734 0
M  V30 24 C 0.675626 -1.192157 0.880333 0 CFG=1
M  V30 25 C 0.184222 -1.503883 -0.487997 0
M  V30 26 C -1.340783 -1.658040 -0.542183 0
M  V30 27 C -1.847385 -2.669207 0.391975 0 CFG=2
M  V30 28 C -3.144609 -2.402469 1.075257 0
M  V30 29 N -4.331504 -2.245375 0.330182 0
M  V30 30 C -5.510341 -2.198780 1.225444 0
M  V30 31 C -6.115044 -0.839997 1.323363 0
M  V30 32 C -6.700831 -0.442563 -0.022243 0
M  V30 33 C -5.788211 -0.960547 -1.115117 0
M  V30 34 C -4.364873 -1.141825 -0.572090 0
M  V30 35 C -0.792326 -3.160204 1.372181 0
M  V30 36 C 0.011579 -2.029820 1.947049 0
M  V30 37 H 3.253565 -6.326494 2.225193 0
M  V30 38 H 2.694336 -5.016942 3.294924 0
M  V30 39 H 3.880913 -6.132190 3.965464 0
M  V30 40 H 5.374394 -5.340625 1.818790 0
M  V30 41 H 5.286760 -4.422508 3.416957 0
M  V30 42 H 6.648525 -1.112843 0.462786 0
M  V30 43 H 5.393645 2.742655 -1.474877 0
M  V30 44 H 3.324560 3.874740 -1.922336 0
M  V30 45 H -0.416265 1.414263 -0.420482 0
M  V30 46 H -2.525405 2.485298 -0.852580 0
M  V30 47 H -1.469815 6.267939 -3.330107 0
M  V30 48 H -1.428637 6.352606 -3.352968 0
M  V30 49 H 1.532586 4.701485 -2.228688 0
M  V30 50 H 2.313474 -2.309238 1.468215 0
M  V30 51 H 0.472028 -0.112478 1.165822 0
M  V30 52 H 0.406964 -0.716228 -1.203366 0
M  V30 53 H 0.679056 -2.434839 -0.830519 0
M  V30 54 H -1.539457 -1.915458 -1.604351 0
M  V30 55 H -1.801309 -0.674380 -0.343123 0
M  V30 56 H -2.047219 -3.603558 -0.241727 0
M  V30 57 H -3.304834 -3.142644 1.915772 0
M  V30 58 H -2.990253 -1.434536 1.674160 0
M  V30 59 H -5.251321 -2.586073 2.213239 0
M  V30 60 H -6.244227 -2.893879 0.767835 0
M  V30 61 H -6.982098 -0.917726 2.009805 0
M  V30 62 H -5.402530 -0.086059 1.699380 0
M  V30 63 H -7.703358 -0.893183 -0.137683 0
M  V30 64 H -6.797746 0.645535 -0.011992 0
M  V30 65 H -5.728612 -0.184976 -1.899312 0
M  V30 66 H -6.162883 -1.889440 -1.569919 0
M  V30 67 H -4.027959 -0.174248 -0.161877 0
M  V30 68 H -3.767176 -1.373288 -1.463473 0
M  V30 69 H -0.114149 -3.836878 0.824258 0
M  V30 70 H -1.318334 -3.732646 2.153382 0
M  V30 71 H -0.690684 -1.400086 2.523042 0
M  V30 72 H 0.765000 -2.417708 2.660316 0
M  V30 END ATOM
M  V30 BEGIN BOND
M  V30 1 1 1 2
M  V30 2 1 2 3
M  V30 3 1 3 4
M  V30 4 2 4 5
M  V30 5 1 4 6
M  V30 6 2 6 7
M  V30 7 1 7 8
M  V30 8 2 8 9
M  V30 9 1 9 10
M  V30 10 2 10 11
M  V30 11 1 11 12
M  V30 12 1 12 13
M  V30 13 2 13 14
M  V30 14 1 14 15
M  V30 15 2 15 16
M  V30 16 1 16 17
M  V30 17 1 17 18
M  V30 18 2 17 19
M  V30 19 2 12 20
M  V30 20 1 20 21
M  V30 21 2 21 22
M  V30 22 1 22 23
M  V30 23 1 23 24
M  V30 24 1 24 25
M  V30 25 1 25 26
M  V30 26 1 26 27
M  V30 27 1 27 28
M  V30 28 1 28 29
M  V30 29 1 29 30
M  V30 30 1 30 31
M  V30 31 1 31 32
M  V30 32 1 32 33
M  V30 33 1 33 34
M  V30 34 1 27 35
M  V30 35 1 35 36
M  V30 36 1 22 6
M  V30 37 1 36 24
M  V30 38 1 21 9
M  V30 39 1 34 29
M  V30 40 1 19 13
M  V30 41 1 1 37
M  V30 42 1 1 38
M  V30 43 1 1 39
M  V30 44 1 2 40
M  V30 45 1 2 41
M  V30 46 1 7 42
M  V30 47 1 10 43
M  V30 48 1 11 44
M  V30 49 1 14 45
M  V30 50 1 15 46
M  V30 51 1 18 47
M  V30 52 1 18 48
M  V30 53 1 19 49
M  V30 54 1 23 50
M  V30 55 1 24 51 CFG=1
M  V30 56 1 25 52
M  V30 57 1 25 53
M  V30 58 1 26 54
M  V30 59 1 26 55
M  V30 60 1 27 56 CFG=3
M  V30 61 1 28 57
M  V30 62 1 28 58
M  V30 63 1 30 59
M  V30 64 1 30 60
M  V30 65 1 31 61
M  V30 66 1 31 62
M  V30 67 1 32 63
M  V30 68 1 32 64
M  V30 69 1 33 65
M  V30 70 1 33 66
M  V30 71 1 34 67
M  V30 72 1 34 68
M  V30 73 1 35 69
M  V30 74 1 35 70
M  V30 75 1 36 71
M  V30 76 1 36 72
M  V30 END BOND
M  V30 END CTAB
M  END
>  <Dataset>  (587) 
ChEMBL_Kinases

>  <Ligand_Instance>  (587) 
nan

>  <PDB_ID>  (587) 
nan

>  <Standardized_SMILES>  (587) 
CCOC(=O)c1cnc2ccc(-c3ccnc(N)c3)nc2c1N[C@H]1CC[C@H](CN2CCCCC2)CC1

>  <Name>  (587) 
nan

>  <Pocket>  (587) 
nan

>  <ATP_Site>  (587) 
nan

>  <Peripheral>  (587) 
nan

>  <Num_H_Atoms_ProtBoundConf>  (587) 
nan

>  <Num_Resolved_Atoms>  (587) 
nan

>  <Num_Not_Resolved_Atoms>  (587) 
nan

$$$$
CHEMBL4521564
     RDKit          3D

  0  0  0  0  0  0  0  0  0  0999 V3000
M  V30 BEGIN CTAB
M  V30 COUNTS 53 55 0 0 0
M  V30 BEGIN ATOM
M  V30 1 C 4.657296 -3.145013 2.454878 0
M  V30 2 C 3.538650 -3.378120 1.466032 0
M  V30 3 C 2.339473 -3.947634 2.207710 0
M  V30 4 O 3.899062 -4.207040 0.426008 0
M  V30 5 C 3.143813 -1.977953 0.929180 0
M  V30 6 O 2.811446 -1.251639 2.018018 0
M  V30 7 C 2.441190 0.036181 1.930793 0
M  V30 8 C 1.233242 0.379959 1.102978 0
M  V30 9 C 1.053689 1.908293 1.348246 0
M  V30 10 C 1.572317 0.269585 -0.350477 0
M  V30 11 N 0.025715 -0.296303 1.513203 0
M  V30 12 C -1.276074 -0.292233 0.961009 0
M  V30 13 C -1.632828 0.413203 -0.169478 0
M  V30 14 C -2.889781 0.427821 -0.728982 0
M  V30 15 C -3.271980 1.168821 -1.919368 0
M  V30 16 C -4.578627 1.070676 -2.344008 0
M  V30 17 C -4.993473 1.755093 -3.469993 0
M  V30 18 N -4.174425 2.542262 -4.208929 0
M  V30 19 C -2.887952 2.641615 -3.794617 0
M  V30 20 C -2.434570 1.967470 -2.666331 0
M  V30 21 N -3.823419 -0.312048 -0.104688 0
M  V30 22 C -3.555697 -1.028500 1.002591 0
M  V30 23 C -4.567170 -1.760933 1.583257 0
M  V30 24 N -4.346888 -2.504273 2.707649 0
M  V30 25 C -3.117670 -2.533743 3.276013 0
M  V30 26 C -2.136276 -1.792559 2.670309 0
M  V30 27 C -2.288887 -1.023571 1.539397 0
M  V30 28 H 5.660610 -3.279235 1.976666 0
M  V30 29 H 4.661150 -2.127782 2.893627 0
M  V30 30 H 4.540212 -3.848339 3.329029 0
M  V30 31 H 2.132047 -4.994936 1.893789 0
M  V30 32 H 2.513341 -3.987355 3.310870 0
M  V30 33 H 1.446656 -3.349152 2.002233 0
M  V30 34 H 4.872374 -4.367932 0.475044 0
M  V30 35 H 2.317003 -2.162506 0.202746 0
M  V30 36 H 4.068842 -1.587295 0.470549 0
M  V30 37 H 3.316742 0.641963 1.566893 0
M  V30 38 H 2.269871 0.407711 2.980748 0
M  V30 39 H 0.643857 2.091444 2.341396 0
M  V30 40 H 2.107316 2.315491 1.335834 0
M  V30 41 H 0.554672 2.399354 0.515766 0
M  V30 42 H 2.657059 0.036628 -0.547639 0
M  V30 43 H 0.988913 -0.523960 -0.856111 0
M  V30 44 H 1.434062 1.239653 -0.909984 0
M  V30 45 H 0.223572 -0.847602 2.344880 0
M  V30 46 H -0.917572 1.007763 -0.693418 0
M  V30 47 H -5.347297 0.468507 -1.839709 0
M  V30 48 H -6.009331 1.725088 -3.864262 0
M  V30 49 H -2.175815 3.255244 -4.339045 0
M  V30 50 H -1.413948 2.060668 -2.357540 0
M  V30 51 H -5.548532 -1.733842 1.124568 0
M  V30 52 H -2.966790 -3.126236 4.161643 0
M  V30 53 H -1.183125 -1.856745 3.168629 0
M  V30 END ATOM
M  V30 BEGIN BOND
M  V30 1 1 1 2
M  V30 2 1 2 3
M  V30 3 1 2 4
M  V30 4 1 2 5
M  V30 5 1 5 6
M  V30 6 1 6 7
M  V30 7 1 7 8
M  V30 8 1 8 9
M  V30 9 1 8 10
M  V30 10 1 8 11
M  V30 11 1 11 12
M  V30 12 2 12 13
M  V30 13 1 13 14
M  V30 14 1 14 15
M  V30 15 2 15 16
M  V30 16 1 16 17
M  V30 17 2 17 18
M  V30 18 1 18 19
M  V30 19 2 19 20
M  V30 20 2 14 21
M  V30 21 1 21 22
M  V30 22 2 22 23
M  V30 23 1 23 24
M  V30 24 2 24 25
M  V30 25 1 25 26
M  V30 26 2 26 27
M  V30 27 1 27 12
M  V30 28 1 20 15
M  V30 29 1 27 22
M  V30 30 1 1 28
M  V30 31 1 1 29
M  V30 32 1 1 30
M  V30 33 1 3 31
M  V30 34 1 3 32
M  V30 35 1 3 33
M  V30 36 1 4 34
M  V30 37 1 5 35
M  V30 38 1 5 36
M  V30 39 1 7 37
M  V30 40 1 7 38
M  V30 41 1 9 39
M  V30 42 1 9 40
M  V30 43 1 9 41
M  V30 44 1 10 42
M  V30 45 1 10 43
M  V30 46 1 10 44
M  V30 47 1 11 45
M  V30 48 1 13 46
M  V30 49 1 16 47
M  V30 50 1 17 48
M  V30 51 1 19 49
M  V30 52 1 20 50
M  V30 53 1 23 51
M  V30 54 1 25 52
M  V30 55 1 26 53
M  V30 END BOND
M  V30 END CTAB
M  END
>  <Dataset>  (588) 
ChEMBL_Kinases

>  <Ligand_Instance>  (588) 
nan

>  <PDB_ID>  (588) 
nan

>  <Standardized_SMILES>  (588) 
CC(C)(O)COCC(C)(C)Nc1cc(-c2ccncc2)nc2cnccc12

>  <Name>  (588) 
nan

>  <Pocket>  (588) 
nan

>  <ATP_Site>  (588) 
nan

>  <Peripheral>  (588) 
nan

>  <Num_H_Atoms_ProtBoundConf>  (588) 
nan

>  <Num_Resolved_Atoms>  (588) 
nan

>  <Num_Not_Resolved_Atoms>  (588) 
nan

$$$$
CHEMBL4521500
     RDKit          3D

  0  0  0  0  0  0  0  0  0  0999 V3000
M  V30 BEGIN CTAB
M  V30 COUNTS 53 56 0 0 0
M  V30 BEGIN ATOM
M  V30 1 C 3.016172 -5.077349 -2.710892 0
M  V30 2 C 3.640858 -4.824571 -1.404811 0
M  V30 3 O 4.189071 -5.780081 -0.805504 0
M  V30 4 C 3.667011 -3.533634 -0.755387 0
M  V30 5 C 4.282131 -3.411124 0.472435 0
M  V30 6 C 4.359296 -2.219443 1.172332 0
M  V30 7 C 3.787835 -1.069548 0.618083 0
M  V30 8 C 3.894796 0.162188 1.391601 0
M  V30 9 C 5.049726 0.620977 2.027989 0
M  V30 10 N 4.706730 1.787990 2.621321 0
M  V30 11 C 3.411601 2.061413 2.380668 0
M  V30 12 N 2.631716 3.091758 2.755466 0
M  V30 13 C 1.335580 3.186232 2.407113 0
M  V30 14 C 0.736436 2.208407 1.632899 0
M  V30 15 C -0.666510 2.292236 1.244300 0
M  V30 16 C -1.341578 1.432821 0.516344 0
M  V30 17 C -2.755329 1.635584 0.195757 0
M  V30 18 O -3.350464 2.641533 0.614445 0
M  V30 19 N -3.414351 0.660208 -0.597206 0
M  V30 20 C -4.797549 0.717449 -0.994251 0
M  V30 21 C -5.678388 0.713489 0.215974 0
M  V30 22 C -5.438570 -0.543723 0.966873 0
M  V30 23 C -4.546522 -0.807583 1.979654 0
M  V30 24 C -4.456636 -2.032754 2.575472 0
M  V30 25 C -5.257801 -3.070755 2.191418 0
M  V30 26 C -6.144713 -2.780267 1.173164 0
M  V30 27 N -6.232777 -1.573690 0.586696 0
M  V30 28 C 1.536346 1.153184 1.249449 0
M  V30 29 C 2.866287 1.056960 1.607284 0
M  V30 30 C 3.173177 -1.194936 -0.610162 0
M  V30 31 C 3.107442 -2.388858 -1.289347 0
M  V30 32 H 2.820619 -4.167275 -3.306932 0
M  V30 33 H 2.087183 -5.661320 -2.673861 0
M  V30 34 H 3.729500 -5.694588 -3.319336 0
M  V30 35 H 4.743101 -4.264198 0.954312 0
M  V30 36 H 4.853988 -2.172713 2.135839 0
M  V30 37 H 6.004260 0.127716 2.030230 0
M  V30 38 H 5.421167 2.344613 3.178641 0
M  V30 39 H 0.779470 4.044977 2.748765 0
M  V30 40 H -1.233629 3.157624 1.587302 0
M  V30 41 H -0.797814 0.568461 0.166871 0
M  V30 42 H -2.860652 -0.169322 -0.924061 0
M  V30 43 H -4.938276 1.635743 -1.620441 0
M  V30 44 H -5.102107 -0.133818 -1.617347 0
M  V30 45 H -6.743467 0.802093 -0.084964 0
M  V30 46 H -5.380277 1.558224 0.874902 0
M  V30 47 H -3.933296 0.034031 2.260569 0
M  V30 48 H -3.724428 -2.139007 3.361076 0
M  V30 49 H -5.164719 -4.023553 2.678151 0
M  V30 50 H -6.805755 -3.576244 0.831713 0
M  V30 51 H 1.164859 0.350261 0.651624 0
M  V30 52 H 2.735729 -0.313457 -1.034569 0
M  V30 53 H 2.619585 -2.436343 -2.240060 0
M  V30 END ATOM
M  V30 BEGIN BOND
M  V30 1 1 1 2
M  V30 2 2 2 3
M  V30 3 1 2 4
M  V30 4 2 4 5
M  V30 5 1 5 6
M  V30 6 2 6 7
M  V30 7 1 7 8
M  V30 8 2 8 9
M  V30 9 1 9 10
M  V30 10 1 10 11
M  V30 11 2 11 12
M  V30 12 1 12 13
M  V30 13 2 13 14
M  V30 14 1 14 15
M  V30 15 2 15 16
M  V30 16 1 16 17
M  V30 17 2 17 18
M  V30 18 1 17 19
M  V30 19 1 19 20
M  V30 20 1 20 21
M  V30 21 1 21 22
M  V30 22 2 22 23
M  V30 23 1 23 24
M  V30 24 2 24 25
M  V30 25 1 25 26
M  V30 26 2 26 27
M  V30 27 1 14 28
M  V30 28 2 28 29
M  V30 29 1 7 30
M  V30 30 2 30 31
M  V30 31 1 31 4
M  V30 32 1 29 8
M  V30 33 1 29 11
M  V30 34 1 27 22
M  V30 35 1 1 32
M  V30 36 1 1 33
M  V30 37 1 1 34
M  V30 38 1 5 35
M  V30 39 1 6 36
M  V30 40 1 9 37
M  V30 41 1 10 38
M  V30 42 1 13 39
M  V30 43 1 15 40
M  V30 44 1 16 41
M  V30 45 1 19 42
M  V30 46 1 20 43
M  V30 47 1 20 44
M  V30 48 1 21 45
M  V30 49 1 21 46
M  V30 50 1 23 47
M  V30 51 1 24 48
M  V30 52 1 25 49
M  V30 53 1 26 50
M  V30 54 1 28 51
M  V30 55 1 30 52
M  V30 56 1 31 53
M  V30 END BOND
M  V30 END CTAB
M  END
>  <Dataset>  (589) 
ChEMBL_Kinases

>  <Ligand_Instance>  (589) 
nan

>  <PDB_ID>  (589) 
nan

>  <Standardized_SMILES>  (589) 
CC(=O)c1ccc(-c2c[nH]c3ncc(/C=C/C(=O)NCCc4ccccn4)cc23)cc1

>  <Name>  (589) 
nan

>  <Pocket>  (589) 
nan

>  <ATP_Site>  (589) 
nan

>  <Peripheral>  (589) 
nan

>  <Num_H_Atoms_ProtBoundConf>  (589) 
nan

>  <Num_Resolved_Atoms>  (589) 
nan

>  <Num_Not_Resolved_Atoms>  (589) 
nan

$$$$
CHEMBL4646409
     RDKit          3D

  0  0  0  0  0  0  0  0  0  0999 V3000
M  V30 BEGIN CTAB
M  V30 COUNTS 64 68 0 0 0
M  V30 BEGIN ATOM
M  V30 1 C 0.097250 -1.629242 5.819620 0
M  V30 2 O 0.369832 -2.966304 5.543562 0
M  V30 3 C 0.896728 -3.410749 4.336604 0
M  V30 4 C 1.184622 -2.526221 3.321009 0
M  V30 5 C 1.715775 -2.912553 2.084392 0
M  V30 6 C 2.024032 -1.995690 0.995312 0
M  V30 7 C 3.264566 -2.146829 0.414641 0
M  V30 8 N 3.610868 -1.295167 -0.597358 0
M  V30 9 C 2.682989 -0.356060 -0.948688 0
M  V30 10 C 1.424914 -0.178781 -0.383423 0
M  V30 11 C 0.624547 0.907177 -0.950710 0
M  V30 12 C 0.594213 0.928876 -2.351604 0
M  V30 13 C -0.121255 1.891729 -3.071024 0
M  V30 14 C -0.827748 2.861332 -2.391712 0
M  V30 15 N -1.598137 3.898245 -2.992450 0
M  V30 16 C -2.405593 4.875786 -2.287432 0
M  V30 17 C -3.618512 5.300370 -3.075326 0
M  V30 18 N -4.059996 4.136504 -3.826542 0
M  V30 19 C -3.124624 4.024820 -4.936648 0
M  V30 20 C -1.741111 4.199406 -4.397680 0
M  V30 21 C -0.806851 2.852962 -1.012620 0
M  V30 22 C -0.096831 1.897756 -0.313711 0
M  V30 23 C 1.076184 -1.057102 0.655105 0
M  V30 24 C -0.259764 -0.855684 1.200734 0
M  V30 25 C -1.504686 -1.229172 0.453364 0
M  V30 26 C -1.033739 -2.186056 1.473091 0
M  V30 27 C 1.958429 -4.278726 1.897202 0
M  V30 28 C 1.679914 -5.186939 2.896042 0
M  V30 29 O 1.854616 -6.552838 2.882092 0
M  V30 30 C 2.361654 -7.343224 1.860451 0
M  V30 31 C 1.148408 -4.753383 4.117253 0
M  V30 32 O 0.832577 -5.598386 5.190142 0
M  V30 33 C -0.495550 -6.114308 5.191898 0
M  V30 34 H -0.695288 -1.627271 6.620378 0
M  V30 35 H -0.308830 -1.041942 4.975058 0
M  V30 36 H 0.965776 -1.100140 6.290671 0
M  V30 37 H 0.997216 -1.474207 3.472935 0
M  V30 38 H 3.946084 -2.901671 0.734153 0
M  V30 39 H 3.067314 0.258874 -1.758013 0
M  V30 40 H 1.113126 0.215244 -2.960279 0
M  V30 41 H -0.140861 1.904120 -4.133234 0
M  V30 42 H -2.797681 4.377019 -1.376546 0
M  V30 43 H -1.820476 5.761636 -1.972051 0
M  V30 44 H -3.307217 6.064874 -3.808292 0
M  V30 45 H -4.393931 5.651468 -2.359573 0
M  V30 46 H -3.898449 3.294348 -3.221926 0
M  V30 47 H -3.384918 4.855389 -5.623485 0
M  V30 48 H -3.248662 3.025343 -5.383633 0
M  V30 49 H -1.407955 5.245908 -4.584343 0
M  V30 50 H -1.081149 3.488432 -4.972684 0
M  V30 51 H -1.295747 3.529008 -0.325319 0
M  V30 52 H -0.031314 1.831279 0.763253 0
M  V30 53 H -0.373556 -0.134498 2.046450 0
M  V30 54 H -1.462658 -1.570048 -0.585060 0
M  V30 55 H -2.438058 -0.669656 0.705557 0
M  V30 56 H -0.568600 -3.127083 1.137081 0
M  V30 57 H -1.550357 -2.271199 2.453599 0
M  V30 58 H 2.366436 -4.708146 0.992349 0
M  V30 59 H 2.927986 -8.200664 2.318444 0
M  V30 60 H 1.639424 -7.774114 1.163151 0
M  V30 61 H 3.127415 -6.813206 1.234890 0
M  V30 62 H -0.726102 -6.615053 6.171423 0
M  V30 63 H -0.485080 -6.917513 4.412298 0
M  V30 64 H -1.231144 -5.343458 4.910875 0
M  V30 END ATOM
M  V30 BEGIN BOND
M  V30 1 1 1 2
M  V30 2 1 2 3
M  V30 3 2 3 4
M  V30 4 1 4 5
M  V30 5 1 5 6
M  V30 6 2 6 7
M  V30 7 1 7 8
M  V30 8 2 8 9
M  V30 9 1 9 10
M  V30 10 1 10 11
M  V30 11 2 11 12
M  V30 12 1 12 13
M  V30 13 2 13 14
M  V30 14 1 14 15
M  V30 15 1 15 16
M  V30 16 1 16 17
M  V30 17 1 17 18
M  V30 18 1 18 19
M  V30 19 1 19 20
M  V30 20 1 14 21
M  V30 21 2 21 22
M  V30 22 2 10 23
M  V30 23 1 23 24
M  V30 24 1 24 25
M  V30 25 1 25 26
M  V30 26 2 5 27
M  V30 27 1 27 28
M  V30 28 1 28 29
M  V30 29 1 29 30
M  V30 30 2 28 31
M  V30 31 1 31 32
M  V30 32 1 32 33
M  V30 33 1 31 3
M  V30 34 1 23 6
M  V30 35 1 26 24
M  V30 36 1 22 11
M  V30 37 1 20 15
M  V30 38 1 1 34
M  V30 39 1 1 35
M  V30 40 1 1 36
M  V30 41 1 4 37
M  V30 42 1 7 38
M  V30 43 1 9 39
M  V30 44 1 12 40
M  V30 45 1 13 41
M  V30 46 1 16 42
M  V30 47 1 16 43
M  V30 48 1 17 44
M  V30 49 1 17 45
M  V30 50 1 18 46
M  V30 51 1 19 47
M  V30 52 1 19 48
M  V30 53 1 20 49
M  V30 54 1 20 50
M  V30 55 1 21 51
M  V30 56 1 22 52
M  V30 57 1 24 53
M  V30 58 1 25 54
M  V30 59 1 25 55
M  V30 60 1 26 56
M  V30 61 1 26 57
M  V30 62 1 27 58
M  V30 63 1 30 59
M  V30 64 1 30 60
M  V30 65 1 30 61
M  V30 66 1 33 62
M  V30 67 1 33 63
M  V30 68 1 33 64
M  V30 END BOND
M  V30 END CTAB
M  END
>  <Dataset>  (590) 
ChEMBL_Kinases

>  <Ligand_Instance>  (590) 
nan

>  <PDB_ID>  (590) 
nan

>  <Standardized_SMILES>  (590) 
COc1cc(-c2cncc(-c3ccc(N4CCNCC4)cc3)c2C2CC2)cc(OC)c1OC

>  <Name>  (590) 
nan

>  <Pocket>  (590) 
nan

>  <ATP_Site>  (590) 
nan

>  <Peripheral>  (590) 
nan

>  <Num_H_Atoms_ProtBoundConf>  (590) 
nan

>  <Num_Resolved_Atoms>  (590) 
nan

>  <Num_Not_Resolved_Atoms>  (590) 
nan

$$$$
CHEMBL4521356
     RDKit          3D

  0  0  0  0  0  0  0  0  0  0999 V3000
M  V30 BEGIN CTAB
M  V30 COUNTS 37 39 0 0 0
M  V30 BEGIN ATOM
M  V30 1 C 1.237776 -3.150398 3.946695 0
M  V30 2 O 0.200760 -2.772404 3.034808 0
M  V30 3 C 0.415926 -2.659426 1.683912 0
M  V30 4 O 1.658936 -2.979473 1.679993 0
M  V30 5 C -0.192784 -2.332417 0.373125 0
M  V30 6 N -0.413200 -0.886157 0.261237 0
M  V30 7 C 0.568803 -0.040528 -0.196068 0
M  V30 8 C 1.852765 -0.346723 -0.621996 0
M  V30 9 C 2.739062 0.618589 -1.060736 0
M  V30 10 O 4.014470 0.283154 -1.478787 0
M  V30 11 C 4.427917 -1.062967 -1.447546 0
M  V30 12 C 2.292594 1.944510 -1.063402 0
M  V30 13 C 1.011084 2.245554 -0.639354 0
M  V30 14 C 0.145464 1.268935 -0.207157 0
M  V30 15 C -1.163795 1.221606 0.266362 0
M  V30 16 C -2.072283 2.214233 0.461181 0
M  V30 17 C -3.333134 1.845677 0.948581 0
M  V30 18 N -3.587666 0.551769 1.200551 0
M  V30 19 C -2.697727 -0.454382 1.015494 0
M  V30 20 C -3.123426 -1.835839 1.342898 0
M  V30 21 C -1.460630 -0.088692 0.534358 0
M  V30 22 H 0.753219 -2.972572 4.958081 0
M  V30 23 H 1.433674 -4.217948 3.831825 0
M  V30 24 H 2.113092 -2.501750 3.835890 0
M  V30 25 H 0.503396 -2.634042 -0.451598 0
M  V30 26 H -1.153936 -2.835377 0.307681 0
M  V30 27 H 2.257415 -1.344578 -0.648813 0
M  V30 28 H 4.334194 -1.433158 -0.387960 0
M  V30 29 H 3.750476 -1.682933 -2.058276 0
M  V30 30 H 5.488411 -1.188742 -1.779929 0
M  V30 31 H 2.940708 2.763609 -1.390542 0
M  V30 32 H 0.659092 3.255230 -0.630419 0
M  V30 33 H -1.854129 3.247537 0.257706 0
M  V30 34 H -4.125291 2.556927 1.130378 0
M  V30 35 H -3.388101 -2.456420 0.451583 0
M  V30 36 H -2.507658 -2.343612 2.114735 0
M  V30 37 H -4.127828 -1.753217 1.868477 0
M  V30 END ATOM
M  V30 BEGIN BOND
M  V30 1 1 1 2
M  V30 2 1 2 3
M  V30 3 2 3 4
M  V30 4 1 3 5
M  V30 5 1 5 6
M  V30 6 1 6 7
M  V30 7 2 7 8
M  V30 8 1 8 9
M  V30 9 1 9 10
M  V30 10 1 10 11
M  V30 11 2 9 12
M  V30 12 1 12 13
M  V30 13 2 13 14
M  V30 14 1 14 15
M  V30 15 2 15 16
M  V30 16 1 16 17
M  V30 17 2 17 18
M  V30 18 1 18 19
M  V30 19 1 19 20
M  V30 20 2 19 21
M  V30 21 1 21 6
M  V30 22 1 14 7
M  V30 23 1 21 15
M  V30 24 1 1 22
M  V30 25 1 1 23
M  V30 26 1 1 24
M  V30 27 1 5 25
M  V30 28 1 5 26
M  V30 29 1 8 27
M  V30 30 1 11 28
M  V30 31 1 11 29
M  V30 32 1 11 30
M  V30 33 1 12 31
M  V30 34 1 13 32
M  V30 35 1 16 33
M  V30 36 1 17 34
M  V30 37 1 20 35
M  V30 38 1 20 36
M  V30 39 1 20 37
M  V30 END BOND
M  V30 END CTAB
M  END
>  <Dataset>  (591) 
ChEMBL_Kinases

>  <Ligand_Instance>  (591) 
nan

>  <PDB_ID>  (591) 
nan

>  <Standardized_SMILES>  (591) 
COC(=O)Cn1c2cc(OC)ccc2c2ccnc(C)c21

>  <Name>  (591) 
nan

>  <Pocket>  (591) 
nan

>  <ATP_Site>  (591) 
nan

>  <Peripheral>  (591) 
nan

>  <Num_H_Atoms_ProtBoundConf>  (591) 
nan

>  <Num_Resolved_Atoms>  (591) 
nan

>  <Num_Not_Resolved_Atoms>  (591) 
nan

$$$$
CHEMBL4521346
     RDKit          3D

  0  0  0  0  0  0  0  0  0  0999 V3000
M  V30 BEGIN CTAB
M  V30 COUNTS 58 62 0 0 0
M  V30 BEGIN ATOM
M  V30 1 C 1.086222 -1.021331 8.240560 0
M  V30 2 C 2.132266 -1.152430 7.208146 0
M  V30 3 N 3.351312 -1.746722 7.179765 0
M  V30 4 O 3.891668 -1.576426 6.007226 0
M  V30 5 C 3.095527 -0.890508 5.229608 0
M  V30 6 C 3.339339 -0.490363 3.834178 0
M  V30 7 C 4.533692 -0.891904 3.274176 0
M  V30 8 C 4.725292 -0.504298 1.963147 0
M  V30 9 C 3.798411 0.232914 1.247702 0
M  V30 10 N 3.691904 0.742930 0.007622 0
M  V30 11 C 2.517181 1.395631 -0.141623 0
M  V30 12 N 2.252263 1.990834 -1.431252 0
M  V30 13 C 1.433690 1.171262 -2.293716 0
M  V30 14 C 0.962510 -0.063629 -1.834063 0
M  V30 15 C 0.162816 -0.896588 -2.626353 0
M  V30 16 C -0.293756 -2.199593 -2.017074 0
M  V30 17 N -1.552784 -1.940951 -1.380439 0
M  V30 18 C -1.533171 -0.927249 -0.363649 0
M  V30 19 C -2.946168 -0.841941 0.202487 0
M  V30 20 N -3.879954 -1.362287 -0.769658 0
M  V30 21 C -3.926879 -0.553819 -1.935418 0
M  V30 22 C -4.869737 -1.009882 -3.000853 0
M  V30 23 O -4.761690 -0.073108 -4.057399 0
M  V30 24 C -3.743590 -2.771562 -0.962149 0
M  V30 25 C -2.254809 -3.131673 -0.981543 0
M  V30 26 C -0.164852 -0.479299 -3.897819 0
M  V30 27 C 0.317490 0.752258 -4.329019 0
M  V30 28 N 1.085218 1.529685 -3.538906 0
M  V30 29 N 1.846152 1.309689 1.021699 0
M  V30 30 C 2.623116 0.604671 1.863124 0
M  V30 31 C 2.378117 0.244909 3.172301 0
M  V30 32 N 2.006369 -0.627908 5.973003 0
M  V30 33 H 1.128621 -1.902952 8.917643 0
M  V30 34 H 0.080834 -1.014225 7.742999 0
M  V30 35 H 1.186418 -0.074705 8.780267 0
M  V30 36 H 5.258037 -1.466363 3.829542 0
M  V30 37 H 5.650368 -0.792981 1.473776 0
M  V30 38 H 2.549330 2.908296 -1.845347 0
M  V30 39 H 1.202408 -0.425887 -0.832968 0
M  V30 40 H -0.463611 -2.876651 -2.870697 0
M  V30 41 H 0.487519 -2.620594 -1.383969 0
M  V30 42 H -1.274477 0.064556 -0.839784 0
M  V30 43 H -0.849157 -1.105196 0.468368 0
M  V30 44 H -3.225342 0.195490 0.461089 0
M  V30 45 H -3.005035 -1.481891 1.106792 0
M  V30 46 H -4.280942 0.469761 -1.615039 0
M  V30 47 H -2.958561 -0.350932 -2.430737 0
M  V30 48 H -5.928840 -1.054877 -2.681728 0
M  V30 49 H -4.541365 -1.973471 -3.488677 0
M  V30 50 H -3.814841 0.254585 -4.106673 0
M  V30 51 H -4.221762 -3.306224 -0.092520 0
M  V30 52 H -4.170586 -3.156691 -1.895841 0
M  V30 53 H -1.982776 -3.427202 0.064499 0
M  V30 54 H -2.017581 -3.957655 -1.648924 0
M  V30 55 H -0.785069 -1.138069 -4.498854 0
M  V30 56 H 0.055375 1.075579 -5.335577 0
M  V30 57 H 0.908960 1.756456 1.103603 0
M  V30 58 H 1.453517 0.542679 3.642208 0
M  V30 END ATOM
M  V30 BEGIN BOND
M  V30 1 1 1 2
M  V30 2 2 2 3
M  V30 3 1 3 4
M  V30 4 1 4 5
M  V30 5 1 5 6
M  V30 6 2 6 7
M  V30 7 1 7 8
M  V30 8 2 8 9
M  V30 9 1 9 10
M  V30 10 2 10 11
M  V30 11 1 11 12
M  V30 12 1 12 13
M  V30 13 2 13 14
M  V30 14 1 14 15
M  V30 15 1 15 16
M  V30 16 1 16 17
M  V30 17 1 17 18
M  V30 18 1 18 19
M  V30 19 1 19 20
M  V30 20 1 20 21
M  V30 21 1 21 22
M  V30 22 1 22 23
M  V30 23 1 20 24
M  V30 24 1 24 25
M  V30 25 2 15 26
M  V30 26 1 26 27
M  V30 27 2 27 28
M  V30 28 1 11 29
M  V30 29 1 29 30
M  V30 30 2 30 31
M  V30 31 2 5 32
M  V30 32 1 32 2
M  V30 33 1 31 6
M  V30 34 1 30 9
M  V30 35 1 28 13
M  V30 36 1 25 17
M  V30 37 1 1 33
M  V30 38 1 1 34
M  V30 39 1 1 35
M  V30 40 1 7 36
M  V30 41 1 8 37
M  V30 42 1 12 38
M  V30 43 1 14 39
M  V30 44 1 16 40
M  V30 45 1 16 41
M  V30 46 1 18 42
M  V30 47 1 18 43
M  V30 48 1 19 44
M  V30 49 1 19 45
M  V30 50 1 21 46
M  V30 51 1 21 47
M  V30 52 1 22 48
M  V30 53 1 22 49
M  V30 54 1 23 50
M  V30 55 1 24 51
M  V30 56 1 24 52
M  V30 57 1 25 53
M  V30 58 1 25 54
M  V30 59 1 26 55
M  V30 60 1 27 56
M  V30 61 1 29 57
M  V30 62 1 31 58
M  V30 END BOND
M  V30 END CTAB
M  END
>  <Dataset>  (592) 
ChEMBL_Kinases

>  <Ligand_Instance>  (592) 
nan

>  <PDB_ID>  (592) 
nan

>  <Standardized_SMILES>  (592) 
Cc1noc(-c2ccc3nc(Nc4cc(CN5CCN(CCO)CC5)ccn4)[nH]c3c2)n1

>  <Name>  (592) 
nan

>  <Pocket>  (592) 
nan

>  <ATP_Site>  (592) 
nan

>  <Peripheral>  (592) 
nan

>  <Num_H_Atoms_ProtBoundConf>  (592) 
nan

>  <Num_Resolved_Atoms>  (592) 
nan

>  <Num_Not_Resolved_Atoms>  (592) 
nan

$$$$
CHEMBL4646435
     RDKit          3D

  0  0  0  0  0  0  0  0  0  0999 V3000
M  V30 BEGIN CTAB
M  V30 COUNTS 40 43 0 0 0
M  V30 BEGIN ATOM
M  V30 1 C 1.418029 -6.359633 -0.649875 0
M  V30 2 O 0.764171 -5.135938 -0.867852 0
M  V30 3 C 1.403687 -4.040231 -1.429211 0
M  V30 4 C 2.731299 -4.005694 -1.837729 0
M  V30 5 C 3.268061 -2.855744 -2.386703 0
M  V30 6 C 2.470088 -1.735182 -2.526764 0
M  V30 7 C 1.137599 -1.762065 -2.119370 0
M  V30 8 C 0.431640 -0.473620 -2.344218 0
M  V30 9 N 0.552651 0.421229 -1.183559 0
M  V30 10 C 1.621950 1.225230 -1.235010 0
M  V30 11 N 1.761554 2.057207 -0.186000 0
M  V30 12 C 0.855695 2.046346 0.830888 0
M  V30 13 S 0.706463 3.015839 2.408875 0
M  V30 14 C -0.769388 2.208606 2.919084 0
M  V30 15 C -1.447011 2.558897 4.200249 0
M  V30 16 C -0.868864 3.544730 4.972759 0
M  V30 17 C -1.595436 3.778476 6.140495 0
M  V30 18 N -2.710141 3.141910 6.486861 0
M  V30 19 C -3.219250 2.195278 5.692572 0
M  V30 20 Cl -4.683460 1.341883 6.122511 0
M  V30 21 C -2.588275 1.874942 4.508074 0
M  V30 22 C -1.050524 1.335910 1.972273 0
M  V30 23 C -0.238272 1.217518 0.874394 0
M  V30 24 C -0.366371 0.369587 -0.210909 0
M  V30 25 O -1.307561 -0.447206 -0.324183 0
M  V30 26 C 0.606772 -2.912116 -1.572146 0
M  V30 27 H 1.452561 -6.912128 -1.605450 0
M  V30 28 H 2.471957 -6.233905 -0.307701 0
M  V30 29 H 0.909683 -6.927358 0.169208 0
M  V30 30 H 3.303642 -4.934513 -1.695003 0
M  V30 31 H 4.308644 -2.861681 -2.695752 0
M  V30 32 H 2.953638 -0.872461 -2.962788 0
M  V30 33 H -0.656435 -0.654904 -2.464866 0
M  V30 34 H 0.750776 0.015386 -3.285768 0
M  V30 35 H 2.397862 1.329528 -1.968070 0
M  V30 36 H 0.035704 4.081072 4.720411 0
M  V30 37 H -1.243016 4.539328 6.843623 0
M  V30 38 H -2.996326 1.104636 3.854631 0
M  V30 39 H -1.955704 0.735034 2.131594 0
M  V30 40 H -0.414614 -2.862635 -1.283747 0
M  V30 END ATOM
M  V30 BEGIN BOND
M  V30 1 1 1 2
M  V30 2 1 2 3
M  V30 3 2 3 4
M  V30 4 1 4 5
M  V30 5 2 5 6
M  V30 6 1 6 7
M  V30 7 1 7 8
M  V30 8 1 8 9
M  V30 9 1 9 10
M  V30 10 2 10 11
M  V30 11 1 11 12
M  V30 12 1 12 13
M  V30 13 1 13 14
M  V30 14 1 14 15
M  V30 15 2 15 16
M  V30 16 1 16 17
M  V30 17 2 17 18
M  V30 18 1 18 19
M  V30 19 1 19 20
M  V30 20 2 19 21
M  V30 21 2 14 22
M  V30 22 1 22 23
M  V30 23 1 23 24
M  V30 24 2 24 25
M  V30 25 2 7 26
M  V30 26 1 26 3
M  V30 27 1 24 9
M  V30 28 2 23 12
M  V30 29 1 21 15
M  V30 30 1 1 27
M  V30 31 1 1 28
M  V30 32 1 1 29
M  V30 33 1 4 30
M  V30 34 1 5 31
M  V30 35 1 6 32
M  V30 36 1 8 33
M  V30 37 1 8 34
M  V30 38 1 10 35
M  V30 39 1 16 36
M  V30 40 1 17 37
M  V30 41 1 21 38
M  V30 42 1 22 39
M  V30 43 1 26 40
M  V30 END BOND
M  V30 END CTAB
M  END
>  <Dataset>  (593) 
ChEMBL_Kinases

>  <Ligand_Instance>  (593) 
nan

>  <PDB_ID>  (593) 
nan

>  <Standardized_SMILES>  (593) 
COc1cccc(Cn2cnc3sc(-c4ccnc(Cl)c4)cc3c2=O)c1

>  <Name>  (593) 
nan

>  <Pocket>  (593) 
nan

>  <ATP_Site>  (593) 
nan

>  <Peripheral>  (593) 
nan

>  <Num_H_Atoms_ProtBoundConf>  (593) 
nan

>  <Num_Resolved_Atoms>  (593) 
nan

>  <Num_Not_Resolved_Atoms>  (593) 
nan

$$$$
CHEMBL4521278
     RDKit          3D

  0  0  0  0  0  0  0  0  0  0999 V3000
M  V30 BEGIN CTAB
M  V30 COUNTS 71 75 0 0 0
M  V30 BEGIN ATOM
M  V30 1 C 2.775257 -0.834124 3.921226 0
M  V30 2 O 2.104084 -1.142594 2.731485 0
M  V30 3 C 2.228433 -0.291698 1.631733 0
M  V30 4 C 3.013099 0.837119 1.738603 0
M  V30 5 C 3.170483 1.718820 0.665493 0
M  V30 6 N 3.933018 2.910808 0.771133 0
M  V30 7 C 4.303410 3.670056 1.956460 0
M  V30 8 C 4.077150 5.157243 1.766967 0
M  V30 9 N 3.079019 5.311688 0.694558 0
M  V30 10 C 1.707529 5.723009 0.734490 0
M  V30 11 O 1.039882 5.780031 -0.337761 0
M  V30 12 C 1.146175 6.062667 2.069122 0
M  V30 13 O -0.211049 6.409380 1.924236 0
M  V30 14 C 3.742046 4.943154 -0.554726 0
M  V30 15 C 4.515799 3.645200 -0.355924 0
M  V30 16 C 2.520313 1.424807 -0.503110 0
M  V30 17 C 1.743349 0.284714 -0.572560 0
M  V30 18 C 1.551359 -0.613802 0.449782 0
M  V30 19 N 0.702999 -1.727255 0.325959 0
M  V30 20 C -0.032948 -2.139257 -0.829456 0
M  V30 21 N -1.035410 -3.004189 -0.654548 0
M  V30 22 C -1.831388 -3.463011 -1.624312 0
M  V30 23 O -2.881398 -4.332415 -1.567135 0
M  V30 24 C -3.373379 -5.146875 -0.575990 0 CFG=1
M  V30 25 C -3.046019 -4.549471 0.817992 0
M  V30 26 C -3.514439 -5.485674 1.905945 0
M  V30 27 O -4.613035 -6.242212 1.597707 0
M  V30 28 C -5.490718 -5.660628 0.678872 0
M  V30 29 C -6.670511 -6.638162 0.557031 0
M  V30 30 C -6.029238 -4.355341 1.160085 0
M  V30 31 C -4.824767 -5.476443 -0.663247 0
M  V30 32 C -1.585600 -2.999282 -2.921297 0
M  V30 33 C -2.177370 -3.238335 -4.172547 0
M  V30 34 C -1.462268 -2.469676 -5.097758 0
M  V30 35 N -0.498963 -1.801041 -4.463876 0
M  V30 36 C -0.560214 -2.107644 -3.161069 0
M  V30 37 N 0.198488 -1.695126 -2.098617 0
M  V30 38 H 2.274141 -1.318462 4.799825 0
M  V30 39 H 3.808491 -1.196284 3.823583 0
M  V30 40 H 2.801272 0.255806 4.165506 0
M  V30 41 H 3.565109 1.156747 2.601768 0
M  V30 42 H 3.747379 3.273617 2.838614 0
M  V30 43 H 5.391054 3.521296 2.105807 0
M  V30 44 H 5.026157 5.635929 1.522781 0
M  V30 45 H 3.652220 5.663761 2.652015 0
M  V30 46 H 1.180963 5.182963 2.738954 0
M  V30 47 H 1.648937 6.893019 2.569183 0
M  V30 48 H -0.492621 6.297732 0.979418 0
M  V30 49 H 4.385191 5.742833 -0.900736 0
M  V30 50 H 2.959355 4.739021 -1.307870 0
M  V30 51 H 4.404637 3.013452 -1.247914 0
M  V30 52 H 5.578007 3.868526 -0.234753 0
M  V30 53 H 2.627441 2.107789 -1.354800 0
M  V30 54 H 1.291361 0.188092 -1.560331 0
M  V30 55 H 0.620833 -2.300039 1.189689 0
M  V30 56 H -2.753724 -6.087852 -0.530287 0
M  V30 57 H -1.914971 -4.495162 0.815823 0
M  V30 58 H -3.430320 -3.558216 0.979749 0
M  V30 59 H -3.667607 -4.980796 2.878098 0
M  V30 60 H -2.638610 -6.196048 2.064812 0
M  V30 61 H -6.848951 -6.982029 1.606560 0
M  V30 62 H -6.276625 -7.505392 -0.020308 0
M  V30 63 H -7.564229 -6.197630 0.130942 0
M  V30 64 H -6.014546 -3.524272 0.413344 0
M  V30 65 H -7.118544 -4.426166 1.481502 0
M  V30 66 H -5.523285 -3.961306 2.075940 0
M  V30 67 H -5.026026 -6.336401 -1.369473 0
M  V30 68 H -5.313704 -4.610256 -1.222540 0
M  V30 69 H -3.026138 -3.900974 -4.349765 0
M  V30 70 H -1.652358 -2.417326 -6.174711 0
M  V30 71 H 0.223807 -1.139844 -4.835771 0
M  V30 END ATOM
M  V30 BEGIN BOND
M  V30 1 1 1 2
M  V30 2 1 2 3
M  V30 3 2 3 4
M  V30 4 1 4 5
M  V30 5 1 5 6
M  V30 6 1 6 7
M  V30 7 1 7 8
M  V30 8 1 8 9
M  V30 9 1 9 10
M  V30 10 2 10 11
M  V30 11 1 10 12
M  V30 12 1 12 13
M  V30 13 1 9 14
M  V30 14 1 14 15
M  V30 15 2 5 16
M  V30 16 1 16 17
M  V30 17 2 17 18
M  V30 18 1 18 19
M  V30 19 1 19 20
M  V30 20 2 20 21
M  V30 21 1 21 22
M  V30 22 1 22 23
M  V30 23 1 23 24
M  V30 24 1 24 25
M  V30 25 1 25 26
M  V30 26 1 26 27
M  V30 27 1 27 28
M  V30 28 1 28 29
M  V30 29 1 28 30
M  V30 30 1 28 31
M  V30 31 2 22 32
M  V30 32 1 32 33
M  V30 33 2 33 34
M  V30 34 1 34 35
M  V30 35 1 35 36
M  V30 36 2 36 37
M  V30 37 1 18 3
M  V30 38 1 37 20
M  V30 39 1 15 6
M  V30 40 1 31 24
M  V30 41 1 36 32
M  V30 42 1 1 38
M  V30 43 1 1 39
M  V30 44 1 1 40
M  V30 45 1 4 41
M  V30 46 1 7 42
M  V30 47 1 7 43
M  V30 48 1 8 44
M  V30 49 1 8 45
M  V30 50 1 12 46
M  V30 51 1 12 47
M  V30 52 1 13 48
M  V30 53 1 14 49
M  V30 54 1 14 50
M  V30 55 1 15 51
M  V30 56 1 15 52
M  V30 57 1 16 53
M  V30 58 1 17 54
M  V30 59 1 19 55
M  V30 60 1 24 56 CFG=1
M  V30 61 1 25 57
M  V30 62 1 25 58
M  V30 63 1 26 59
M  V30 64 1 26 60
M  V30 65 1 29 61
M  V30 66 1 29 62
M  V30 67 1 29 63
M  V30 68 1 30 64
M  V30 69 1 30 65
M  V30 70 1 30 66
M  V30 71 1 31 67
M  V30 72 1 31 68
M  V30 73 1 33 69
M  V30 74 1 34 70
M  V30 75 1 35 71
M  V30 END BOND
M  V30 END CTAB
M  END
>  <Dataset>  (594) 
ChEMBL_Kinases

>  <Ligand_Instance>  (594) 
nan

>  <PDB_ID>  (594) 
nan

>  <Standardized_SMILES>  (594) 
COc1cc(N2CCN(C(=O)CO)CC2)ccc1Nc1nc(O[C@H]2CCOC(C)(C)C2)c2cc[nH]c2n1

>  <Name>  (594) 
nan

>  <Pocket>  (594) 
nan

>  <ATP_Site>  (594) 
nan

>  <Peripheral>  (594) 
nan

>  <Num_H_Atoms_ProtBoundConf>  (594) 
nan

>  <Num_Resolved_Atoms>  (594) 
nan

>  <Num_Not_Resolved_Atoms>  (594) 
nan

$$$$
CHEMBL4646444
     RDKit          3D

  0  0  0  0  0  0  0  0  0  0999 V3000
M  V30 BEGIN CTAB
M  V30 COUNTS 62 65 0 0 0
M  V30 BEGIN ATOM
M  V30 1 C 1.069295 -2.607732 6.159759 0
M  V30 2 O 1.280527 -3.879699 5.629655 0
M  V30 3 C 1.566345 -4.150252 4.303736 0
M  V30 4 C 1.657505 -3.128454 3.415015 0
M  V30 5 C 1.940337 -3.350423 2.083696 0
M  V30 6 C 2.074155 -2.398765 0.986382 0
M  V30 7 C 3.181320 -2.538497 0.139120 0
M  V30 8 N 3.429976 -1.721155 -0.919646 0
M  V30 9 C 2.578848 -0.702134 -1.201164 0
M  V30 10 C 1.464399 -0.543368 -0.366891 0
M  V30 11 C 0.594264 0.573258 -0.729778 0
M  V30 12 C 0.052709 1.538154 0.094677 0
M  V30 13 C -0.758481 2.527080 -0.419819 0
M  V30 14 C -1.082198 2.627171 -1.755192 0
M  V30 15 C -1.943237 3.691829 -2.243559 0
M  V30 16 C -2.283404 3.835321 -3.514637 0
M  V30 17 C -3.168223 4.969457 -3.861177 0
M  V30 18 N -4.291567 5.148428 -3.002327 0
M  V30 19 C -5.489155 4.611354 -3.605165 0
M  V30 20 C -4.062339 4.636717 -1.687965 0
M  V30 21 C -2.558101 4.754176 -1.407769 0
M  V30 22 C -0.555005 1.677553 -2.598132 0
M  V30 23 C 0.268776 0.669505 -2.089533 0
M  V30 24 C 1.216346 -1.374507 0.705414 0
M  V30 25 C 0.039699 -1.182717 1.550714 0
M  V30 26 C 2.127868 -4.657857 1.689451 0
M  V30 27 C 2.041272 -5.716232 2.570773 0
M  V30 28 O 2.211238 -7.057288 2.278799 0
M  V30 29 C 2.507232 -7.460318 0.959900 0
M  V30 30 C 1.752730 -5.461074 3.916393 0
M  V30 31 O 1.646715 -6.452293 4.867233 0
M  V30 32 C 0.459214 -7.121555 5.194534 0
M  V30 33 H 0.490439 -2.679155 7.108972 0
M  V30 34 H 2.080329 -2.211248 6.450381 0
M  V30 35 H 0.627475 -1.869890 5.478109 0
M  V30 36 H 1.524359 -2.084240 3.658664 0
M  V30 37 H 3.932244 -3.313299 0.260540 0
M  V30 38 H 2.761939 -0.035899 -2.046554 0
M  V30 39 H 0.318207 1.445770 1.134007 0
M  V30 40 H -1.115240 3.216541 0.329499 0
M  V30 41 H -1.935025 3.160111 -4.267557 0
M  V30 42 H -3.535583 4.905005 -4.906591 0
M  V30 43 H -2.544289 5.895399 -3.805932 0
M  V30 44 H -5.606974 5.155790 -4.585598 0
M  V30 45 H -6.373674 4.715248 -2.963940 0
M  V30 46 H -5.323332 3.547571 -3.837744 0
M  V30 47 H -4.638397 5.111957 -0.887408 0
M  V30 48 H -4.298329 3.544313 -1.681686 0
M  V30 49 H -2.299286 5.786578 -1.784519 0
M  V30 50 H -2.357498 4.663776 -0.342613 0
M  V30 51 H -0.744658 1.663335 -3.659417 0
M  V30 52 H 0.667153 -0.066737 -2.797597 0
M  V30 53 H -0.350023 -2.152925 1.954227 0
M  V30 54 H -0.835402 -0.794629 0.952794 0
M  V30 55 H 0.187054 -0.544530 2.432365 0
M  V30 56 H 2.356901 -4.978260 0.671259 0
M  V30 57 H 3.594194 -7.310784 0.738570 0
M  V30 58 H 2.340406 -8.557072 0.816563 0
M  V30 59 H 1.930345 -6.913829 0.188293 0
M  V30 60 H -0.017584 -6.584139 6.046968 0
M  V30 61 H -0.241945 -7.136225 4.327535 0
M  V30 62 H 0.635953 -8.156453 5.559616 0
M  V30 END ATOM
M  V30 BEGIN BOND
M  V30 1 1 1 2
M  V30 2 1 2 3
M  V30 3 2 3 4
M  V30 4 1 4 5
M  V30 5 1 5 6
M  V30 6 2 6 7
M  V30 7 1 7 8
M  V30 8 2 8 9
M  V30 9 1 9 10
M  V30 10 1 10 11
M  V30 11 2 11 12
M  V30 12 1 12 13
M  V30 13 2 13 14
M  V30 14 1 14 15
M  V30 15 2 15 16
M  V30 16 1 16 17
M  V30 17 1 17 18
M  V30 18 1 18 19
M  V30 19 1 18 20
M  V30 20 1 20 21
M  V30 21 1 14 22
M  V30 22 2 22 23
M  V30 23 2 10 24
M  V30 24 1 24 25
M  V30 25 2 5 26
M  V30 26 1 26 27
M  V30 27 1 27 28
M  V30 28 1 28 29
M  V30 29 2 27 30
M  V30 30 1 30 31
M  V30 31 1 31 32
M  V30 32 1 30 3
M  V30 33 1 24 6
M  V30 34 1 23 11
M  V30 35 1 21 15
M  V30 36 1 1 33
M  V30 37 1 1 34
M  V30 38 1 1 35
M  V30 39 1 4 36
M  V30 40 1 7 37
M  V30 41 1 9 38
M  V30 42 1 12 39
M  V30 43 1 13 40
M  V30 44 1 16 41
M  V30 45 1 17 42
M  V30 46 1 17 43
M  V30 47 1 19 44
M  V30 48 1 19 45
M  V30 49 1 19 46
M  V30 50 1 20 47
M  V30 51 1 20 48
M  V30 52 1 21 49
M  V30 53 1 21 50
M  V30 54 1 22 51
M  V30 55 1 23 52
M  V30 56 1 25 53
M  V30 57 1 25 54
M  V30 58 1 25 55
M  V30 59 1 26 56
M  V30 60 1 29 57
M  V30 61 1 29 58
M  V30 62 1 29 59
M  V30 63 1 32 60
M  V30 64 1 32 61
M  V30 65 1 32 62
M  V30 END BOND
M  V30 END CTAB
M  END
>  <Dataset>  (595) 
ChEMBL_Kinases

>  <Ligand_Instance>  (595) 
nan

>  <PDB_ID>  (595) 
nan

>  <Standardized_SMILES>  (595) 
COc1cc(-c2cncc(-c3ccc(C4=CCN(C)CC4)cc3)c2C)cc(OC)c1OC

>  <Name>  (595) 
nan

>  <Pocket>  (595) 
nan

>  <ATP_Site>  (595) 
nan

>  <Peripheral>  (595) 
nan

>  <Num_H_Atoms_ProtBoundConf>  (595) 
nan

>  <Num_Resolved_Atoms>  (595) 
nan

>  <Num_Not_Resolved_Atoms>  (595) 
nan

$$$$
CHEMBL4521241
     RDKit          3D

  0  0  0  0  0  0  0  0  0  0999 V3000
M  V30 BEGIN CTAB
M  V30 COUNTS 41 43 0 0 0
M  V30 BEGIN ATOM
M  V30 1 C -0.161179 -3.051015 3.258904 0
M  V30 2 C 0.764409 -2.843965 2.091637 0
M  V30 3 C 1.793476 -3.759226 1.928072 0
M  V30 4 C 2.584799 -3.485606 0.834460 0
M  V30 5 O 3.558325 -4.232982 0.562370 0
M  V30 6 C 2.279307 -2.385907 0.063144 0
M  V30 7 C 3.104668 -2.160173 -1.018210 0
M  V30 8 O 4.200684 -2.915216 -1.410012 0
M  V30 9 C 2.842985 -1.071685 -1.823716 0
M  V30 10 C 1.785225 -0.245759 -1.541894 0
M  V30 11 O 1.519113 0.866319 -2.366088 0
M  V30 12 C 0.916257 -0.429667 -0.456685 0
M  V30 13 C -0.187201 0.482665 -0.212427 0 CFG=2
M  V30 14 C 0.390020 1.559771 0.722459 0
M  V30 15 C -0.701065 2.531012 1.120111 0
M  V30 16 N -1.801671 1.904120 1.806934 0
M  V30 17 C -2.022261 2.432286 3.128107 0
M  V30 18 C -1.723358 0.464026 1.778581 0
M  V30 19 C -1.439526 0.041074 0.358680 0 CFG=2
M  V30 20 O -1.784643 -1.316014 0.144931 0
M  V30 21 C 1.227235 -1.532845 0.312215 0
M  V30 22 O 0.498436 -1.808561 1.342903 0
M  V30 23 H -1.215825 -2.840344 2.974631 0
M  V30 24 H -0.108427 -4.087602 3.594710 0
M  V30 25 H 0.141568 -2.313856 4.014469 0
M  V30 26 H 1.943450 -4.581908 2.586757 0
M  V30 27 H 4.055402 -3.810887 -1.843848 0
M  V30 28 H 3.442024 -0.806952 -2.708338 0
M  V30 29 H 1.246863 0.688068 -3.334230 0
M  V30 30 H -0.363100 1.023807 -1.164534 0
M  V30 31 H 0.785541 1.119788 1.646504 0
M  V30 32 H 1.190610 2.137800 0.244590 0
M  V30 33 H -1.111513 2.947765 0.174834 0
M  V30 34 H -0.280773 3.349503 1.698955 0
M  V30 35 H -2.461471 1.639264 3.767073 0
M  V30 36 H -1.129300 2.901449 3.574559 0
M  V30 37 H -2.807833 3.236847 3.086178 0
M  V30 38 H -2.722125 0.078482 2.076156 0
M  V30 39 H -1.011172 0.145238 2.529222 0
M  V30 40 H -2.258304 0.544858 -0.209529 0
M  V30 41 H -1.426814 -1.510020 -0.777555 0
M  V30 END ATOM
M  V30 BEGIN BOND
M  V30 1 1 1 2
M  V30 2 2 2 3
M  V30 3 1 3 4
M  V30 4 2 4 5
M  V30 5 1 4 6
M  V30 6 2 6 7
M  V30 7 1 7 8
M  V30 8 1 7 9
M  V30 9 2 9 10
M  V30 10 1 10 11
M  V30 11 1 10 12
M  V30 12 1 12 13
M  V30 13 1 13 14
M  V30 14 1 14 15
M  V30 15 1 15 16
M  V30 16 1 16 17
M  V30 17 1 16 18
M  V30 18 1 18 19
M  V30 19 1 19 20
M  V30 20 2 12 21
M  V30 21 1 21 22
M  V30 22 1 22 2
M  V30 23 1 21 6
M  V30 24 1 19 13
M  V30 25 1 1 23
M  V30 26 1 1 24
M  V30 27 1 1 25
M  V30 28 1 3 26
M  V30 29 1 8 27
M  V30 30 1 9 28
M  V30 31 1 11 29
M  V30 32 1 13 30 CFG=3
M  V30 33 1 14 31
M  V30 34 1 14 32
M  V30 35 1 15 33
M  V30 36 1 15 34
M  V30 37 1 17 35
M  V30 38 1 17 36
M  V30 39 1 17 37
M  V30 40 1 18 38
M  V30 41 1 18 39
M  V30 42 1 19 40 CFG=3
M  V30 43 1 20 41
M  V30 END BOND
M  V30 END CTAB
M  END
>  <Dataset>  (596) 
ChEMBL_Kinases

>  <Ligand_Instance>  (596) 
nan

>  <PDB_ID>  (596) 
nan

>  <Standardized_SMILES>  (596) 
Cc1cc(=O)c2c(O)cc(O)c([C@@H]3CCN(C)C[C@@H]3O)c2o1

>  <Name>  (596) 
nan

>  <Pocket>  (596) 
nan

>  <ATP_Site>  (596) 
nan

>  <Peripheral>  (596) 
nan

>  <Num_H_Atoms_ProtBoundConf>  (596) 
nan

>  <Num_Resolved_Atoms>  (596) 
nan

>  <Num_Not_Resolved_Atoms>  (596) 
nan

$$$$
CHEMBL4521173
     RDKit          3D

  0  0  0  0  0  0  0  0  0  0999 V3000
M  V30 BEGIN CTAB
M  V30 COUNTS 50 54 0 0 0
M  V30 BEGIN ATOM
M  V30 1 C 1.580404 -2.495285 5.880784 0
M  V30 2 C 2.282047 -2.461347 4.578820 0
M  V30 3 C 1.589043 -2.634491 3.401260 0
M  V30 4 C 2.099690 -2.626501 2.150120 0
M  V30 5 C 1.440085 -2.781142 0.847976 0
M  V30 6 C 1.329490 -1.560568 0.040297 0
M  V30 7 N 2.451153 -1.251901 -0.696554 0
M  V30 8 C 2.237754 -0.151842 -1.399231 0
M  V30 9 C 3.102946 0.486768 -2.262458 0
M  V30 10 N 2.632916 1.594256 -2.860256 0
M  V30 11 C 1.388936 2.049918 -2.627969 0
M  V30 12 C 1.018830 3.177091 -3.305261 0
M  V30 13 C -0.261750 3.630111 -3.076065 0
M  V30 14 C -1.130258 2.983386 -2.209114 0
M  V30 15 C -2.437075 3.554233 -2.057166 0
M  V30 16 N -3.495056 3.998833 -1.922643 0
M  V30 17 C -0.659317 1.852992 -1.573578 0
M  V30 18 C 0.599020 1.346260 -1.750971 0
M  V30 19 C 0.966905 0.203246 -1.077635 0
M  V30 20 N 0.365649 -0.618860 -0.202055 0
M  V30 21 C -0.894165 -0.574782 0.385031 0 CFG=2
M  V30 22 C -1.107676 -1.309460 1.687181 0
M  V30 23 C -2.571692 -0.795766 1.892800 0
M  V30 24 N -3.151146 -0.856159 0.560189 0
M  V30 25 C -4.083852 -1.978677 0.501677 0
M  V30 26 C -2.065649 -1.150215 -0.372373 0
M  V30 27 N 3.453618 -2.420851 2.115703 0
M  V30 28 C 4.175523 -2.246852 3.233861 0
M  V30 29 N 3.618851 -2.262763 4.460965 0
M  V30 30 H 2.272795 -2.181084 6.671804 0
M  V30 31 H 0.723178 -1.759683 5.885591 0
M  V30 32 H 1.113846 -3.476192 6.054017 0
M  V30 33 H 0.533456 -2.803604 3.492565 0
M  V30 34 H 0.531586 -3.418471 0.880517 0
M  V30 35 H 2.138204 -3.496367 0.295173 0
M  V30 36 H 4.104265 0.110812 -2.443665 0
M  V30 37 H 1.695306 3.675334 -3.976795 0
M  V30 38 H -0.574955 4.522912 -3.603242 0
M  V30 39 H -1.417581 1.454506 -0.962425 0
M  V30 40 H -1.217722 0.461989 0.713741 0
M  V30 41 H -0.581412 -0.941759 2.545128 0
M  V30 42 H -1.285411 -2.358986 1.596928 0
M  V30 43 H -3.112741 -1.464815 2.592114 0
M  V30 44 H -2.549482 0.205827 2.330181 0
M  V30 45 H -4.112603 -2.433651 -0.512472 0
M  V30 46 H -3.755243 -2.712513 1.263606 0
M  V30 47 H -5.117308 -1.668682 0.751869 0
M  V30 48 H -1.989969 -2.252434 -0.485951 0
M  V30 49 H -2.225397 -0.715110 -1.363143 0
M  V30 50 H 5.253483 -2.089096 3.100386 0
M  V30 END ATOM
M  V30 BEGIN BOND
M  V30 1 1 1 2
M  V30 2 2 2 3
M  V30 3 1 3 4
M  V30 4 1 4 5
M  V30 5 1 5 6
M  V30 6 2 6 7
M  V30 7 1 7 8
M  V30 8 2 8 9
M  V30 9 1 9 10
M  V30 10 2 10 11
M  V30 11 1 11 12
M  V30 12 2 12 13
M  V30 13 1 13 14
M  V30 14 1 14 15
M  V30 15 3 15 16
M  V30 16 2 14 17
M  V30 17 1 17 18
M  V30 18 2 18 19
M  V30 19 1 19 20
M  V30 20 1 20 21
M  V30 21 1 21 22
M  V30 22 1 22 23
M  V30 23 1 23 24
M  V30 24 1 24 25
M  V30 25 1 24 26
M  V30 26 2 4 27
M  V30 27 1 27 28
M  V30 28 2 28 29
M  V30 29 1 29 2
M  V30 30 1 20 6
M  V30 31 1 26 21
M  V30 32 1 19 8
M  V30 33 1 18 11
M  V30 34 1 1 30
M  V30 35 1 1 31
M  V30 36 1 1 32
M  V30 37 1 3 33
M  V30 38 1 5 34
M  V30 39 1 5 35
M  V30 40 1 9 36
M  V30 41 1 12 37
M  V30 42 1 13 38
M  V30 43 1 17 39
M  V30 44 1 21 40 CFG=1
M  V30 45 1 22 41
M  V30 46 1 22 42
M  V30 47 1 23 43
M  V30 48 1 23 44
M  V30 49 1 25 45
M  V30 50 1 25 46
M  V30 51 1 25 47
M  V30 52 1 26 48
M  V30 53 1 26 49
M  V30 54 1 28 50
M  V30 END BOND
M  V30 END CTAB
M  END
>  <Dataset>  (597) 
ChEMBL_Kinases

>  <Ligand_Instance>  (597) 
nan

>  <PDB_ID>  (597) 
nan

>  <Standardized_SMILES>  (597) 
Cc1cc(Cc2nc3cnc4ccc(C#N)cc4c3n2[C@@H]2CCN(C)C2)ncn1

>  <Name>  (597) 
nan

>  <Pocket>  (597) 
nan

>  <ATP_Site>  (597) 
nan

>  <Peripheral>  (597) 
nan

>  <Num_H_Atoms_ProtBoundConf>  (597) 
nan

>  <Num_Resolved_Atoms>  (597) 
nan

>  <Num_Not_Resolved_Atoms>  (597) 
nan

$$$$
CHEMBL4521686
     RDKit          3D

  0  0  0  0  0  0  0  0  0  0999 V3000
M  V30 BEGIN CTAB
M  V30 COUNTS 41 44 0 0 0
M  V30 BEGIN ATOM
M  V30 1 C -1.662643 -4.387995 -0.820068 0
M  V30 2 O -1.311477 -3.022408 -0.757719 0
M  V30 3 C -0.092835 -2.588835 -1.236139 0
M  V30 4 C 0.815421 -3.498282 -1.792194 0
M  V30 5 C 2.021663 -3.015576 -2.255591 0
M  V30 6 F 2.924753 -3.887578 -2.804063 0
M  V30 7 C 2.379248 -1.677176 -2.198258 0
M  V30 8 C 1.444169 -0.818246 -1.638781 0
M  V30 9 C 0.223283 -1.245161 -1.160391 0
M  V30 10 N -0.723769 -0.316178 -0.588890 0
M  V30 11 C -0.246033 1.024124 -0.561632 0
M  V30 12 N -0.259853 1.726940 -1.699200 0
M  V30 13 C 0.150465 2.990795 -1.852927 0
M  V30 14 N 0.615386 3.588855 -0.745411 0
M  V30 15 C 0.649756 2.938131 0.404088 0
M  V30 16 S 1.187147 3.409600 2.049827 0
M  V30 17 C 0.812257 1.829469 2.855437 0
M  V30 18 C 0.313135 1.074670 1.822163 0
M  V30 19 C 0.229725 1.633591 0.577773 0
M  V30 20 C -0.030901 -0.240022 2.413239 0
M  V30 21 C 1.133598 -0.618492 3.339073 0
M  V30 22 N 0.894807 0.139394 4.552885 0
M  V30 23 C -0.334576 -0.231598 5.212177 0
M  V30 24 C 1.025960 1.526104 4.258737 0
M  V30 25 H -2.746523 -4.505388 -0.617871 0
M  V30 26 H -1.469220 -4.830086 -1.815917 0
M  V30 27 H -1.087178 -4.909789 -0.006675 0
M  V30 28 H 0.603314 -4.544456 -1.865235 0
M  V30 29 H 3.321210 -1.305598 -2.561726 0
M  V30 30 H 1.731057 0.215707 -1.600050 0
M  V30 31 H -1.638500 -0.681427 -0.257285 0
M  V30 32 H 0.114639 3.506056 -2.802552 0
M  V30 33 H -0.156204 -1.044128 1.681126 0
M  V30 34 H -0.971703 -0.179229 3.015652 0
M  V30 35 H 2.054121 -0.254737 2.876625 0
M  V30 36 H 1.204532 -1.694771 3.498713 0
M  V30 37 H -0.645486 -1.205860 4.791690 0
M  V30 38 H -1.155250 0.484686 5.020728 0
M  V30 39 H -0.208935 -0.388486 6.308534 0
M  V30 40 H 0.364528 2.097408 4.962870 0
M  V30 41 H 2.079746 1.809920 4.552319 0
M  V30 END ATOM
M  V30 BEGIN BOND
M  V30 1 1 1 2
M  V30 2 1 2 3
M  V30 3 2 3 4
M  V30 4 1 4 5
M  V30 5 1 5 6
M  V30 6 2 5 7
M  V30 7 1 7 8
M  V30 8 2 8 9
M  V30 9 1 9 10
M  V30 10 1 10 11
M  V30 11 2 11 12
M  V30 12 1 12 13
M  V30 13 2 13 14
M  V30 14 1 14 15
M  V30 15 1 15 16
M  V30 16 1 16 17
M  V30 17 2 17 18
M  V30 18 1 18 19
M  V30 19 1 18 20
M  V30 20 1 20 21
M  V30 21 1 21 22
M  V30 22 1 22 23
M  V30 23 1 22 24
M  V30 24 1 9 3
M  V30 25 1 19 11
M  V30 26 2 19 15
M  V30 27 1 24 17
M  V30 28 1 1 25
M  V30 29 1 1 26
M  V30 30 1 1 27
M  V30 31 1 4 28
M  V30 32 1 7 29
M  V30 33 1 8 30
M  V30 34 1 10 31
M  V30 35 1 13 32
M  V30 36 1 20 33
M  V30 37 1 20 34
M  V30 38 1 21 35
M  V30 39 1 21 36
M  V30 40 1 23 37
M  V30 41 1 23 38
M  V30 42 1 23 39
M  V30 43 1 24 40
M  V30 44 1 24 41
M  V30 END BOND
M  V30 END CTAB
M  END
>  <Dataset>  (598) 
ChEMBL_Kinases

>  <Ligand_Instance>  (598) 
nan

>  <PDB_ID>  (598) 
nan

>  <Standardized_SMILES>  (598) 
COc1cc(F)ccc1Nc1ncnc2sc3c(c12)CCN(C)C3

>  <Name>  (598) 
nan

>  <Pocket>  (598) 
nan

>  <ATP_Site>  (598) 
nan

>  <Peripheral>  (598) 
nan

>  <Num_H_Atoms_ProtBoundConf>  (598) 
nan

>  <Num_Resolved_Atoms>  (598) 
nan

>  <Num_Not_Resolved_Atoms>  (598) 
nan

$$$$
CHEMBL4518287
     RDKit          3D

  0  0  0  0  0  0  0  0  0  0999 V3000
M  V30 BEGIN CTAB
M  V30 COUNTS 52 55 0 0 0
M  V30 BEGIN ATOM
M  V30 1 C 2.728244 -7.116273 1.203741 0
M  V30 2 C 1.973818 -6.947550 2.283343 0
M  V30 3 S 2.250871 -5.330188 2.945877 0
M  V30 4 O 3.715062 -5.323298 3.352618 0
M  V30 5 O 1.385773 -5.193831 4.151727 0
M  V30 6 C 1.991832 -4.098485 1.750821 0
M  V30 7 C 0.736669 -3.545323 1.585766 0
M  V30 8 C 0.626197 -2.588564 0.628591 0
M  V30 9 C 1.684058 -2.174105 -0.146212 0
M  V30 10 N 1.544615 -1.169576 -1.139555 0
M  V30 11 C 0.418821 -0.405378 -1.544129 0
M  V30 12 N 0.225363 0.752091 -0.921839 0
M  V30 13 C -0.741188 1.645557 -1.112274 0
M  V30 14 O -1.145537 2.834681 -0.643777 0
M  V30 15 C -0.694431 3.673470 0.297381 0
M  V30 16 C -0.611243 3.306940 1.731575 0
M  V30 17 C 0.273674 2.162846 2.087611 0
M  V30 18 C -0.375588 0.851050 2.309299 0
M  V30 19 C -1.806685 0.698269 1.969869 0
M  V30 20 C -2.663738 1.905186 2.025387 0
M  V30 21 C -1.971412 3.187494 2.392513 0
M  V30 22 C -1.641815 1.245596 -2.121564 0
M  V30 23 N -2.770168 1.742344 -2.714506 0
M  V30 24 C -3.227737 0.906515 -3.655344 0
M  V30 25 N -2.444559 -0.178184 -3.743238 0
M  V30 26 C -1.504294 0.042872 -2.820454 0
M  V30 27 N -0.454100 -0.762431 -2.501718 0
M  V30 28 C 2.940298 -2.712213 0.002808 0
M  V30 29 C 3.080270 -3.693438 0.975616 0
M  V30 30 H 2.851236 -7.950552 0.518909 0
M  V30 31 H 2.901934 -7.916686 0.475073 0
M  V30 32 H 1.284383 -7.649817 2.729745 0
M  V30 33 H -0.078024 -3.888079 2.206865 0
M  V30 34 H -0.322550 -2.110330 0.442953 0
M  V30 35 H 2.298373 -0.836891 -1.743328 0
M  V30 36 H 0.363820 4.046583 0.019082 0
M  V30 37 H -1.285324 4.657510 0.177722 0
M  V30 38 H -0.134365 4.214958 2.236331 0
M  V30 39 H 1.043667 2.062136 1.268595 0
M  V30 40 H 0.933330 2.442090 2.975525 0
M  V30 41 H -0.189796 0.581256 3.397631 0
M  V30 42 H 0.197155 0.037105 1.767760 0
M  V30 43 H -1.937777 0.119278 1.001132 0
M  V30 44 H -2.223875 -0.049137 2.721175 0
M  V30 45 H -3.084718 2.061004 0.999621 0
M  V30 46 H -3.549988 1.707869 2.659627 0
M  V30 47 H -2.591611 4.061379 2.137077 0
M  V30 48 H -1.833130 3.187846 3.491820 0
M  V30 49 H -4.115714 1.113395 -4.246882 0
M  V30 50 H -2.519733 -1.005824 -4.364279 0
M  V30 51 H 3.760763 -2.383338 -0.606469 0
M  V30 52 H 4.073214 -4.114373 1.088073 0
M  V30 END ATOM
M  V30 BEGIN BOND
M  V30 1 2 1 2
M  V30 2 1 2 3
M  V30 3 2 3 4
M  V30 4 2 3 5
M  V30 5 1 3 6
M  V30 6 2 6 7
M  V30 7 1 7 8
M  V30 8 2 8 9
M  V30 9 1 9 10
M  V30 10 1 10 11
M  V30 11 2 11 12
M  V30 12 1 12 13
M  V30 13 1 13 14
M  V30 14 1 14 15
M  V30 15 1 15 16
M  V30 16 1 16 17
M  V30 17 1 17 18
M  V30 18 1 18 19
M  V30 19 1 19 20
M  V30 20 1 20 21
M  V30 21 2 13 22
M  V30 22 1 22 23
M  V30 23 2 23 24
M  V30 24 1 24 25
M  V30 25 1 25 26
M  V30 26 2 26 27
M  V30 27 1 9 28
M  V30 28 2 28 29
M  V30 29 1 29 6
M  V30 30 1 27 11
M  V30 31 1 21 16
M  V30 32 1 26 22
M  V30 33 1 1 30
M  V30 34 1 1 31
M  V30 35 1 2 32
M  V30 36 1 7 33
M  V30 37 1 8 34
M  V30 38 1 10 35
M  V30 39 1 15 36
M  V30 40 1 15 37
M  V30 41 1 16 38
M  V30 42 1 17 39
M  V30 43 1 17 40
M  V30 44 1 18 41
M  V30 45 1 18 42
M  V30 46 1 19 43
M  V30 47 1 19 44
M  V30 48 1 20 45
M  V30 49 1 20 46
M  V30 50 1 21 47
M  V30 51 1 21 48
M  V30 52 1 24 49
M  V30 53 1 25 50
M  V30 54 1 28 51
M  V30 55 1 29 52
M  V30 END BOND
M  V30 END CTAB
M  END
>  <Dataset>  (599) 
ChEMBL_Kinases

>  <Ligand_Instance>  (599) 
nan

>  <PDB_ID>  (599) 
nan

>  <Standardized_SMILES>  (599) 
C=CS(=O)(=O)c1ccc(Nc2nc(OCC3CCCCC3)c3nc[nH]c3n2)cc1

>  <Name>  (599) 
nan

>  <Pocket>  (599) 
nan

>  <ATP_Site>  (599) 
nan

>  <Peripheral>  (599) 
nan

>  <Num_H_Atoms_ProtBoundConf>  (599) 
nan

>  <Num_Resolved_Atoms>  (599) 
nan

>  <Num_Not_Resolved_Atoms>  (599) 
nan

$$$$
CHEMBL4518235
     RDKit          3D

  0  0  0  0  0  0  0  0  0  0999 V3000
M  V30 BEGIN CTAB
M  V30 COUNTS 42 45 0 0 0
M  V30 BEGIN ATOM
M  V30 1 C -0.938497 -5.393310 0.478775 0
M  V30 2 O 0.425053 -5.464019 0.852041 0
M  V30 3 C 1.152342 -4.291020 0.984989 0
M  V30 4 C 2.469507 -4.527651 1.355109 0
M  V30 5 C 3.332733 -3.446721 1.529986 0
M  V30 6 C 2.840497 -2.183249 1.327370 0
M  V30 7 C 1.532375 -1.941094 0.959499 0
M  V30 8 C 0.988764 -0.603789 0.739988 0
M  V30 9 N 1.502485 0.222109 -0.218341 0
M  V30 10 N 0.819389 1.371785 -0.196383 0
M  V30 11 C 1.036091 2.504491 -1.038194 0
M  V30 12 C 0.129640 2.929072 -1.999507 0
M  V30 13 C 0.438736 4.055445 -2.774835 0
M  V30 14 C 1.643863 4.680779 -2.529282 0
M  V30 15 C 2.557111 4.272784 -1.578005 0
M  V30 16 C 2.237386 3.161672 -0.822931 0
M  V30 17 C -0.148730 1.355200 0.751761 0
M  V30 18 C -0.035107 0.106873 1.336988 0
M  V30 19 C -0.809814 -0.498453 2.422689 0
M  V30 20 C -2.146938 -0.575647 2.063812 0
M  V30 21 C -3.086992 -1.122111 2.946017 0
M  V30 22 N -2.648349 -1.563069 4.138741 0
M  V30 23 C -1.374259 -1.495508 4.494278 0
M  V30 24 C -0.410210 -0.965386 3.659347 0
M  V30 25 C 0.670952 -3.003673 0.784008 0
M  V30 26 H -1.343037 -6.389002 0.247800 0
M  V30 27 H -1.058144 -4.657069 -0.336944 0
M  V30 28 H -1.526628 -5.006510 1.344746 0
M  V30 29 H 2.901353 -5.499434 1.525629 0
M  V30 30 H 4.376845 -3.476919 1.814508 0
M  V30 31 H 3.434031 -1.294607 1.439775 0
M  V30 32 H -0.798595 2.353027 -2.106738 0
M  V30 33 H -0.272322 4.368421 -3.511319 0
M  V30 34 H 1.825834 5.544687 -3.160021 0
M  V30 35 H 3.500074 4.812437 -1.429158 0
M  V30 36 H 2.956004 2.825084 -0.061844 0
M  V30 37 H -0.857123 2.096352 1.025583 0
M  V30 38 H -2.609678 -0.249482 1.125759 0
M  V30 39 H -4.152044 -1.200721 2.700518 0
M  V30 40 H -0.967391 -1.838901 5.448873 0
M  V30 41 H 0.654802 -0.841864 3.801431 0
M  V30 42 H -0.377119 -2.923559 0.495194 0
M  V30 END ATOM
M  V30 BEGIN BOND
M  V30 1 1 1 2
M  V30 2 1 2 3
M  V30 3 2 3 4
M  V30 4 1 4 5
M  V30 5 2 5 6
M  V30 6 1 6 7
M  V30 7 1 7 8
M  V30 8 2 8 9
M  V30 9 1 9 10
M  V30 10 1 10 11
M  V30 11 2 11 12
M  V30 12 1 12 13
M  V30 13 2 13 14
M  V30 14 1 14 15
M  V30 15 2 15 16
M  V30 16 1 10 17
M  V30 17 2 17 18
M  V30 18 1 18 19
M  V30 19 2 19 20
M  V30 20 1 20 21
M  V30 21 2 21 22
M  V30 22 1 22 23
M  V30 23 2 23 24
M  V30 24 2 7 25
M  V30 25 1 25 3
M  V30 26 1 18 8
M  V30 27 1 24 19
M  V30 28 1 16 11
M  V30 29 1 1 26
M  V30 30 1 1 27
M  V30 31 1 1 28
M  V30 32 1 4 29
M  V30 33 1 5 30
M  V30 34 1 6 31
M  V30 35 1 12 32
M  V30 36 1 13 33
M  V30 37 1 14 34
M  V30 38 1 15 35
M  V30 39 1 16 36
M  V30 40 1 17 37
M  V30 41 1 20 38
M  V30 42 1 21 39
M  V30 43 1 23 40
M  V30 44 1 24 41
M  V30 45 1 25 42
M  V30 END BOND
M  V30 END CTAB
M  END
>  <Dataset>  (600) 
ChEMBL_Kinases

>  <Ligand_Instance>  (600) 
nan

>  <PDB_ID>  (600) 
nan

>  <Standardized_SMILES>  (600) 
COc1cccc(-c2nn(-c3ccccc3)cc2-c2ccncc2)c1

>  <Name>  (600) 
nan

>  <Pocket>  (600) 
nan

>  <ATP_Site>  (600) 
nan

>  <Peripheral>  (600) 
nan

>  <Num_H_Atoms_ProtBoundConf>  (600) 
nan

>  <Num_Resolved_Atoms>  (600) 
nan

>  <Num_Not_Resolved_Atoms>  (600) 
nan

$$$$
CHEMBL451802
     RDKit          3D

  0  0  0  0  0  0  0  0  0  0999 V3000
M  V30 BEGIN CTAB
M  V30 COUNTS 57 58 0 0 0
M  V30 BEGIN ATOM
M  V30 1 C 0.417733 1.206155 3.869270 0
M  V30 2 C 1.735937 1.382665 4.528770 0
M  V30 3 C 2.942531 1.032042 3.740815 0
M  V30 4 C 3.168799 1.775900 2.474517 0
M  V30 5 C 4.451040 1.310568 1.783308 0
M  V30 6 C 4.487144 -0.129172 1.444554 0
M  V30 7 C 3.427102 -0.623950 0.508432 0
M  V30 8 C 2.068039 1.738538 1.525817 0
M  V30 9 O 1.268788 1.637289 0.592761 0
M  V30 10 O 0.956381 1.805200 0.932425 0
M  V30 11 C -0.191487 1.873429 0.317577 0
M  V30 12 C -0.703489 0.622421 -0.305862 0
M  V30 13 C 0.070636 0.143477 -1.517013 0
M  V30 14 O 0.068868 1.200067 -2.436407 0
M  V30 15 C -0.998414 -0.443350 0.702346 0
M  V30 16 C -1.749846 -1.400956 -0.215246 0
M  V30 17 C -1.795673 -2.685421 -0.525438 0
M  V30 18 C -2.673357 -3.316626 -1.502328 0
M  V30 19 C -2.846979 -2.774926 -2.757345 0
M  V30 20 C -3.684375 -3.346076 -3.691550 0
M  V30 21 C -4.363871 -4.501297 -3.338083 0
M  V30 22 C -4.187795 -5.052190 -2.064901 0
M  V30 23 C -4.909712 -6.302643 -1.652112 0
M  V30 24 F -3.985411 -7.332027 -1.651381 0
M  V30 25 F -5.434696 -6.133317 -0.389507 0
M  V30 26 F -5.884356 -6.529707 -2.610218 0
M  V30 27 C -3.344482 -4.466248 -1.141225 0
M  V30 28 C -2.653350 -0.386960 -0.813480 0
M  V30 29 O -3.837213 -0.706969 -1.217812 0
M  V30 30 O -2.033105 0.876836 -0.850556 0
M  V30 31 H 0.318393 0.363475 3.183638 0
M  V30 32 H 0.061401 2.184431 3.470275 0
M  V30 33 H -0.327286 0.983535 4.697441 0
M  V30 34 H 1.760995 0.714496 5.440896 0
M  V30 35 H 1.775156 2.414611 4.935211 0
M  V30 36 H 2.982048 -0.060834 3.593485 0
M  V30 37 H 3.823122 1.287082 4.406508 0
M  V30 38 H 3.384095 2.868258 2.736600 0
M  V30 39 H 5.306255 1.631926 2.412704 0
M  V30 40 H 4.579636 1.881340 0.825752 0
M  V30 41 H 4.455184 -0.804020 2.331607 0
M  V30 42 H 5.495541 -0.327951 0.972229 0
M  V30 43 H 3.695008 -1.626778 0.095180 0
M  V30 44 H 3.262962 0.023506 -0.354976 0
M  V30 45 H 2.444021 -0.770431 1.029505 0
M  V30 46 H -0.255543 2.727896 -0.442044 0
M  V30 47 H -1.009669 2.156545 1.083662 0
M  V30 48 H -0.474266 -0.731497 -1.975873 0
M  V30 49 H 1.049004 -0.202572 -1.244777 0
M  V30 50 H -0.814388 1.160916 -2.901535 0
M  V30 51 H -1.665800 -0.036544 1.466777 0
M  V30 52 H -0.087319 -0.902368 1.087971 0
M  V30 53 H -1.047001 -3.200975 0.087611 0
M  V30 54 H -2.339937 -1.887969 -3.106875 0
M  V30 55 H -3.858500 -2.965867 -4.681735 0
M  V30 56 H -5.048402 -5.004855 -4.043168 0
M  V30 57 H -3.188083 -4.861858 -0.155109 0
M  V30 END ATOM
M  V30 BEGIN BOND
M  V30 1 1 1 2
M  V30 2 1 2 3
M  V30 3 1 3 4
M  V30 4 1 4 5
M  V30 5 1 5 6
M  V30 6 1 6 7
M  V30 7 1 4 8
M  V30 8 2 8 9
M  V30 9 1 8 10
M  V30 10 1 10 11
M  V30 11 1 11 12
M  V30 12 1 12 13
M  V30 13 1 13 14
M  V30 14 1 12 15
M  V30 15 1 15 16
M  V30 16 2 16 17
M  V30 17 1 17 18
M  V30 18 2 18 19
M  V30 19 1 19 20
M  V30 20 2 20 21
M  V30 21 1 21 22
M  V30 22 1 22 23
M  V30 23 1 23 24
M  V30 24 1 23 25
M  V30 25 1 23 26
M  V30 26 2 22 27
M  V30 27 1 16 28
M  V30 28 2 28 29
M  V30 29 1 28 30
M  V30 30 1 30 12
M  V30 31 1 27 18
M  V30 32 1 1 31
M  V30 33 1 1 32
M  V30 34 1 1 33
M  V30 35 1 2 34
M  V30 36 1 2 35
M  V30 37 1 3 36
M  V30 38 1 3 37
M  V30 39 1 4 38
M  V30 40 1 5 39
M  V30 41 1 5 40
M  V30 42 1 6 41
M  V30 43 1 6 42
M  V30 44 1 7 43
M  V30 45 1 7 44
M  V30 46 1 7 45
M  V30 47 1 11 46
M  V30 48 1 11 47
M  V30 49 1 13 48
M  V30 50 1 13 49
M  V30 51 1 14 50
M  V30 52 1 15 51
M  V30 53 1 15 52
M  V30 54 1 17 53
M  V30 55 1 19 54
M  V30 56 1 20 55
M  V30 57 1 21 56
M  V30 58 1 27 57
M  V30 END BOND
M  V30 END CTAB
M  END
>  <Dataset>  (601) 
ChEMBL_Kinases

>  <Ligand_Instance>  (601) 
nan

>  <PDB_ID>  (601) 
nan

>  <Standardized_SMILES>  (601) 
CCCC(CCC)C(=O)OCC1(CO)C/C(=C/c2cccc(C(F)(F)F)c2)C(=O)O1

>  <Name>  (601) 
nan

>  <Pocket>  (601) 
nan

>  <ATP_Site>  (601) 
nan

>  <Peripheral>  (601) 
nan

>  <Num_H_Atoms_ProtBoundConf>  (601) 
nan

>  <Num_Resolved_Atoms>  (601) 
nan

>  <Num_Not_Resolved_Atoms>  (601) 
nan

$$$$
CHEMBL451801
     RDKit          3D

  0  0  0  0  0  0  0  0  0  0999 V3000
M  V30 BEGIN CTAB
M  V30 COUNTS 57 58 0 0 0
M  V30 BEGIN ATOM
M  V30 1 C 1.279903 -0.106471 3.935583 0
M  V30 2 C 2.209527 0.877018 4.548654 0
M  V30 3 C 3.186232 1.533823 3.631191 0
M  V30 4 C 2.558043 2.370042 2.590630 0
M  V30 5 C 3.576186 3.031603 1.671965 0
M  V30 6 C 4.461839 2.099607 0.939321 0
M  V30 7 C 3.756124 1.134723 0.027919 0
M  V30 8 C 1.531401 1.691274 1.822018 0
M  V30 9 O 0.413712 2.297208 1.854229 0
M  V30 10 O 0.818516 0.838145 1.044033 0
M  V30 11 C -0.534569 1.010874 0.730215 0
M  V30 12 C -0.892170 -0.175892 -0.143664 0
M  V30 13 C -0.236813 -0.154804 -1.482241 0
M  V30 14 O 1.138889 -0.256592 -1.395274 0
M  V30 15 C -2.423826 -0.270457 -0.275786 0
M  V30 16 C -2.531775 -1.673020 -0.764126 0
M  V30 17 C -3.256947 -2.357433 -1.622290 0
M  V30 18 C -3.164150 -3.776385 -1.937688 0
M  V30 19 C -1.932883 -4.340714 -2.240676 0
M  V30 20 C -1.797056 -5.683256 -2.522427 0
M  V30 21 C -2.935011 -6.469712 -2.497021 0
M  V30 22 C -4.170924 -5.896250 -2.192123 0
M  V30 23 C -4.304721 -4.551040 -1.909450 0
M  V30 24 C -5.625884 -3.948730 -1.574832 0
M  V30 25 F -5.884007 -2.970285 -2.522883 0
M  V30 26 F -6.568073 -4.940880 -1.643343 0
M  V30 27 F -5.561257 -3.323539 -0.343192 0
M  V30 28 C -1.509648 -2.312837 0.085629 0
M  V30 29 O -1.426583 -3.558757 0.350796 0
M  V30 30 O -0.626534 -1.363173 0.575085 0
M  V30 31 H 1.822403 -0.575416 3.078103 0
M  V30 32 H 1.044563 -0.959875 4.660397 0
M  V30 33 H 0.293786 0.258919 3.637382 0
M  V30 34 H 2.816410 0.298572 5.313983 0
M  V30 35 H 1.666895 1.644134 5.171519 0
M  V30 36 H 3.880446 2.174035 4.229380 0
M  V30 37 H 3.784057 0.669811 3.181261 0
M  V30 38 H 2.095514 3.259599 3.168232 0
M  V30 39 H 4.113669 3.821615 2.227702 0
M  V30 40 H 2.965764 3.585799 0.901278 0
M  V30 41 H 5.204718 1.580116 1.595379 0
M  V30 42 H 5.111722 2.737572 0.270650 0
M  V30 43 H 4.439477 0.766594 -0.791207 0
M  V30 44 H 2.922431 1.623529 -0.510187 0
M  V30 45 H 3.415435 0.223731 0.533919 0
M  V30 46 H -0.668374 1.946590 0.129747 0
M  V30 47 H -1.228940 1.049164 1.570577 0
M  V30 48 H -0.497147 0.801574 -1.988573 0
M  V30 49 H -0.615932 -1.021447 -2.072279 0
M  V30 50 H 1.545773 0.330071 -2.061836 0
M  V30 51 H -2.814958 -0.154524 0.743143 0
M  V30 52 H -2.816911 0.458591 -0.994350 0
M  V30 53 H -3.995348 -1.706498 -2.117043 0
M  V30 54 H -1.002005 -3.793160 -2.292425 0
M  V30 55 H -0.926125 -6.243507 -2.767483 0
M  V30 56 H -2.965621 -7.531776 -2.697288 0
M  V30 57 H -5.077229 -6.511657 -2.169142 0
M  V30 END ATOM
M  V30 BEGIN BOND
M  V30 1 1 1 2
M  V30 2 1 2 3
M  V30 3 1 3 4
M  V30 4 1 4 5
M  V30 5 1 5 6
M  V30 6 1 6 7
M  V30 7 1 4 8
M  V30 8 2 8 9
M  V30 9 1 8 10
M  V30 10 1 10 11
M  V30 11 1 11 12
M  V30 12 1 12 13
M  V30 13 1 13 14
M  V30 14 1 12 15
M  V30 15 1 15 16
M  V30 16 2 16 17
M  V30 17 1 17 18
M  V30 18 2 18 19
M  V30 19 1 19 20
M  V30 20 2 20 21
M  V30 21 1 21 22
M  V30 22 2 22 23
M  V30 23 1 23 24
M  V30 24 1 24 25
M  V30 25 1 24 26
M  V30 26 1 24 27
M  V30 27 1 16 28
M  V30 28 2 28 29
M  V30 29 1 28 30
M  V30 30 1 30 12
M  V30 31 1 23 18
M  V30 32 1 1 31
M  V30 33 1 1 32
M  V30 34 1 1 33
M  V30 35 1 2 34
M  V30 36 1 2 35
M  V30 37 1 3 36
M  V30 38 1 3 37
M  V30 39 1 4 38
M  V30 40 1 5 39
M  V30 41 1 5 40
M  V30 42 1 6 41
M  V30 43 1 6 42
M  V30 44 1 7 43
M  V30 45 1 7 44
M  V30 46 1 7 45
M  V30 47 1 11 46
M  V30 48 1 11 47
M  V30 49 1 13 48
M  V30 50 1 13 49
M  V30 51 1 14 50
M  V30 52 1 15 51
M  V30 53 1 15 52
M  V30 54 1 17 53
M  V30 55 1 19 54
M  V30 56 1 20 55
M  V30 57 1 21 56
M  V30 58 1 22 57
M  V30 END BOND
M  V30 END CTAB
M  END
>  <Dataset>  (602) 
ChEMBL_Kinases

>  <Ligand_Instance>  (602) 
nan

>  <PDB_ID>  (602) 
nan

>  <Standardized_SMILES>  (602) 
CCCC(CCC)C(=O)OCC1(CO)C/C(=C/c2ccccc2C(F)(F)F)C(=O)O1

>  <Name>  (602) 
nan

>  <Pocket>  (602) 
nan

>  <ATP_Site>  (602) 
nan

>  <Peripheral>  (602) 
nan

>  <Num_H_Atoms_ProtBoundConf>  (602) 
nan

>  <Num_Resolved_Atoms>  (602) 
nan

>  <Num_Not_Resolved_Atoms>  (602) 
nan

$$$$
CHEMBL451800
     RDKit          3D

  0  0  0  0  0  0  0  0  0  0999 V3000
M  V30 BEGIN CTAB
M  V30 COUNTS 51 53 0 0 0
M  V30 BEGIN ATOM
M  V30 1 C 1.122212 -6.489172 3.942723 0
M  V30 2 N 1.296715 -5.142826 4.455972 0
M  V30 3 C 1.087993 -4.879761 5.882991 0
M  V30 4 C 1.663101 -4.054037 3.616629 0
M  V30 5 C 1.836481 -2.790436 4.138851 0
M  V30 6 C 2.190206 -1.737918 3.292784 0
M  V30 7 C 2.372291 -1.945555 1.915044 0
M  V30 8 C 2.746260 -0.706900 1.293009 0
M  V30 9 C 2.253330 -0.112757 0.224925 0
M  V30 10 C 2.588789 1.157840 -0.475078 0
M  V30 11 C 1.325038 1.360931 -1.323125 0
M  V30 12 C 1.651816 2.257388 -2.456095 0
M  V30 13 O 2.734102 1.787183 -3.184784 0
M  V30 14 C 0.176682 1.800707 -0.464106 0
M  V30 15 O -1.053835 1.799415 -1.157668 0
M  V30 16 C -2.253182 2.138776 -0.560206 0
M  V30 17 O -1.839364 2.381523 0.596709 0
M  V30 18 C -3.543864 2.158755 -1.220895 0
M  V30 19 C -4.650579 2.505066 -0.455172 0
M  V30 20 C -5.838889 2.510059 -1.154527 0
M  V30 21 C -5.902097 2.196581 -2.494709 0
M  V30 22 C -4.758597 1.855005 -3.219031 0
M  V30 23 C -3.533164 1.835192 -2.557125 0
M  V30 24 O 0.984292 0.017672 -1.725339 0
M  V30 25 C 1.110837 -0.688050 -0.504060 0
M  V30 26 O 0.357265 -1.641640 -0.131449 0
M  V30 27 C 2.194278 -3.200685 1.437131 0
M  V30 28 C 1.840376 -4.278258 2.253228 0
M  V30 29 H 1.035875 -7.204032 4.790660 0
M  V30 30 H 2.016571 -6.774903 3.313932 0
M  V30 31 H 0.246980 -6.581356 3.269653 0
M  V30 32 H 1.979302 -4.527743 6.400795 0
M  V30 33 H 0.563952 -5.738351 6.363376 0
M  V30 34 H 0.331729 -4.046225 5.918327 0
M  V30 35 H 1.684237 -2.681732 5.203521 0
M  V30 36 H 2.291009 -0.799557 3.851495 0
M  V30 37 H 3.566672 -0.087619 1.704615 0
M  V30 38 H 2.651870 2.032354 0.205029 0
M  V30 39 H 3.495074 1.119087 -1.075596 0
M  V30 40 H 0.785512 2.491901 -3.093230 0
M  V30 41 H 1.982536 3.235506 -2.026680 0
M  V30 42 H 2.544767 1.917976 -4.141953 0
M  V30 43 H 0.054814 1.192365 0.444178 0
M  V30 44 H 0.353767 2.857541 -0.157507 0
M  V30 45 H -4.549887 2.740442 0.585499 0
M  V30 46 H -6.757516 2.770376 -0.631825 0
M  V30 47 H -6.864096 2.216131 -2.993784 0
M  V30 48 H -4.779577 1.606572 -4.260871 0
M  V30 49 H -2.628178 1.578318 -3.076656 0
M  V30 50 H 2.363790 -3.299955 0.384161 0
M  V30 51 H 1.720012 -5.237899 1.780896 0
M  V30 END ATOM
M  V30 BEGIN BOND
M  V30 1 1 1 2
M  V30 2 1 2 3
M  V30 3 1 2 4
M  V30 4 2 4 5
M  V30 5 1 5 6
M  V30 6 2 6 7
M  V30 7 1 7 8
M  V30 8 2 8 9
M  V30 9 1 9 10
M  V30 10 1 10 11
M  V30 11 1 11 12
M  V30 12 1 12 13
M  V30 13 1 11 14
M  V30 14 1 14 15
M  V30 15 1 15 16
M  V30 16 2 16 17
M  V30 17 1 16 18
M  V30 18 2 18 19
M  V30 19 1 19 20
M  V30 20 2 20 21
M  V30 21 1 21 22
M  V30 22 2 22 23
M  V30 23 1 11 24
M  V30 24 1 24 25
M  V30 25 2 25 26
M  V30 26 1 7 27
M  V30 27 2 27 28
M  V30 28 1 28 4
M  V30 29 1 25 9
M  V30 30 1 23 18
M  V30 31 1 1 29
M  V30 32 1 1 30
M  V30 33 1 1 31
M  V30 34 1 3 32
M  V30 35 1 3 33
M  V30 36 1 3 34
M  V30 37 1 5 35
M  V30 38 1 6 36
M  V30 39 1 8 37
M  V30 40 1 10 38
M  V30 41 1 10 39
M  V30 42 1 12 40
M  V30 43 1 12 41
M  V30 44 1 13 42
M  V30 45 1 14 43
M  V30 46 1 14 44
M  V30 47 1 19 45
M  V30 48 1 20 46
M  V30 49 1 21 47
M  V30 50 1 22 48
M  V30 51 1 23 49
M  V30 52 1 27 50
M  V30 53 1 28 51
M  V30 END BOND
M  V30 END CTAB
M  END
>  <Dataset>  (603) 
ChEMBL_Kinases

>  <Ligand_Instance>  (603) 
nan

>  <PDB_ID>  (603) 
nan

>  <Standardized_SMILES>  (603) 
CN(C)c1ccc(/C=C2/CC(CO)(COC(=O)c3ccccc3)OC2=O)cc1

>  <Name>  (603) 
nan

>  <Pocket>  (603) 
nan

>  <ATP_Site>  (603) 
nan

>  <Peripheral>  (603) 
nan

>  <Num_H_Atoms_ProtBoundConf>  (603) 
nan

>  <Num_Resolved_Atoms>  (603) 
nan

>  <Num_Not_Resolved_Atoms>  (603) 
nan

$$$$
CHEMBL451799
     RDKit          3D

  0  0  0  0  0  0  0  0  0  0999 V3000
M  V30 BEGIN CTAB
M  V30 COUNTS 57 59 0 0 0
M  V30 BEGIN ATOM
M  V30 1 C 1.064403 -7.325072 3.741404 0
M  V30 2 N 1.110725 -5.987504 4.316970 0
M  V30 3 C 0.670788 -5.876155 5.714257 0
M  V30 4 C 1.536732 -4.804652 3.650952 0
M  V30 5 C 1.541050 -3.591409 4.302343 0
M  V30 6 C 1.956986 -2.454389 3.636504 0
M  V30 7 C 2.381732 -2.494612 2.298476 0
M  V30 8 C 2.785912 -1.197424 1.829564 0
M  V30 9 C 2.453772 -0.539542 0.709596 0
M  V30 10 C 2.866306 0.780123 0.227369 0
M  V30 11 C 1.755093 1.058576 -0.838633 0
M  V30 12 C 2.288164 2.028464 -1.825799 0
M  V30 13 O 3.614728 1.630483 -2.127499 0
M  V30 14 C 0.486801 1.354214 -0.147942 0
M  V30 15 O -0.703606 1.339121 -0.858395 0
M  V30 16 C -1.178415 2.131477 -1.846250 0
M  V30 17 O -0.555680 3.106376 -2.310961 0
M  V30 18 C -2.527709 1.715491 -2.320965 0
M  V30 19 C -3.494010 1.778777 -1.138199 0
M  V30 20 C -4.877662 1.375840 -1.528922 0
M  V30 21 C -5.131304 1.430363 -3.009918 0
M  V30 22 C -4.514434 2.716739 -3.513789 0
M  V30 23 C -3.035442 2.768384 -3.315186 0
M  V30 24 O 1.683354 -0.274600 -1.379933 0
M  V30 25 C 1.499573 -1.108379 -0.257385 0
M  V30 26 O 0.745562 -2.097340 -0.042578 0
M  V30 27 C 2.358442 -3.712795 1.706136 0
M  V30 28 C 1.950369 -4.881321 2.329374 0
M  V30 29 H 0.151549 -7.839437 4.162390 0
M  V30 30 H 1.986113 -7.907132 3.931552 0
M  V30 31 H 0.911818 -7.314624 2.643532 0
M  V30 32 H 0.165334 -6.797472 6.066920 0
M  V30 33 H 1.511137 -5.684064 6.397974 0
M  V30 34 H -0.136651 -5.087336 5.768324 0
M  V30 35 H 1.207391 -3.589497 5.336858 0
M  V30 36 H 1.914125 -1.574489 4.249538 0
M  V30 37 H 3.483361 -0.613498 2.460169 0
M  V30 38 H 2.764307 1.606917 0.949943 0
M  V30 39 H 3.851017 0.809621 -0.262819 0
M  V30 40 H 1.735073 1.969278 -2.793233 0
M  V30 41 H 2.333069 3.023184 -1.396077 0
M  V30 42 H 3.868113 2.170608 -2.940967 0
M  V30 43 H 0.365667 0.547254 0.646133 0
M  V30 44 H 0.595107 2.312598 0.458460 0
M  V30 45 H -2.545434 0.734807 -2.816112 0
M  V30 46 H -3.490780 2.846610 -0.830268 0
M  V30 47 H -3.113539 1.159615 -0.295096 0
M  V30 48 H -5.188518 0.394191 -1.153509 0
M  V30 49 H -5.606861 2.099606 -1.067011 0
M  V30 50 H -6.216266 1.482577 -3.225014 0
M  V30 51 H -4.716830 0.520906 -3.474854 0
M  V30 52 H -4.856236 2.863828 -4.558400 0
M  V30 53 H -5.029036 3.532292 -2.938063 0
M  V30 54 H -2.484664 2.728055 -4.279456 0
M  V30 55 H -2.793573 3.759914 -2.827799 0
M  V30 56 H 2.698284 -3.739901 0.698403 0
M  V30 57 H 1.966708 -5.797394 1.778982 0
M  V30 END ATOM
M  V30 BEGIN BOND
M  V30 1 1 1 2
M  V30 2 1 2 3
M  V30 3 1 2 4
M  V30 4 2 4 5
M  V30 5 1 5 6
M  V30 6 2 6 7
M  V30 7 1 7 8
M  V30 8 2 8 9
M  V30 9 1 9 10
M  V30 10 1 10 11
M  V30 11 1 11 12
M  V30 12 1 12 13
M  V30 13 1 11 14
M  V30 14 1 14 15
M  V30 15 1 15 16
M  V30 16 2 16 17
M  V30 17 1 16 18
M  V30 18 1 18 19
M  V30 19 1 19 20
M  V30 20 1 20 21
M  V30 21 1 21 22
M  V30 22 1 22 23
M  V30 23 1 11 24
M  V30 24 1 24 25
M  V30 25 2 25 26
M  V30 26 1 7 27
M  V30 27 2 27 28
M  V30 28 1 28 4
M  V30 29 1 25 9
M  V30 30 1 23 18
M  V30 31 1 1 29
M  V30 32 1 1 30
M  V30 33 1 1 31
M  V30 34 1 3 32
M  V30 35 1 3 33
M  V30 36 1 3 34
M  V30 37 1 5 35
M  V30 38 1 6 36
M  V30 39 1 8 37
M  V30 40 1 10 38
M  V30 41 1 10 39
M  V30 42 1 12 40
M  V30 43 1 12 41
M  V30 44 1 13 42
M  V30 45 1 14 43
M  V30 46 1 14 44
M  V30 47 1 18 45
M  V30 48 1 19 46
M  V30 49 1 19 47
M  V30 50 1 20 48
M  V30 51 1 20 49
M  V30 52 1 21 50
M  V30 53 1 21 51
M  V30 54 1 22 52
M  V30 55 1 22 53
M  V30 56 1 23 54
M  V30 57 1 23 55
M  V30 58 1 27 56
M  V30 59 1 28 57
M  V30 END BOND
M  V30 END CTAB
M  END
>  <Dataset>  (604) 
ChEMBL_Kinases

>  <Ligand_Instance>  (604) 
nan

>  <PDB_ID>  (604) 
nan

>  <Standardized_SMILES>  (604) 
CN(C)c1ccc(/C=C2/CC(CO)(COC(=O)C3CCCCC3)OC2=O)cc1

>  <Name>  (604) 
nan

>  <Pocket>  (604) 
nan

>  <ATP_Site>  (604) 
nan

>  <Peripheral>  (604) 
nan

>  <Num_H_Atoms_ProtBoundConf>  (604) 
nan

>  <Num_Resolved_Atoms>  (604) 
nan

>  <Num_Not_Resolved_Atoms>  (604) 
nan

$$$$
CHEMBL4517983
     RDKit          3D

  0  0  0  0  0  0  0  0  0  0999 V3000
M  V30 BEGIN CTAB
M  V30 COUNTS 53 56 0 0 0
M  V30 BEGIN ATOM
M  V30 1 C -3.364260 0.441513 3.597022 0
M  V30 2 N -3.084179 -0.892737 3.102499 0
M  V30 3 C -2.906571 -1.283663 1.771930 0
M  V30 4 N -2.972534 -0.390543 0.767111 0
M  V30 5 C -2.795358 -0.730764 -0.522339 0
M  V30 6 N -2.856969 0.171100 -1.620437 0
M  V30 7 C -1.770825 0.932423 -2.133681 0
M  V30 8 C -1.921531 1.754955 -3.227240 0
M  V30 9 N -0.855195 2.468262 -3.681317 0
M  V30 10 C 0.349114 2.358099 -3.046223 0
M  V30 11 C 1.403520 3.167670 -3.627724 0
M  V30 12 N 2.250475 3.800720 -4.074195 0
M  V30 13 C 0.528599 1.533013 -1.937869 0
M  V30 14 O 1.817227 1.564448 -1.444648 0
M  V30 15 C 2.297893 0.843966 -0.338981 0 CFG=1
M  V30 16 C 3.493808 -0.016635 -0.646935 0
M  V30 17 C 4.694952 0.861091 -0.868516 0
M  V30 18 C 5.121190 1.388900 0.506133 0
M  V30 19 N 3.972825 1.483191 1.355502 0
M  V30 20 C 2.767981 1.878249 0.694192 0
M  V30 21 C -0.557734 0.813887 -1.484832 0
M  V30 22 N -2.543641 -2.026588 -0.782236 0
M  V30 23 C -2.462475 -2.978963 0.166724 0
M  V30 24 C -2.648739 -2.613622 1.507460 0
M  V30 25 C -2.563199 -3.685027 2.493833 0
M  V30 26 C -3.327335 -4.088165 3.556394 0
M  V30 27 N -2.704614 -5.159981 4.086292 0
M  V30 28 N -1.613402 -5.467979 3.449212 0
M  V30 29 C -0.670272 -6.556698 3.717910 0
M  V30 30 C -1.482759 -4.576895 2.448310 0
M  V30 31 H -3.733862 1.029057 2.705470 0
M  V30 32 H -2.438857 0.944500 3.947996 0
M  V30 33 H -4.175634 0.465967 4.331701 0
M  V30 34 H -3.030625 -1.526034 3.902241 0
M  V30 35 H -3.801173 0.221694 -2.024551 0
M  V30 36 H -2.871609 1.845272 -3.732659 0
M  V30 37 H 1.520112 0.182456 0.121010 0
M  V30 38 H 3.318385 -0.734161 -1.474728 0
M  V30 39 H 3.674979 -0.635823 0.270668 0
M  V30 40 H 4.465046 1.707639 -1.542245 0
M  V30 41 H 5.550511 0.282471 -1.312411 0
M  V30 42 H 5.598417 2.390389 0.400914 0
M  V30 43 H 5.834575 0.649952 0.941482 0
M  V30 44 H 3.872095 0.752227 2.070618 0
M  V30 45 H 1.984181 2.057650 1.444534 0
M  V30 46 H 2.969794 2.844815 0.185007 0
M  V30 47 H -0.362896 0.191350 -0.624152 0
M  V30 48 H -2.259279 -3.995227 -0.103806 0
M  V30 49 H -4.233743 -3.572237 3.821472 0
M  V30 50 H -1.160014 -7.388817 4.246291 0
M  V30 51 H 0.234811 -6.200563 4.254777 0
M  V30 52 H -0.323427 -6.925177 2.716539 0
M  V30 53 H -0.641714 -4.594611 1.738086 0
M  V30 END ATOM
M  V30 BEGIN BOND
M  V30 1 1 1 2
M  V30 2 1 2 3
M  V30 3 2 3 4
M  V30 4 1 4 5
M  V30 5 1 5 6
M  V30 6 1 6 7
M  V30 7 2 7 8
M  V30 8 1 8 9
M  V30 9 2 9 10
M  V30 10 1 10 11
M  V30 11 3 11 12
M  V30 12 1 10 13
M  V30 13 1 13 14
M  V30 14 1 14 15
M  V30 15 1 15 16
M  V30 16 1 16 17
M  V30 17 1 17 18
M  V30 18 1 18 19
M  V30 19 1 19 20
M  V30 20 2 13 21
M  V30 21 2 5 22
M  V30 22 1 22 23
M  V30 23 2 23 24
M  V30 24 1 24 25
M  V30 25 1 25 26
M  V30 26 2 26 27
M  V30 27 1 27 28
M  V30 28 1 28 29
M  V30 29 1 28 30
M  V30 30 1 24 3
M  V30 31 2 30 25
M  V30 32 1 21 7
M  V30 33 1 20 15
M  V30 34 1 1 31
M  V30 35 1 1 32
M  V30 36 1 1 33
M  V30 37 1 2 34
M  V30 38 1 6 35
M  V30 39 1 8 36
M  V30 40 1 15 37 CFG=1
M  V30 41 1 16 38
M  V30 42 1 16 39
M  V30 43 1 17 40
M  V30 44 1 17 41
M  V30 45 1 18 42
M  V30 46 1 18 43
M  V30 47 1 19 44
M  V30 48 1 20 45
M  V30 49 1 20 46
M  V30 50 1 21 47
M  V30 51 1 23 48
M  V30 52 1 26 49
M  V30 53 1 29 50
M  V30 54 1 29 51
M  V30 55 1 29 52
M  V30 56 1 30 53
M  V30 END BOND
M  V30 END CTAB
M  END
>  <Dataset>  (605) 
ChEMBL_Kinases

>  <Ligand_Instance>  (605) 
nan

>  <PDB_ID>  (605) 
nan

>  <Standardized_SMILES>  (605) 
CNc1nc(Nc2cnc(C#N)c(O[C@H]3CCCNC3)c2)ncc1-c1cnn(C)c1

>  <Name>  (605) 
nan

>  <Pocket>  (605) 
nan

>  <ATP_Site>  (605) 
nan

>  <Peripheral>  (605) 
nan

>  <Num_H_Atoms_ProtBoundConf>  (605) 
nan

>  <Num_Resolved_Atoms>  (605) 
nan

>  <Num_Not_Resolved_Atoms>  (605) 
nan

$$$$
CHEMBL4647507
     RDKit          3D

  0  0  0  0  0  0  0  0  0  0999 V3000
M  V30 BEGIN CTAB
M  V30 COUNTS 49 53 0 0 0
M  V30 BEGIN ATOM
M  V30 1 N -4.341237 -3.175658 0.337548 0
M  V30 2 C -3.094150 -2.453239 0.642301 0
M  V30 3 C -1.970458 -3.230931 0.065553 0
M  V30 4 C -0.855298 -2.365113 -0.382554 0
M  V30 5 N -0.894265 -0.991102 0.080352 0
M  V30 6 C 0.288552 -0.238668 0.284114 0
M  V30 7 N 0.412870 0.695445 -0.663791 0
M  V30 8 C 1.420953 1.554831 -0.807135 0
M  V30 9 C 1.565781 2.574256 -1.833994 0
M  V30 10 C 0.564247 2.667368 -2.755093 0
M  V30 11 C 0.663291 3.627012 -3.752160 0
M  V30 12 N 1.736980 4.455895 -3.807765 0
M  V30 13 C 2.729196 4.356149 -2.886807 0
M  V30 14 C 2.655264 3.409169 -1.883491 0
M  V30 15 N 2.385126 1.430304 0.118799 0
M  V30 16 C 2.340315 0.525486 1.099823 0
M  V30 17 S 3.441600 0.123071 2.449005 0
M  V30 18 C 2.372207 -1.254193 3.129098 0
M  V30 19 C 1.275366 -1.272808 2.258530 0
M  V30 20 C 1.261087 -0.376261 1.234338 0
M  V30 21 C 0.347702 -2.321308 2.744444 0
M  V30 22 C 0.234072 -2.268329 4.257302 0
M  V30 23 C 1.510871 -2.653740 4.966557 0
M  V30 24 C 2.717221 -2.035260 4.277582 0
M  V30 25 C -2.064596 -0.194718 0.389359 0
M  V30 26 C -3.279726 -1.067398 0.116927 0
M  V30 27 H -4.403660 -3.376486 -0.682383 0
M  V30 28 H -4.416617 -4.067894 0.836518 0
M  V30 29 H -2.987468 -2.450683 1.760973 0
M  V30 30 H -1.530935 -3.935482 0.837256 0
M  V30 31 H -2.350082 -3.830126 -0.797582 0
M  V30 32 H -0.898422 -2.278642 -1.509955 0
M  V30 33 H 0.149576 -2.817589 -0.198572 0
M  V30 34 H -0.302661 2.021389 -2.736321 0
M  V30 35 H -0.138422 3.688525 -4.474859 0
M  V30 36 H 3.569092 5.031609 -2.960696 0
M  V30 37 H 3.451199 3.321991 -1.136667 0
M  V30 38 H -0.710106 -2.093045 2.406166 0
M  V30 39 H 0.585211 -3.316475 2.367542 0
M  V30 40 H -0.108685 -1.262003 4.539601 0
M  V30 41 H -0.532255 -3.024891 4.518251 0
M  V30 42 H 1.608809 -3.756766 5.041731 0
M  V30 43 H 1.425394 -2.276646 6.007278 0
M  V30 44 H 3.401266 -2.860145 3.991383 0
M  V30 45 H 3.260441 -1.418620 5.020806 0
M  V30 46 H -2.158067 0.678724 -0.294333 0
M  V30 47 H -2.060675 0.197010 1.411223 0
M  V30 48 H -3.480999 -1.134562 -0.968989 0
M  V30 49 H -4.202005 -0.666901 0.588384 0
M  V30 END ATOM
M  V30 BEGIN BOND
M  V30 1 1 1 2
M  V30 2 1 2 3
M  V30 3 1 3 4
M  V30 4 1 4 5
M  V30 5 1 5 6
M  V30 6 2 6 7
M  V30 7 1 7 8
M  V30 8 1 8 9
M  V30 9 2 9 10
M  V30 10 1 10 11
M  V30 11 2 11 12
M  V30 12 1 12 13
M  V30 13 2 13 14
M  V30 14 2 8 15
M  V30 15 1 15 16
M  V30 16 1 16 17
M  V30 17 1 17 18
M  V30 18 2 18 19
M  V30 19 1 19 20
M  V30 20 1 19 21
M  V30 21 1 21 22
M  V30 22 1 22 23
M  V30 23 1 23 24
M  V30 24 1 5 25
M  V30 25 1 25 26
M  V30 26 1 26 2
M  V30 27 1 20 6
M  V30 28 1 14 9
M  V30 29 2 20 16
M  V30 30 1 24 18
M  V30 31 1 1 27
M  V30 32 1 1 28
M  V30 33 1 2 29
M  V30 34 1 3 30
M  V30 35 1 3 31
M  V30 36 1 4 32
M  V30 37 1 4 33
M  V30 38 1 10 34
M  V30 39 1 11 35
M  V30 40 1 13 36
M  V30 41 1 14 37
M  V30 42 1 21 38
M  V30 43 1 21 39
M  V30 44 1 22 40
M  V30 45 1 22 41
M  V30 46 1 23 42
M  V30 47 1 23 43
M  V30 48 1 24 44
M  V30 49 1 24 45
M  V30 50 1 25 46
M  V30 51 1 25 47
M  V30 52 1 26 48
M  V30 53 1 26 49
M  V30 END BOND
M  V30 END CTAB
M  END
>  <Dataset>  (606) 
ChEMBL_Kinases

>  <Ligand_Instance>  (606) 
nan

>  <PDB_ID>  (606) 
nan

>  <Standardized_SMILES>  (606) 
NC1CCN(c2nc(-c3ccncc3)nc3sc4c(c23)CCCC4)CC1

>  <Name>  (606) 
nan

>  <Pocket>  (606) 
nan

>  <ATP_Site>  (606) 
nan

>  <Peripheral>  (606) 
nan

>  <Num_H_Atoms_ProtBoundConf>  (606) 
nan

>  <Num_Resolved_Atoms>  (606) 
nan

>  <Num_Not_Resolved_Atoms>  (606) 
nan

$$$$
CHEMBL4517950
     RDKit          3D

  0  0  0  0  0  0  0  0  0  0999 V3000
M  V30 BEGIN CTAB
M  V30 COUNTS 55 58 0 0 0
M  V30 BEGIN ATOM
M  V30 1 C 6.999094 -1.028391 -2.207963 0
M  V30 2 N 6.460550 -1.490925 -0.954049 0
M  V30 3 N 7.175303 -2.248368 -0.099135 0
M  V30 4 C 6.392936 -2.504381 0.961374 0
M  V30 5 C 5.188532 -1.865292 0.693105 0
M  V30 6 Cl 4.082868 -2.138221 2.028248 0
M  V30 7 C 5.234707 -1.223177 -0.523109 0
M  V30 8 C 4.081020 -0.514238 -0.957001 0
M  V30 9 C 2.896697 -0.405720 -0.260399 0
M  V30 10 C 1.945598 0.341972 -0.921612 0
M  V30 11 C 0.583681 0.705284 -0.561248 0
M  V30 12 O -0.123361 1.403655 -1.315771 0
M  V30 13 N 0.039615 0.261187 0.671189 0
M  V30 14 C -1.261894 0.486391 1.241192 0 CFG=2
M  V30 15 C -1.180887 1.224317 2.567566 0
M  V30 16 N -2.468435 1.154302 3.232792 0
M  V30 17 C -3.550996 0.952419 2.288178 0 CFG=2
M  V30 18 C -4.832725 1.037794 3.089829 0
M  V30 19 C -6.070910 0.845640 2.237510 0
M  V30 20 O -6.072578 -0.397786 1.612856 0
M  V30 21 C -3.459767 -0.430142 1.706840 0
M  V30 22 C -2.003236 -0.799455 1.517399 0 CFG=1
M  V30 23 C -1.831043 -1.810827 0.442700 0
M  V30 24 C -2.275504 -1.387438 -0.802119 0
M  V30 25 C -2.195543 -2.196108 -1.923770 0
M  V30 26 C -1.648372 -3.470606 -1.775032 0
M  V30 27 Cl -1.528345 -4.527276 -3.169940 0
M  V30 28 C -1.211143 -3.876896 -0.531748 0
M  V30 29 Cl -0.516232 -5.477487 -0.309885 0
M  V30 30 C -1.286955 -3.078188 0.590476 0
M  V30 31 O 2.539520 0.710603 -2.052783 0
M  V30 32 C 3.755906 0.217985 -2.063945 0
M  V30 33 Cl 4.684099 0.597443 -3.468792 0
M  V30 34 H 6.544266 -1.481363 -3.083328 0
M  V30 35 H 7.144390 0.066543 -2.203129 0
M  V30 36 H 8.078903 -1.410657 -2.254855 0
M  V30 37 H 6.900033 -3.110595 1.694533 0
M  V30 38 H 2.549375 -0.780905 0.696116 0
M  V30 39 H 0.577619 -0.320281 1.337629 0
M  V30 40 H -1.913399 1.105690 0.590689 0
M  V30 41 H -0.852910 2.275604 2.410553 0
M  V30 42 H -0.437382 0.751425 3.235037 0
M  V30 43 H -2.618070 1.968140 3.838144 0
M  V30 44 H -3.618683 1.738269 1.514993 0
M  V30 45 H -4.874396 1.970988 3.648366 0
M  V30 46 H -4.799969 0.179547 3.805144 0
M  V30 47 H -6.923999 0.846236 2.950466 0
M  V30 48 H -6.193743 1.645093 1.492575 0
M  V30 49 H -6.393954 -1.064662 2.265872 0
M  V30 50 H -3.989145 -1.187224 2.318229 0
M  V30 51 H -3.916495 -0.413096 0.692176 0
M  V30 52 H -1.643790 -1.155780 2.502088 0
M  V30 53 H -2.713531 -0.411941 -1.003485 0
M  V30 54 H -2.536215 -1.886110 -2.904626 0
M  V30 55 H -0.966024 -3.333930 1.581107 0
M  V30 END ATOM
M  V30 BEGIN BOND
M  V30 1 1 1 2
M  V30 2 1 2 3
M  V30 3 2 3 4
M  V30 4 1 4 5
M  V30 5 1 5 6
M  V30 6 2 5 7
M  V30 7 1 7 8
M  V30 8 1 8 9
M  V30 9 2 9 10
M  V30 10 1 10 11
M  V30 11 2 11 12
M  V30 12 1 11 13
M  V30 13 1 13 14
M  V30 14 1 14 15
M  V30 15 1 15 16
M  V30 16 1 16 17
M  V30 17 1 17 18
M  V30 18 1 18 19
M  V30 19 1 19 20
M  V30 20 1 17 21
M  V30 21 1 21 22
M  V30 22 1 22 23
M  V30 23 2 23 24
M  V30 24 1 24 25
M  V30 25 2 25 26
M  V30 26 1 26 27
M  V30 27 1 26 28
M  V30 28 1 28 29
M  V30 29 2 28 30
M  V30 30 1 10 31
M  V30 31 1 31 32
M  V30 32 1 32 33
M  V30 33 1 7 2
M  V30 34 2 32 8
M  V30 35 1 22 14
M  V30 36 1 30 23
M  V30 37 1 1 34
M  V30 38 1 1 35
M  V30 39 1 1 36
M  V30 40 1 4 37
M  V30 41 1 9 38
M  V30 42 1 13 39
M  V30 43 1 14 40 CFG=3
M  V30 44 1 15 41
M  V30 45 1 15 42
M  V30 46 1 16 43
M  V30 47 1 17 44 CFG=3
M  V30 48 1 18 45
M  V30 49 1 18 46
M  V30 50 1 19 47
M  V30 51 1 19 48
M  V30 52 1 20 49
M  V30 53 1 21 50
M  V30 54 1 21 51
M  V30 55 1 22 52 CFG=1
M  V30 56 1 24 53
M  V30 57 1 25 54
M  V30 58 1 30 55
M  V30 END BOND
M  V30 END CTAB
M  END
>  <Dataset>  (607) 
ChEMBL_Kinases

>  <Ligand_Instance>  (607) 
nan

>  <PDB_ID>  (607) 
nan

>  <Standardized_SMILES>  (607) 
Cn1ncc(Cl)c1-c1cc(C(=O)N[C@@H]2CN[C@H](CCO)C[C@H]2c2ccc(Cl)c(Cl)c2)oc1Cl

>  <Name>  (607) 
nan

>  <Pocket>  (607) 
nan

>  <ATP_Site>  (607) 
nan

>  <Peripheral>  (607) 
nan

>  <Num_H_Atoms_ProtBoundConf>  (607) 
nan

>  <Num_Resolved_Atoms>  (607) 
nan

>  <Num_Not_Resolved_Atoms>  (607) 
nan

$$$$
CHEMBL4647548
     RDKit          3D

  0  0  0  0  0  0  0  0  0  0999 V3000
M  V30 BEGIN CTAB
M  V30 COUNTS 67 72 0 0 0
M  V30 BEGIN ATOM
M  V30 1 C 1.376677 -3.748877 2.380093 0
M  V30 2 C 1.739218 -2.393700 2.533076 0
M  V30 3 C 1.929900 -1.510252 1.455546 0
M  V30 4 O 2.262357 -0.332684 1.983189 0
M  V30 5 C 2.558043 0.916884 1.638545 0
M  V30 6 C 3.869334 1.224269 2.048491 0
M  V30 7 N 4.162659 2.511917 1.693268 0
M  V30 8 C 5.307487 3.391277 1.829619 0
M  V30 9 C 6.093712 3.751545 0.644363 0
M  V30 10 C 6.674970 2.689265 1.534065 0
M  V30 11 N 3.089407 3.003843 1.084291 0
M  V30 12 C 2.122284 2.071033 1.041269 0
M  V30 13 C 0.775668 2.130959 0.486179 0
M  V30 14 C -0.326171 2.271306 1.514973 0
M  V30 15 C -1.607900 2.461342 0.734575 0
M  V30 16 O -1.369792 2.723219 -0.619065 0
M  V30 17 C -0.796165 1.641155 -1.282776 0
M  V30 18 C 0.394171 1.073776 -0.492438 0
M  V30 19 C 1.739564 -2.048736 0.210577 0
M  V30 20 C 1.392060 -3.346974 0.058753 0
M  V30 21 N 1.157133 -3.966536 -1.189493 0
M  V30 22 C -0.218579 -4.272567 -1.502223 0
M  V30 23 C -0.532797 -5.042264 -2.608402 0
M  V30 24 C -1.869113 -5.318651 -2.835115 0
M  V30 25 N -2.857417 -4.877390 -2.038985 0
M  V30 26 C -2.602002 -4.112991 -0.933686 0
M  V30 27 N -3.635720 -3.663206 -0.066944 0
M  V30 28 C -3.492694 -2.810582 1.078253 0
M  V30 29 C -4.814718 -2.713521 1.826422 0
M  V30 30 C -5.753320 -1.941748 0.944956 0
M  V30 31 O -5.288464 -1.804433 -0.369558 0
M  V30 32 C -4.196250 -0.938379 -0.404315 0
M  V30 33 C -3.194096 -1.363592 0.648501 0
M  V30 34 C -1.266583 -3.828203 -0.694665 0
M  V30 35 N 1.222073 -4.151713 1.118442 0
M  V30 36 H 1.219884 -4.455251 3.183285 0
M  V30 37 H 1.834324 -2.198685 3.622075 0
M  V30 38 H 4.720052 0.774182 2.551569 0
M  V30 39 H 5.346247 4.017408 2.764550 0
M  V30 40 H 6.670502 4.720384 0.631068 0
M  V30 41 H 5.740255 3.381964 -0.339439 0
M  V30 42 H 6.595763 1.606809 1.226755 0
M  V30 43 H 7.509652 2.902374 2.203355 0
M  V30 44 H 0.708968 3.112238 -0.099499 0
M  V30 45 H -0.167646 3.142507 2.170318 0
M  V30 46 H -0.438178 1.351493 2.121764 0
M  V30 47 H -2.187617 3.319228 1.135022 0
M  V30 48 H -2.238118 1.524101 0.743012 0
M  V30 49 H -1.562756 0.866693 -1.473549 0
M  V30 50 H -0.355354 2.036891 -2.221434 0
M  V30 51 H -0.020168 0.210402 0.053299 0
M  V30 52 H 1.228262 0.835361 -1.173047 0
M  V30 53 H 1.897787 -1.367972 -0.577769 0
M  V30 54 H 1.874001 -4.219581 -1.902524 0
M  V30 55 H 0.276536 -5.398222 -3.251830 0
M  V30 56 H -2.129579 -5.934884 -3.715684 0
M  V30 57 H -4.603324 -4.014732 -0.314110 0
M  V30 58 H -2.693376 -3.105984 1.764047 0
M  V30 59 H -5.171148 -3.742656 2.062135 0
M  V30 60 H -4.704004 -2.204100 2.787581 0
M  V30 61 H -5.866895 -0.891026 1.341442 0
M  V30 62 H -6.775157 -2.349985 0.942619 0
M  V30 63 H -3.726481 -0.996269 -1.398358 0
M  V30 64 H -4.510218 0.104366 -0.245822 0
M  V30 65 H -2.158487 -1.214697 0.355031 0
M  V30 66 H -3.386175 -0.748453 1.563451 0
M  V30 67 H -0.961731 -3.238911 0.145678 0
M  V30 END ATOM
M  V30 BEGIN BOND
M  V30 1 2 1 2
M  V30 2 1 2 3
M  V30 3 1 3 4
M  V30 4 1 4 5
M  V30 5 2 5 6
M  V30 6 1 6 7
M  V30 7 1 7 8
M  V30 8 1 8 9
M  V30 9 1 9 10
M  V30 10 1 7 11
M  V30 11 2 11 12
M  V30 12 1 12 13
M  V30 13 1 13 14
M  V30 14 1 14 15
M  V30 15 1 15 16
M  V30 16 1 16 17
M  V30 17 1 17 18
M  V30 18 2 3 19
M  V30 19 1 19 20
M  V30 20 1 20 21
M  V30 21 1 21 22
M  V30 22 2 22 23
M  V30 23 1 23 24
M  V30 24 2 24 25
M  V30 25 1 25 26
M  V30 26 1 26 27
M  V30 27 1 27 28
M  V30 28 1 28 29
M  V30 29 1 29 30
M  V30 30 1 30 31
M  V30 31 1 31 32
M  V30 32 1 32 33
M  V30 33 2 26 34
M  V30 34 2 20 35
M  V30 35 1 35 1
M  V30 36 1 12 5
M  V30 37 1 18 13
M  V30 38 1 34 22
M  V30 39 1 10 8
M  V30 40 1 33 28
M  V30 41 1 1 36
M  V30 42 1 2 37
M  V30 43 1 6 38
M  V30 44 1 8 39
M  V30 45 1 9 40
M  V30 46 1 9 41
M  V30 47 1 10 42
M  V30 48 1 10 43
M  V30 49 1 13 44
M  V30 50 1 14 45
M  V30 51 1 14 46
M  V30 52 1 15 47
M  V30 53 1 15 48
M  V30 54 1 17 49
M  V30 55 1 17 50
M  V30 56 1 18 51
M  V30 57 1 18 52
M  V30 58 1 19 53
M  V30 59 1 21 54
M  V30 60 1 23 55
M  V30 61 1 24 56
M  V30 62 1 27 57
M  V30 63 1 28 58
M  V30 64 1 29 59
M  V30 65 1 29 60
M  V30 66 1 30 61
M  V30 67 1 30 62
M  V30 68 1 32 63
M  V30 69 1 32 64
M  V30 70 1 33 65
M  V30 71 1 33 66
M  V30 72 1 34 67
M  V30 END BOND
M  V30 END CTAB
M  END
>  <Dataset>  (608) 
ChEMBL_Kinases

>  <Ligand_Instance>  (608) 
nan

>  <PDB_ID>  (608) 
nan

>  <Standardized_SMILES>  (608) 
c1cc(Oc2cn(C3CC3)nc2C2CCOCC2)cc(Nc2ccnc(NC3CCOCC3)c2)n1

>  <Name>  (608) 
nan

>  <Pocket>  (608) 
nan

>  <ATP_Site>  (608) 
nan

>  <Peripheral>  (608) 
nan

>  <Num_H_Atoms_ProtBoundConf>  (608) 
nan

>  <Num_Resolved_Atoms>  (608) 
nan

>  <Num_Not_Resolved_Atoms>  (608) 
nan

$$$$
CHEMBL4647588
     RDKit          3D

  0  0  0  0  0  0  0  0  0  0999 V3000
M  V30 BEGIN CTAB
M  V30 COUNTS 46 49 0 0 0
M  V30 BEGIN ATOM
M  V30 1 C 0.293766 1.508440 5.129250 0
M  V30 2 N 0.980921 1.703615 3.864909 0
M  V30 3 C 1.313140 3.025732 3.391842 0
M  V30 4 O 1.427444 3.926907 4.255899 0
M  V30 5 C 1.465705 3.084887 1.909624 0
M  V30 6 C 2.324258 1.974534 1.386622 0
M  V30 7 C 2.361529 1.875723 -0.071759 0
M  V30 8 C 3.426588 2.428821 -0.793077 0
M  V30 9 C 3.593288 2.413294 -2.155564 0
M  V30 10 C 2.605867 1.785947 -2.890057 0
M  V30 11 C 1.523920 1.216312 -2.253499 0
M  V30 12 C 1.410138 1.263930 -0.869658 0
M  V30 13 N 1.961770 0.676942 1.917490 0
M  V30 14 C 1.342982 0.561925 3.060709 0
M  V30 15 S 0.918593 -1.032376 3.683615 0
M  V30 16 C 1.394027 -2.384427 2.610879 0
M  V30 17 C 0.666986 -2.429751 1.323009 0
M  V30 18 C -0.526157 -3.160873 1.265165 0
M  V30 19 N -1.049808 -3.094044 0.020379 0
M  V30 20 C -2.269122 -3.722456 -0.412528 0
M  V30 21 C -3.430855 -3.018721 -0.110397 0
M  V30 22 C -4.650147 -3.539161 -0.481140 0
M  V30 23 C -4.741559 -4.743721 -1.145881 0
M  V30 24 C -3.584236 -5.434068 -1.441121 0
M  V30 25 C -2.343319 -4.944294 -1.085499 0
M  V30 26 N -0.198196 -2.339563 -0.669804 0
M  V30 27 N 0.804148 -1.947320 0.076845 0
M  V30 28 H 1.050496 1.352105 5.924266 0
M  V30 29 H -0.367127 2.353763 5.385860 0
M  V30 30 H -0.343687 0.598168 5.113946 0
M  V30 31 H 0.456792 3.109857 1.471305 0
M  V30 32 H 1.947208 4.057127 1.679740 0
M  V30 33 H 3.371133 2.172528 1.743847 0
M  V30 34 H 4.194702 2.918934 -0.195811 0
M  V30 35 H 4.478819 2.887876 -2.578284 0
M  V30 36 H 2.728790 1.768459 -3.966134 0
M  V30 37 H 0.742168 0.721535 -2.813203 0
M  V30 38 H 0.568257 0.821933 -0.355923 0
M  V30 39 H 1.366612 -3.336525 3.154184 0
M  V30 40 H 2.483484 -2.222028 2.360413 0
M  V30 41 H -1.036611 -3.732076 2.053921 0
M  V30 42 H -3.463307 -2.084937 0.397595 0
M  V30 43 H -5.605700 -3.060149 -0.287171 0
M  V30 44 H -5.683452 -5.194028 -1.458444 0
M  V30 45 H -3.624119 -6.399887 -1.971403 0
M  V30 46 H -1.397833 -5.435359 -1.287057 0
M  V30 END ATOM
M  V30 BEGIN BOND
M  V30 1 1 1 2
M  V30 2 1 2 3
M  V30 3 2 3 4
M  V30 4 1 3 5
M  V30 5 1 5 6
M  V30 6 1 6 7
M  V30 7 2 7 8
M  V30 8 1 8 9
M  V30 9 2 9 10
M  V30 10 1 10 11
M  V30 11 2 11 12
M  V30 12 1 6 13
M  V30 13 2 13 14
M  V30 14 1 14 15
M  V30 15 1 15 16
M  V30 16 1 16 17
M  V30 17 2 17 18
M  V30 18 1 18 19
M  V30 19 1 19 20
M  V30 20 2 20 21
M  V30 21 1 21 22
M  V30 22 2 22 23
M  V30 23 1 23 24
M  V30 24 2 24 25
M  V30 25 1 19 26
M  V30 26 2 26 27
M  V30 27 1 14 2
M  V30 28 1 27 17
M  V30 29 1 12 7
M  V30 30 1 25 20
M  V30 31 1 1 28
M  V30 32 1 1 29
M  V30 33 1 1 30
M  V30 34 1 5 31
M  V30 35 1 5 32
M  V30 36 1 6 33
M  V30 37 1 8 34
M  V30 38 1 9 35
M  V30 39 1 10 36
M  V30 40 1 11 37
M  V30 41 1 12 38
M  V30 42 1 16 39
M  V30 43 1 16 40
M  V30 44 1 18 41
M  V30 45 1 21 42
M  V30 46 1 22 43
M  V30 47 1 23 44
M  V30 48 1 24 45
M  V30 49 1 25 46
M  V30 END BOND
M  V30 END CTAB
M  END
>  <Dataset>  (609) 
ChEMBL_Kinases

>  <Ligand_Instance>  (609) 
nan

>  <PDB_ID>  (609) 
nan

>  <Standardized_SMILES>  (609) 
CN1C(=O)CC(c2ccccc2)N=C1SCc1cn(-c2ccccc2)nn1

>  <Name>  (609) 
nan

>  <Pocket>  (609) 
nan

>  <ATP_Site>  (609) 
nan

>  <Peripheral>  (609) 
nan

>  <Num_H_Atoms_ProtBoundConf>  (609) 
nan

>  <Num_Resolved_Atoms>  (609) 
nan

>  <Num_Not_Resolved_Atoms>  (609) 
nan

$$$$
CHEMBL4520187
     RDKit          3D

  0  0  0  0  0  0  0  0  0  0999 V3000
M  V30 BEGIN CTAB
M  V30 COUNTS 50 54 0 0 0
M  V30 BEGIN ATOM
M  V30 1 C 3.140755 -3.696669 1.037403 0
M  V30 2 C 2.494686 -2.945651 2.161735 0
M  V30 3 C 2.782723 -3.291164 3.474758 0
M  V30 4 C 2.186460 -2.596797 4.504009 0
M  V30 5 C 1.304383 -1.559992 4.270798 0
M  V30 6 C 1.038433 -1.240831 2.951634 0
M  V30 7 C 0.158581 -0.199027 2.407728 0
M  V30 8 N 0.181937 1.140852 2.468532 0
M  V30 9 N -0.840100 1.657442 1.808228 0
M  V30 10 C -1.106328 3.084872 1.677465 0
M  V30 11 C -0.422883 3.633229 0.450548 0
M  V30 12 O -0.545137 4.841581 0.178747 0
M  V30 13 N 0.343410 2.711926 -0.347613 0
M  V30 14 C 1.032918 3.098611 -1.523034 0
M  V30 15 C 2.334889 3.567267 -1.633749 0
M  V30 16 C 2.840377 3.893943 -2.874025 0
M  V30 17 C 2.040280 3.749573 -3.994568 0
M  V30 18 C 0.755287 3.289389 -3.906155 0
M  V30 19 F -0.004855 3.159372 -5.034759 0
M  V30 20 C 0.244955 2.961062 -2.664912 0
M  V30 21 C -1.596628 0.672166 1.273582 0
M  V30 22 C -0.963780 -0.497808 1.653852 0
M  V30 23 C -1.509600 -1.782852 1.253417 0
M  V30 24 C -2.001157 -2.789865 1.956509 0
M  V30 25 C -2.462561 -3.916111 1.324006 0
M  V30 26 C -3.009557 -5.073479 1.835364 0
M  V30 27 N -3.406324 -6.073554 1.059992 0
M  V30 28 C -3.334070 -6.098456 -0.276161 0
M  V30 29 C -2.797704 -4.976151 -0.865374 0
M  V30 30 C -2.374558 -3.913072 -0.067785 0
M  V30 31 S -1.645040 -2.329156 -0.469009 0
M  V30 32 N 1.640166 -1.941961 1.952927 0
M  V30 33 H 2.307746 -4.166533 0.458862 0
M  V30 34 H 3.848386 -4.422841 1.462920 0
M  V30 35 H 3.645187 -2.981942 0.322070 0
M  V30 36 H 3.470983 -4.100258 3.734029 0
M  V30 37 H 2.355780 -2.801003 5.569851 0
M  V30 38 H 0.770402 -0.938671 4.958078 0
M  V30 39 H -2.203591 3.219121 1.538884 0
M  V30 40 H -0.719720 3.611367 2.563385 0
M  V30 41 H 0.436944 1.711501 -0.110015 0
M  V30 42 H 2.866237 3.638665 -0.686936 0
M  V30 43 H 3.875138 4.256629 -2.882629 0
M  V30 44 H 2.512694 4.027802 -4.928300 0
M  V30 45 H -0.791038 2.597967 -2.662114 0
M  V30 46 H -2.483927 0.824077 0.690674 0
M  V30 47 H -2.023405 -2.686694 3.051037 0
M  V30 48 H -3.150654 -5.240726 2.905721 0
M  V30 49 H -3.653567 -6.905467 -0.920011 0
M  V30 50 H -2.662032 -4.823116 -1.940334 0
M  V30 END ATOM
M  V30 BEGIN BOND
M  V30 1 1 1 2
M  V30 2 2 2 3
M  V30 3 1 3 4
M  V30 4 2 4 5
M  V30 5 1 5 6
M  V30 6 1 6 7
M  V30 7 2 7 8
M  V30 8 1 8 9
M  V30 9 1 9 10
M  V30 10 1 10 11
M  V30 11 2 11 12
M  V30 12 1 11 13
M  V30 13 1 13 14
M  V30 14 2 14 15
M  V30 15 1 15 16
M  V30 16 2 16 17
M  V30 17 1 17 18
M  V30 18 1 18 19
M  V30 19 2 18 20
M  V30 20 1 9 21
M  V30 21 2 21 22
M  V30 22 1 22 23
M  V30 23 2 23 24
M  V30 24 1 24 25
M  V30 25 2 25 26
M  V30 26 1 26 27
M  V30 27 2 27 28
M  V30 28 1 28 29
M  V30 29 2 29 30
M  V30 30 1 30 31
M  V30 31 2 6 32
M  V30 32 1 32 2
M  V30 33 1 22 7
M  V30 34 1 31 23
M  V30 35 1 20 14
M  V30 36 1 30 25
M  V30 37 1 1 33
M  V30 38 1 1 34
M  V30 39 1 1 35
M  V30 40 1 3 36
M  V30 41 1 4 37
M  V30 42 1 5 38
M  V30 43 1 10 39
M  V30 44 1 10 40
M  V30 45 1 13 41
M  V30 46 1 15 42
M  V30 47 1 16 43
M  V30 48 1 17 44
M  V30 49 1 20 45
M  V30 50 1 21 46
M  V30 51 1 24 47
M  V30 52 1 26 48
M  V30 53 1 28 49
M  V30 54 1 29 50
M  V30 END BOND
M  V30 END CTAB
M  END
>  <Dataset>  (610) 
ChEMBL_Kinases

>  <Ligand_Instance>  (610) 
nan

>  <PDB_ID>  (610) 
nan

>  <Standardized_SMILES>  (610) 
Cc1cccc(-c2nn(CC(=O)Nc3cccc(F)c3)cc2-c2cc3cnccc3s2)n1

>  <Name>  (610) 
nan

>  <Pocket>  (610) 
nan

>  <ATP_Site>  (610) 
nan

>  <Peripheral>  (610) 
nan

>  <Num_H_Atoms_ProtBoundConf>  (610) 
nan

>  <Num_Resolved_Atoms>  (610) 
nan

>  <Num_Not_Resolved_Atoms>  (610) 
nan

$$$$
CHEMBL4647665
     RDKit          3D

  0  0  0  0  0  0  0  0  0  0999 V3000
M  V30 BEGIN CTAB
M  V30 COUNTS 49 52 0 0 0
M  V30 BEGIN ATOM
M  V30 1 C -1.083307 -5.016318 2.915747 0
M  V30 2 C -1.789006 -4.321554 1.816859 0
M  V30 3 C -1.274216 -3.119941 1.356187 0
M  V30 4 C -1.947540 -2.468780 0.316192 0
M  V30 5 C -1.469487 -1.200559 -0.223938 0
M  V30 6 C -1.614974 -0.765932 -1.533062 0
M  V30 7 C -1.113198 0.461460 -1.913409 0
M  V30 8 C -0.467586 1.249865 -0.982783 0
M  V30 9 N 0.114093 2.470647 -1.061227 0
M  V30 10 C 0.610630 2.789601 0.170509 0
M  V30 11 N 1.311672 3.987082 0.566672 0
M  V30 12 C 2.718627 3.647477 0.321545 0
M  V30 13 C 2.943707 3.314671 -1.139951 0
M  V30 14 C 3.109657 2.463392 1.149879 0
M  V30 15 C 2.674481 2.533553 2.460599 0
M  V30 16 C 2.946897 1.530272 3.356654 0
M  V30 17 C 3.671538 0.451457 2.895361 0
M  V30 18 C 4.121828 0.352872 1.585593 0
M  V30 19 C 3.838889 1.369381 0.700602 0
M  V30 20 N 0.326774 1.751165 1.003811 0
M  V30 21 N -0.328372 0.824925 0.286256 0
M  V30 22 C -0.809889 -0.368461 0.679149 0
M  V30 23 C -3.077737 -2.996044 -0.232237 0
M  V30 24 C -3.571516 -4.192787 0.242271 0
M  V30 25 C -4.817510 -4.793680 -0.347836 0
M  V30 26 C -2.946168 -4.893120 1.278795 0
M  V30 27 O -3.467310 -6.096654 1.735585 0
M  V30 28 H -1.619474 -5.941161 3.187657 0
M  V30 29 H -1.065021 -4.403650 3.849632 0
M  V30 30 H -0.060347 -5.337748 2.621974 0
M  V30 31 H -0.387094 -2.700022 1.782076 0
M  V30 32 H -2.133196 -1.443714 -2.199508 0
M  V30 33 H -1.234560 0.784075 -2.933461 0
M  V30 34 H 0.987180 4.917364 0.946357 0
M  V30 35 H 3.333446 4.536685 0.551379 0
M  V30 36 H 2.471215 2.374008 -1.450628 0
M  V30 37 H 2.631097 4.196761 -1.751924 0
M  V30 38 H 4.062407 3.276274 -1.253633 0
M  V30 39 H 2.097422 3.372575 2.864009 0
M  V30 40 H 2.617961 1.550416 4.406232 0
M  V30 41 H 3.893560 -0.354291 3.604271 0
M  V30 42 H 4.694625 -0.500371 1.221782 0
M  V30 43 H 4.140086 1.395041 -0.339794 0
M  V30 44 H -0.674210 -0.667283 1.708900 0
M  V30 45 H -3.589977 -2.499621 -1.024199 0
M  V30 46 H -4.925068 -5.836475 -0.047560 0
M  V30 47 H -5.644632 -4.141123 -0.053417 0
M  V30 48 H -4.731779 -4.732239 -1.464078 0
M  V30 49 H -2.881720 -6.916944 1.615710 0
M  V30 END ATOM
M  V30 BEGIN BOND
M  V30 1 1 1 2
M  V30 2 2 2 3
M  V30 3 1 3 4
M  V30 4 1 4 5
M  V30 5 1 5 6
M  V30 6 2 6 7
M  V30 7 1 7 8
M  V30 8 2 8 9
M  V30 9 1 9 10
M  V30 10 1 10 11
M  V30 11 1 11 12
M  V30 12 1 12 13
M  V30 13 1 12 14
M  V30 14 2 14 15
M  V30 15 1 15 16
M  V30 16 2 16 17
M  V30 17 1 17 18
M  V30 18 2 18 19
M  V30 19 2 10 20
M  V30 20 1 20 21
M  V30 21 1 21 22
M  V30 22 2 4 23
M  V30 23 1 23 24
M  V30 24 1 24 25
M  V30 25 2 24 26
M  V30 26 1 26 27
M  V30 27 1 26 2
M  V30 28 2 22 5
M  V30 29 1 21 8
M  V30 30 1 19 14
M  V30 31 1 1 28
M  V30 32 1 1 29
M  V30 33 1 1 30
M  V30 34 1 3 31
M  V30 35 1 6 32
M  V30 36 1 7 33
M  V30 37 1 11 34
M  V30 38 1 12 35
M  V30 39 1 13 36
M  V30 40 1 13 37
M  V30 41 1 13 38
M  V30 42 1 15 39
M  V30 43 1 16 40
M  V30 44 1 17 41
M  V30 45 1 18 42
M  V30 46 1 19 43
M  V30 47 1 22 44
M  V30 48 1 23 45
M  V30 49 1 25 46
M  V30 50 1 25 47
M  V30 51 1 25 48
M  V30 52 1 27 49
M  V30 END BOND
M  V30 END CTAB
M  END
>  <Dataset>  (611) 
ChEMBL_Kinases

>  <Ligand_Instance>  (611) 
nan

>  <PDB_ID>  (611) 
nan

>  <Standardized_SMILES>  (611) 
Cc1cc(-c2ccc3nc(NC(C)c4ccccc4)nn3c2)cc(C)c1O

>  <Name>  (611) 
nan

>  <Pocket>  (611) 
nan

>  <ATP_Site>  (611) 
nan

>  <Peripheral>  (611) 
nan

>  <Num_H_Atoms_ProtBoundConf>  (611) 
nan

>  <Num_Resolved_Atoms>  (611) 
nan

>  <Num_Not_Resolved_Atoms>  (611) 
nan

$$$$
CHEMBL4517907
     RDKit          3D

  0  0  0  0  0  0  0  0  0  0999 V3000
M  V30 BEGIN CTAB
M  V30 COUNTS 39 41 0 0 0
M  V30 BEGIN ATOM
M  V30 1 C 0.932159 -4.611467 2.721879 0
M  V30 2 C 2.013294 -3.640647 2.398635 0
M  V30 3 N 3.329284 -3.795536 2.615504 0
M  V30 4 N 3.988962 -2.708235 2.192234 0
M  V30 5 C 3.070536 -1.856363 1.701232 0
M  V30 6 C 1.808532 -2.408221 1.813104 0
M  V30 7 C 0.547187 -1.830984 1.409456 0
M  V30 8 N 0.508778 -0.612610 0.848688 0
M  V30 9 C -0.617050 -0.005051 0.446298 0
M  V30 10 N -0.609174 1.282471 -0.150291 0
M  V30 11 C 0.551963 2.101704 -0.390871 0
M  V30 12 C 0.213122 3.393057 -1.145959 0
M  V30 13 C 1.599821 1.387664 -1.217948 0
M  V30 14 C 1.229438 2.573108 0.882915 0
M  V30 15 F 0.425644 3.321642 1.691467 0
M  V30 16 F 1.755164 1.528000 1.598968 0
M  V30 17 F 2.332319 3.354609 0.508008 0
M  V30 18 C -1.750137 -0.730323 0.651906 0
M  V30 19 C -2.982786 -0.250008 0.295913 0
M  V30 20 C -4.181509 -0.910541 0.464749 0
M  V30 21 N -4.155119 -2.151373 1.034421 0
M  V30 22 C -2.947532 -2.669383 1.404868 0
M  V30 23 C -1.775085 -1.983332 1.221462 0
M  V30 24 N -0.589377 -2.524074 1.599962 0
M  V30 25 H 1.330633 -5.366579 3.452307 0
M  V30 26 H 0.130126 -4.075422 3.283372 0
M  V30 27 H 0.572631 -5.160733 1.839336 0
M  V30 28 H 5.029659 -2.628968 2.271605 0
M  V30 29 H 3.321960 -0.877200 1.282027 0
M  V30 30 H -1.483341 1.744873 -0.469592 0
M  V30 31 H -0.718239 3.846654 -0.781979 0
M  V30 32 H 0.168086 3.212753 -2.241229 0
M  V30 33 H 1.029886 4.111821 -0.977264 0
M  V30 34 H 2.166638 0.628633 -0.651993 0
M  V30 35 H 2.298744 2.180724 -1.596082 0
M  V30 36 H 1.159289 0.948088 -2.146038 0
M  V30 37 H -3.113964 0.713665 -0.158643 0
M  V30 38 H -5.141286 -0.525547 0.182541 0
M  V30 39 H -2.862291 -3.647672 1.861148 0
M  V30 END ATOM
M  V30 BEGIN BOND
M  V30 1 1 1 2
M  V30 2 2 2 3
M  V30 3 1 3 4
M  V30 4 1 4 5
M  V30 5 2 5 6
M  V30 6 1 6 7
M  V30 7 2 7 8
M  V30 8 1 8 9
M  V30 9 1 9 10
M  V30 10 1 10 11
M  V30 11 1 11 12
M  V30 12 1 11 13
M  V30 13 1 11 14
M  V30 14 1 14 15
M  V30 15 1 14 16
M  V30 16 1 14 17
M  V30 17 2 9 18
M  V30 18 1 18 19
M  V30 19 2 19 20
M  V30 20 1 20 21
M  V30 21 2 21 22
M  V30 22 1 22 23
M  V30 23 2 23 24
M  V30 24 1 6 2
M  V30 25 1 24 7
M  V30 26 1 23 18
M  V30 27 1 1 25
M  V30 28 1 1 26
M  V30 29 1 1 27
M  V30 30 1 4 28
M  V30 31 1 5 29
M  V30 32 1 10 30
M  V30 33 1 12 31
M  V30 34 1 12 32
M  V30 35 1 12 33
M  V30 36 1 13 34
M  V30 37 1 13 35
M  V30 38 1 13 36
M  V30 39 1 19 37
M  V30 40 1 20 38
M  V30 41 1 22 39
M  V30 END BOND
M  V30 END CTAB
M  END
>  <Dataset>  (612) 
ChEMBL_Kinases

>  <Ligand_Instance>  (612) 
nan

>  <PDB_ID>  (612) 
nan

>  <Standardized_SMILES>  (612) 
Cc1n[nH]cc1-c1nc(NC(C)(C)C(F)(F)F)c2ccncc2n1

>  <Name>  (612) 
nan

>  <Pocket>  (612) 
nan

>  <ATP_Site>  (612) 
nan

>  <Peripheral>  (612) 
nan

>  <Num_H_Atoms_ProtBoundConf>  (612) 
nan

>  <Num_Resolved_Atoms>  (612) 
nan

>  <Num_Not_Resolved_Atoms>  (612) 
nan

$$$$
CHEMBL451788
     RDKit          3D

  0  0  0  0  0  0  0  0  0  0999 V3000
M  V30 BEGIN CTAB
M  V30 COUNTS 45 46 0 0 0
M  V30 BEGIN ATOM
M  V30 1 C -0.407974 -4.611097 1.426331 0
M  V30 2 C -0.230202 -3.323525 0.641706 0
M  V30 3 C -1.567342 -2.586225 0.768121 0
M  V30 4 C 0.063580 -3.708137 -0.793042 0
M  V30 5 C 0.870955 -2.577025 1.267815 0
M  V30 6 O 1.361731 -3.171655 2.267675 0
M  V30 7 O 1.371165 -1.337786 0.851616 0
M  V30 8 C 2.443315 -0.773901 1.587402 0
M  V30 9 C 2.894003 0.534426 1.041686 0
M  V30 10 C 4.008228 1.071419 1.913404 0
M  V30 11 O 4.443442 2.318770 1.425493 0
M  V30 12 C 1.779541 1.549622 0.895558 0
M  V30 13 C 1.029711 0.973188 -0.239669 0
M  V30 14 C -0.203076 0.774439 -0.622233 0
M  V30 15 C -1.308295 1.194689 0.226516 0
M  V30 16 C -2.310414 1.857219 -0.497583 0
M  V30 17 C -3.474653 2.352794 0.048150 0
M  V30 18 C -3.687017 2.194257 1.410086 0
M  V30 19 F -4.787557 2.636908 2.063287 0
M  V30 20 C -2.705934 1.541024 2.138823 0
M  V30 21 Cl -2.875821 1.289180 3.856463 0
M  V30 22 C -1.547718 1.051638 1.575324 0
M  V30 23 C 2.165052 0.546136 -1.074202 0
M  V30 24 O 2.296209 0.316721 -2.326913 0
M  V30 25 O 3.321890 0.364483 -0.287680 0
M  V30 26 H -1.466048 -4.929527 1.376685 0
M  V30 27 H 0.189085 -5.415470 0.943815 0
M  V30 28 H -0.068395 -4.444123 2.455006 0
M  V30 29 H -1.565809 -1.972326 1.691927 0
M  V30 30 H -1.792825 -1.982847 -0.124673 0
M  V30 31 H -2.414398 -3.316342 0.868068 0
M  V30 32 H 0.205981 -4.802840 -0.927828 0
M  V30 33 H 0.875681 -3.143869 -1.258451 0
M  V30 34 H -0.873964 -3.473651 -1.371985 0
M  V30 35 H 3.322839 -1.449500 1.619750 0
M  V30 36 H 2.087018 -0.696804 2.647849 0
M  V30 37 H 4.882242 0.393606 1.849137 0
M  V30 38 H 3.675439 1.232042 2.948706 0
M  V30 39 H 5.001342 2.214960 0.620430 0
M  V30 40 H 1.227541 1.701875 1.814798 0
M  V30 41 H 2.301087 2.505560 0.583860 0
M  V30 42 H -0.425020 0.288655 -1.582716 0
M  V30 43 H -2.263086 2.045010 -1.572168 0
M  V30 44 H -4.243866 2.861535 -0.511070 0
M  V30 45 H -0.768829 0.533488 2.084874 0
M  V30 END ATOM
M  V30 BEGIN BOND
M  V30 1 1 1 2
M  V30 2 1 2 3
M  V30 3 1 2 4
M  V30 4 1 2 5
M  V30 5 2 5 6
M  V30 6 1 5 7
M  V30 7 1 7 8
M  V30 8 1 8 9
M  V30 9 1 9 10
M  V30 10 1 10 11
M  V30 11 1 9 12
M  V30 12 1 12 13
M  V30 13 2 13 14
M  V30 14 1 14 15
M  V30 15 2 15 16
M  V30 16 1 16 17
M  V30 17 2 17 18
M  V30 18 1 18 19
M  V30 19 1 18 20
M  V30 20 1 20 21
M  V30 21 2 20 22
M  V30 22 1 13 23
M  V30 23 2 23 24
M  V30 24 1 23 25
M  V30 25 1 25 9
M  V30 26 1 22 15
M  V30 27 1 1 26
M  V30 28 1 1 27
M  V30 29 1 1 28
M  V30 30 1 3 29
M  V30 31 1 3 30
M  V30 32 1 3 31
M  V30 33 1 4 32
M  V30 34 1 4 33
M  V30 35 1 4 34
M  V30 36 1 8 35
M  V30 37 1 8 36
M  V30 38 1 10 37
M  V30 39 1 10 38
M  V30 40 1 11 39
M  V30 41 1 12 40
M  V30 42 1 12 41
M  V30 43 1 14 42
M  V30 44 1 16 43
M  V30 45 1 17 44
M  V30 46 1 22 45
M  V30 END BOND
M  V30 END CTAB
M  END
>  <Dataset>  (613) 
ChEMBL_Kinases

>  <Ligand_Instance>  (613) 
nan

>  <PDB_ID>  (613) 
nan

>  <Standardized_SMILES>  (613) 
CC(C)(C)C(=O)OCC1(CO)C/C(=C\c2ccc(F)c(Cl)c2)C(=O)O1

>  <Name>  (613) 
nan

>  <Pocket>  (613) 
nan

>  <ATP_Site>  (613) 
nan

>  <Peripheral>  (613) 
nan

>  <Num_H_Atoms_ProtBoundConf>  (613) 
nan

>  <Num_Resolved_Atoms>  (613) 
nan

>  <Num_Not_Resolved_Atoms>  (613) 
nan

$$$$
CHEMBL451787
     RDKit          3D

  0  0  0  0  0  0  0  0  0  0999 V3000
M  V30 BEGIN CTAB
M  V30 COUNTS 45 46 0 0 0
M  V30 BEGIN ATOM
M  V30 1 C 0.352109 -4.809464 1.578663 0
M  V30 2 C 0.266506 -3.342493 1.226539 0
M  V30 3 C -0.287805 -2.579433 2.406661 0
M  V30 4 C -0.629783 -3.176055 0.014920 0
M  V30 5 C 1.601716 -2.775621 0.905489 0
M  V30 6 O 2.636250 -3.521324 0.918164 0
M  V30 7 O 1.834014 -1.471018 0.583775 0
M  V30 8 C 3.102816 -0.920935 0.275505 0
M  V30 9 C 2.881167 0.558614 0.003763 0
M  V30 10 C 4.184737 1.217961 -0.377571 0
M  V30 11 O 3.875027 2.576165 -0.570002 0
M  V30 12 C 2.196841 1.219194 1.185503 0
M  V30 13 C 0.773228 1.206093 0.761199 0
M  V30 14 C -0.235289 1.560509 1.531118 0
M  V30 15 C -1.634180 1.559444 1.133618 0
M  V30 16 C -2.512141 0.915785 2.021567 0
M  V30 17 C -3.888546 0.810282 1.869313 0
M  V30 18 C -4.406141 1.404222 0.730808 0
M  V30 19 Br -6.290700 1.327651 0.409552 0
M  V30 20 C -3.589472 2.045504 -0.166255 0
M  V30 21 C -2.220301 2.118700 0.038856 0
M  V30 22 C 0.681961 0.700128 -0.611397 0
M  V30 23 O -0.396939 0.303804 -1.146404 0
M  V30 24 O 1.988633 0.772261 -1.097426 0
M  V30 25 H 0.357337 -4.923244 2.686650 0
M  V30 26 H -0.595436 -5.278740 1.247024 0
M  V30 27 H 1.214422 -5.323885 1.125076 0
M  V30 28 H -0.063832 -3.181062 3.319977 0
M  V30 29 H 0.292480 -1.645302 2.514738 0
M  V30 30 H -1.379773 -2.407888 2.292328 0
M  V30 31 H -1.134405 -2.200559 0.105597 0
M  V30 32 H -1.301739 -4.041756 -0.099862 0
M  V30 33 H 0.018047 -3.100348 -0.877238 0
M  V30 34 H 3.806859 -0.959432 1.125556 0
M  V30 35 H 3.539244 -1.438619 -0.589169 0
M  V30 36 H 4.958285 1.085614 0.404554 0
M  V30 37 H 4.483908 0.806978 -1.362567 0
M  V30 38 H 3.612099 2.754521 -1.509680 0
M  V30 39 H 2.387445 0.731654 2.144897 0
M  V30 40 H 2.553598 2.262933 1.233227 0
M  V30 41 H -0.047346 1.882347 2.542352 0
M  V30 42 H -2.124823 0.441087 2.923695 0
M  V30 43 H -4.492686 0.300476 2.591042 0
M  V30 44 H -3.969992 2.526238 -1.077892 0
M  V30 45 H -1.568566 2.636009 -0.646119 0
M  V30 END ATOM
M  V30 BEGIN BOND
M  V30 1 1 1 2
M  V30 2 1 2 3
M  V30 3 1 2 4
M  V30 4 1 2 5
M  V30 5 2 5 6
M  V30 6 1 5 7
M  V30 7 1 7 8
M  V30 8 1 8 9
M  V30 9 1 9 10
M  V30 10 1 10 11
M  V30 11 1 9 12
M  V30 12 1 12 13
M  V30 13 2 13 14
M  V30 14 1 14 15
M  V30 15 2 15 16
M  V30 16 1 16 17
M  V30 17 2 17 18
M  V30 18 1 18 19
M  V30 19 1 18 20
M  V30 20 2 20 21
M  V30 21 1 13 22
M  V30 22 2 22 23
M  V30 23 1 22 24
M  V30 24 1 24 9
M  V30 25 1 21 15
M  V30 26 1 1 25
M  V30 27 1 1 26
M  V30 28 1 1 27
M  V30 29 1 3 28
M  V30 30 1 3 29
M  V30 31 1 3 30
M  V30 32 1 4 31
M  V30 33 1 4 32
M  V30 34 1 4 33
M  V30 35 1 8 34
M  V30 36 1 8 35
M  V30 37 1 10 36
M  V30 38 1 10 37
M  V30 39 1 11 38
M  V30 40 1 12 39
M  V30 41 1 12 40
M  V30 42 1 14 41
M  V30 43 1 16 42
M  V30 44 1 17 43
M  V30 45 1 20 44
M  V30 46 1 21 45
M  V30 END BOND
M  V30 END CTAB
M  END
>  <Dataset>  (614) 
ChEMBL_Kinases

>  <Ligand_Instance>  (614) 
nan

>  <PDB_ID>  (614) 
nan

>  <Standardized_SMILES>  (614) 
CC(C)(C)C(=O)OCC1(CO)C/C(=C/c2ccc(Br)cc2)C(=O)O1

>  <Name>  (614) 
nan

>  <Pocket>  (614) 
nan

>  <ATP_Site>  (614) 
nan

>  <Peripheral>  (614) 
nan

>  <Num_H_Atoms_ProtBoundConf>  (614) 
nan

>  <Num_Resolved_Atoms>  (614) 
nan

>  <Num_Not_Resolved_Atoms>  (614) 
nan

$$$$
CHEMBL451786
     RDKit          3D

  0  0  0  0  0  0  0  0  0  0999 V3000
M  V30 BEGIN CTAB
M  V30 COUNTS 55 57 0 0 0
M  V30 BEGIN ATOM
M  V30 1 C 3.663628 1.084426 4.523496 0
M  V30 2 C 4.534875 0.299492 3.554735 0
M  V30 3 C 4.642219 -1.124270 4.091766 0
M  V30 4 C 3.890247 0.301466 2.241133 0
M  V30 5 O 3.559336 -0.788940 1.670257 0
M  V30 6 O 3.531615 1.351267 1.413041 0
M  V30 7 C 2.919630 1.017981 0.202028 0
M  V30 8 C 2.533015 2.169568 -0.664869 0
M  V30 9 C 3.681010 3.012506 -1.140081 0
M  V30 10 O 4.534016 2.144020 -1.849595 0
M  V30 11 C 1.411527 3.009337 -0.058196 0
M  V30 12 C 0.309454 1.968864 -0.143974 0
M  V30 13 C -0.611788 1.587790 0.702492 0
M  V30 14 C -1.580370 0.545564 0.404544 0
M  V30 15 C -2.940244 0.559822 0.619451 0
M  V30 16 C -3.712383 -0.565129 0.319158 0
M  V30 17 C -3.107776 -1.709189 -0.200589 0
M  V30 18 C -3.948649 -2.843478 -0.479261 0
M  V30 19 C -5.264737 -2.885831 -0.886780 0
M  V30 20 C -5.909853 -4.091476 -1.093491 0
M  V30 21 C -5.248346 -5.301168 -0.896145 0
M  V30 22 C -5.945393 -6.599715 -1.118908 0
M  V30 23 F -5.106903 -7.625640 -0.742093 0
M  V30 24 F -7.021595 -6.616518 -0.229942 0
M  V30 25 F -6.404823 -6.743057 -2.393517 0
M  V30 26 C -3.931447 -5.283960 -0.488302 0
M  V30 27 C -3.311381 -4.069755 -0.288954 0
M  V30 28 C -1.749785 -1.722849 -0.416201 0
M  V30 29 C -0.986366 -0.609585 -0.118559 0
M  V30 30 C 0.540228 1.495518 -1.529026 0
M  V30 31 O -0.449628 1.061483 -2.212083 0
M  V30 32 O 1.911870 1.626428 -1.852101 0
M  V30 33 H 2.667075 1.273855 4.068037 0
M  V30 34 H 3.470409 0.501246 5.460043 0
M  V30 35 H 4.157426 2.051902 4.766173 0
M  V30 36 H 5.538443 0.726093 3.579386 0
M  V30 37 H 5.489612 -1.676595 3.653248 0
M  V30 38 H 3.723003 -1.698910 3.852392 0
M  V30 39 H 4.737124 -1.098969 5.194351 0
M  V30 40 H 2.041405 0.364256 0.454711 0
M  V30 41 H 3.584426 0.335526 -0.410022 0
M  V30 42 H 3.281363 3.742898 -1.868778 0
M  V30 43 H 4.226077 3.504419 -0.308748 0
M  V30 44 H 4.093650 2.019364 -2.741511 0
M  V30 45 H 1.218093 3.838570 -0.767032 0
M  V30 46 H 1.596931 3.303250 0.971597 0
M  V30 47 H -0.574168 2.134947 1.655400 0
M  V30 48 H -3.322375 1.477002 1.020158 0
M  V30 49 H -4.768163 -0.526725 0.496475 0
M  V30 50 H -5.706453 -1.902745 -1.018303 0
M  V30 51 H -6.938554 -4.063790 -1.412256 0
M  V30 52 H -3.462694 -6.249148 -0.348183 0
M  V30 53 H -2.268308 -4.216041 0.036281 0
M  V30 54 H -1.346078 -2.641204 -0.824747 0
M  V30 55 H 0.075636 -0.795108 -0.340859 0
M  V30 END ATOM
M  V30 BEGIN BOND
M  V30 1 1 1 2
M  V30 2 1 2 3
M  V30 3 1 2 4
M  V30 4 2 4 5
M  V30 5 1 4 6
M  V30 6 1 6 7
M  V30 7 1 7 8
M  V30 8 1 8 9
M  V30 9 1 9 10
M  V30 10 1 8 11
M  V30 11 1 11 12
M  V30 12 2 12 13
M  V30 13 1 13 14
M  V30 14 2 14 15
M  V30 15 1 15 16
M  V30 16 2 16 17
M  V30 17 1 17 18
M  V30 18 2 18 19
M  V30 19 1 19 20
M  V30 20 2 20 21
M  V30 21 1 21 22
M  V30 22 1 22 23
M  V30 23 1 22 24
M  V30 24 1 22 25
M  V30 25 1 21 26
M  V30 26 2 26 27
M  V30 27 1 17 28
M  V30 28 2 28 29
M  V30 29 1 12 30
M  V30 30 2 30 31
M  V30 31 1 30 32
M  V30 32 1 32 8
M  V30 33 1 29 14
M  V30 34 1 27 18
M  V30 35 1 1 33
M  V30 36 1 1 34
M  V30 37 1 1 35
M  V30 38 1 2 36
M  V30 39 1 3 37
M  V30 40 1 3 38
M  V30 41 1 3 39
M  V30 42 1 7 40
M  V30 43 1 7 41
M  V30 44 1 9 42
M  V30 45 1 9 43
M  V30 46 1 10 44
M  V30 47 1 11 45
M  V30 48 1 11 46
M  V30 49 1 13 47
M  V30 50 1 15 48
M  V30 51 1 16 49
M  V30 52 1 19 50
M  V30 53 1 20 51
M  V30 54 1 26 52
M  V30 55 1 27 53
M  V30 56 1 28 54
M  V30 57 1 29 55
M  V30 END BOND
M  V30 END CTAB
M  END
>  <Dataset>  (615) 
ChEMBL_Kinases

>  <Ligand_Instance>  (615) 
nan

>  <PDB_ID>  (615) 
nan

>  <Standardized_SMILES>  (615) 
CC(C)C(=O)OCC1(CO)C/C(=C/c2ccc(-c3ccc(C(F)(F)F)cc3)cc2)C(=O)O1

>  <Name>  (615) 
nan

>  <Pocket>  (615) 
nan

>  <ATP_Site>  (615) 
nan

>  <Peripheral>  (615) 
nan

>  <Num_H_Atoms_ProtBoundConf>  (615) 
nan

>  <Num_Resolved_Atoms>  (615) 
nan

>  <Num_Not_Resolved_Atoms>  (615) 
nan

$$$$
CHEMBL4517851
     RDKit          3D

  0  0  0  0  0  0  0  0  0  0999 V3000
M  V30 BEGIN CTAB
M  V30 COUNTS 54 58 0 0 0
M  V30 BEGIN ATOM
M  V30 1 C 4.370363 -2.750773 6.515672 0
M  V30 2 N 4.142476 -1.829358 5.413056 0
M  V30 3 C 4.987622 -0.855975 5.092102 0
M  V30 4 C 4.516081 -0.156708 4.023276 0
M  V30 5 N 4.948867 0.950636 3.247346 0
M  V30 6 C 4.354365 1.598182 2.134842 0
M  V30 7 N 5.059618 2.649993 1.626690 0
M  V30 8 C 4.570697 3.319244 0.574447 0
M  V30 9 C 3.366587 2.927556 0.031803 0
M  V30 10 C 2.647001 1.876125 0.528432 0
M  V30 11 C 1.378111 1.493310 -0.073512 0
M  V30 12 C 0.840356 2.154457 -1.155580 0
M  V30 13 C -0.360626 1.799273 -1.733273 0
M  V30 14 C -1.060382 0.726350 -1.200505 0
M  V30 15 C -0.571695 0.028825 -0.118484 0
M  V30 16 C 0.634691 0.441853 0.404564 0
M  V30 17 C -1.592662 -1.003038 0.158976 0
M  V30 18 O -1.333206 -1.767192 1.130366 0
M  V30 19 N -2.684255 -0.889941 -0.779182 0
M  V30 20 C -3.765244 -1.822811 -0.550946 0 CFG=1
M  V30 21 C -5.052367 -1.083196 -0.192896 0
M  V30 22 O -6.094957 -1.993354 0.026740 0
M  V30 23 C -3.984942 -2.681110 -1.736119 0
M  V30 24 C -4.201349 -2.272759 -3.033210 0
M  V30 25 C -4.385174 -3.115108 -4.093858 0
M  V30 26 C -4.361368 -4.478681 -3.902204 0
M  V30 27 C -4.151508 -4.980751 -2.637267 0
M  V30 28 Cl -4.113246 -6.701318 -2.344567 0
M  V30 29 C -3.974196 -4.070091 -1.619381 0
M  V30 30 C -2.361039 0.173972 -1.701925 0
M  V30 31 N 3.202209 1.254537 1.584334 0
M  V30 32 C 3.321610 -0.754550 3.695545 0
M  V30 33 N 3.136741 -1.764799 4.566637 0
M  V30 34 H 5.065908 -2.331472 7.245201 0
M  V30 35 H 3.399634 -3.060667 6.957757 0
M  V30 36 H 4.829565 -3.670966 6.098964 0
M  V30 37 H 5.938540 -0.569926 5.543749 0
M  V30 38 H 5.862559 1.270965 3.635723 0
M  V30 39 H 5.171569 4.153831 0.203320 0
M  V30 40 H 3.079381 3.535497 -0.802048 0
M  V30 41 H 1.334693 2.993220 -1.613045 0
M  V30 42 H -0.751607 2.354390 -2.594692 0
M  V30 43 H 1.012067 -0.105616 1.247759 0
M  V30 44 H -3.579641 -2.487648 0.309899 0
M  V30 45 H -4.899003 -0.538755 0.760241 0
M  V30 46 H -5.289902 -0.364333 -0.977951 0
M  V30 47 H -6.770520 -1.583645 0.611214 0
M  V30 48 H -4.239859 -1.215664 -3.227190 0
M  V30 49 H -4.550739 -2.719360 -5.091695 0
M  V30 50 H -4.504808 -5.143722 -4.729626 0
M  V30 51 H -3.811823 -4.511618 -0.638656 0
M  V30 52 H -2.189883 -0.215064 -2.738354 0
M  V30 53 H -3.165563 0.933639 -1.661743 0
M  V30 54 H 2.521210 -0.669337 2.987952 0
M  V30 END ATOM
M  V30 BEGIN BOND
M  V30 1 1 1 2
M  V30 2 1 2 3
M  V30 3 2 3 4
M  V30 4 1 4 5
M  V30 5 1 5 6
M  V30 6 2 6 7
M  V30 7 1 7 8
M  V30 8 2 8 9
M  V30 9 1 9 10
M  V30 10 1 10 11
M  V30 11 2 11 12
M  V30 12 1 12 13
M  V30 13 2 13 14
M  V30 14 1 14 15
M  V30 15 2 15 16
M  V30 16 1 15 17
M  V30 17 2 17 18
M  V30 18 1 17 19
M  V30 19 1 19 20
M  V30 20 1 20 21
M  V30 21 1 21 22
M  V30 22 1 20 23
M  V30 23 2 23 24
M  V30 24 1 24 25
M  V30 25 2 25 26
M  V30 26 1 26 27
M  V30 27 1 27 28
M  V30 28 2 27 29
M  V30 29 1 19 30
M  V30 30 2 10 31
M  V30 31 1 4 32
M  V30 32 2 32 33
M  V30 33 1 33 2
M  V30 34 1 31 6
M  V30 35 1 16 11
M  V30 36 1 29 23
M  V30 37 1 30 14
M  V30 38 1 1 34
M  V30 39 1 1 35
M  V30 40 1 1 36
M  V30 41 1 3 37
M  V30 42 1 5 38
M  V30 43 1 8 39
M  V30 44 1 9 40
M  V30 45 1 12 41
M  V30 46 1 13 42
M  V30 47 1 16 43
M  V30 48 1 20 44 CFG=1
M  V30 49 1 21 45
M  V30 50 1 21 46
M  V30 51 1 22 47
M  V30 52 1 24 48
M  V30 53 1 25 49
M  V30 54 1 26 50
M  V30 55 1 29 51
M  V30 56 1 30 52
M  V30 57 1 30 53
M  V30 58 1 32 54
M  V30 END BOND
M  V30 END CTAB
M  END
>  <Dataset>  (616) 
ChEMBL_Kinases

>  <Ligand_Instance>  (616) 
nan

>  <PDB_ID>  (616) 
nan

>  <Standardized_SMILES>  (616) 
Cn1cc(Nc2nccc(-c3ccc4c(c3)C(=O)N([C@@H](CO)c3cccc(Cl)c3)C4)n2)cn1

>  <Name>  (616) 
nan

>  <Pocket>  (616) 
nan

>  <ATP_Site>  (616) 
nan

>  <Peripheral>  (616) 
nan

>  <Num_H_Atoms_ProtBoundConf>  (616) 
nan

>  <Num_Resolved_Atoms>  (616) 
nan

>  <Num_Not_Resolved_Atoms>  (616) 
nan

$$$$
CHEMBL4647724
     RDKit          3D

  0  0  0  0  0  0  0  0  0  0999 V3000
M  V30 BEGIN CTAB
M  V30 COUNTS 65 68 0 0 0
M  V30 BEGIN ATOM
M  V30 1 C -0.689283 -1.023817 6.560202 0
M  V30 2 O -0.200424 -2.341655 6.711194 0
M  V30 3 C 0.611098 -2.882901 5.724044 0
M  V30 4 C 0.925873 -2.131736 4.618753 0
M  V30 5 C 1.726129 -2.605893 3.600103 0
M  V30 6 C 2.117242 -1.902353 2.385382 0
M  V30 7 C 3.485286 -1.969300 2.109946 0
M  V30 8 N 3.906459 -1.323385 0.995723 0
M  V30 9 C 3.009617 -0.664756 0.225918 0
M  V30 10 C 1.634986 -0.588464 0.487507 0
M  V30 11 C 0.885496 0.152691 -0.507490 0
M  V30 12 C 1.372204 1.461460 -0.637453 0
M  V30 13 C 0.828504 2.375436 -1.547072 0
M  V30 14 C -0.238723 2.001821 -2.370219 0
M  V30 15 O -0.713816 2.956429 -3.233575 0
M  V30 16 C -1.757986 2.826057 -4.142314 0
M  V30 17 C -2.878554 3.776818 -3.722102 0
M  V30 18 C -4.123918 3.508549 -4.532365 0
M  V30 19 N -3.828125 3.233900 -5.917000 0
M  V30 20 C -4.061699 1.879705 -6.316239 0
M  V30 21 C -2.540098 3.744849 -6.329698 0
M  V30 22 C -1.382135 3.129209 -5.575216 0
M  V30 23 C -0.691006 0.712746 -2.217742 0
M  V30 24 C -0.163057 -0.190682 -1.327940 0
M  V30 25 C 1.191285 -1.236989 1.613541 0
M  V30 26 C -0.226202 -1.179415 1.953574 0
M  V30 27 C 2.201915 -3.889544 3.747959 0
M  V30 28 C 1.913204 -4.681297 4.839179 0
M  V30 29 O 2.337036 -5.969869 5.079999 0
M  V30 30 C 3.167783 -6.664342 4.175802 0
M  V30 31 C 1.108158 -4.161883 5.831562 0
M  V30 32 O 0.749337 -4.863163 6.975083 0
M  V30 33 C -0.398462 -5.670765 7.066121 0
M  V30 34 H -1.403636 -0.795603 7.387155 0
M  V30 35 H -1.198622 -0.951055 5.597248 0
M  V30 36 H 0.198369 -0.355890 6.651561 0
M  V30 37 H 0.556762 -1.122617 4.504039 0
M  V30 38 H 4.183002 -2.501762 2.738988 0
M  V30 39 H 3.537230 -0.208274 -0.624894 0
M  V30 40 H 2.204495 1.882767 -0.053007 0
M  V30 41 H 1.228750 3.388546 -1.625871 0
M  V30 42 H -2.195724 1.818239 -4.102041 0
M  V30 43 H -3.120319 3.547424 -2.662143 0
M  V30 44 H -2.585763 4.840128 -3.839601 0
M  V30 45 H -4.744761 4.426461 -4.496616 0
M  V30 46 H -4.716984 2.705449 -4.041056 0
M  V30 47 H -4.545188 1.883543 -7.323889 0
M  V30 48 H -4.757653 1.362187 -5.622247 0
M  V30 49 H -3.125209 1.289452 -6.313040 0
M  V30 50 H -2.568272 4.847931 -6.155656 0
M  V30 51 H -2.408806 3.560989 -7.395994 0
M  V30 52 H -1.062260 2.246092 -6.152929 0
M  V30 53 H -0.572775 3.866741 -5.569230 0
M  V30 54 H -1.507020 0.399013 -2.834782 0
M  V30 55 H -0.502363 -1.185989 -1.223584 0
M  V30 56 H -0.514735 -2.061847 2.594580 0
M  V30 57 H -0.841675 -1.285037 1.045768 0
M  V30 58 H -0.482193 -0.262472 2.530244 0
M  V30 59 H 2.831039 -4.335028 3.002411 0
M  V30 60 H 2.952227 -7.765423 4.305941 0
M  V30 61 H 4.241487 -6.557290 4.418475 0
M  V30 62 H 3.020740 -6.360614 3.123042 0
M  V30 63 H -0.487902 -5.997894 8.130548 0
M  V30 64 H -0.257187 -6.611091 6.478000 0
M  V30 65 H -1.314239 -5.132340 6.808204 0
M  V30 END ATOM
M  V30 BEGIN BOND
M  V30 1 1 1 2
M  V30 2 1 2 3
M  V30 3 2 3 4
M  V30 4 1 4 5
M  V30 5 1 5 6
M  V30 6 2 6 7
M  V30 7 1 7 8
M  V30 8 2 8 9
M  V30 9 1 9 10
M  V30 10 1 10 11
M  V30 11 2 11 12
M  V30 12 1 12 13
M  V30 13 2 13 14
M  V30 14 1 14 15
M  V30 15 1 15 16
M  V30 16 1 16 17
M  V30 17 1 17 18
M  V30 18 1 18 19
M  V30 19 1 19 20
M  V30 20 1 19 21
M  V30 21 1 21 22
M  V30 22 1 14 23
M  V30 23 2 23 24
M  V30 24 2 10 25
M  V30 25 1 25 26
M  V30 26 2 5 27
M  V30 27 1 27 28
M  V30 28 1 28 29
M  V30 29 1 29 30
M  V30 30 2 28 31
M  V30 31 1 31 32
M  V30 32 1 32 33
M  V30 33 1 31 3
M  V30 34 1 25 6
M  V30 35 1 24 11
M  V30 36 1 22 16
M  V30 37 1 1 34
M  V30 38 1 1 35
M  V30 39 1 1 36
M  V30 40 1 4 37
M  V30 41 1 7 38
M  V30 42 1 9 39
M  V30 43 1 12 40
M  V30 44 1 13 41
M  V30 45 1 16 42
M  V30 46 1 17 43
M  V30 47 1 17 44
M  V30 48 1 18 45
M  V30 49 1 18 46
M  V30 50 1 20 47
M  V30 51 1 20 48
M  V30 52 1 20 49
M  V30 53 1 21 50
M  V30 54 1 21 51
M  V30 55 1 22 52
M  V30 56 1 22 53
M  V30 57 1 23 54
M  V30 58 1 24 55
M  V30 59 1 26 56
M  V30 60 1 26 57
M  V30 61 1 26 58
M  V30 62 1 27 59
M  V30 63 1 30 60
M  V30 64 1 30 61
M  V30 65 1 30 62
M  V30 66 1 33 63
M  V30 67 1 33 64
M  V30 68 1 33 65
M  V30 END BOND
M  V30 END CTAB
M  END
>  <Dataset>  (617) 
ChEMBL_Kinases

>  <Ligand_Instance>  (617) 
nan

>  <PDB_ID>  (617) 
nan

>  <Standardized_SMILES>  (617) 
COc1cc(-c2cncc(-c3ccc(OC4CCN(C)CC4)cc3)c2C)cc(OC)c1OC

>  <Name>  (617) 
nan

>  <Pocket>  (617) 
nan

>  <ATP_Site>  (617) 
nan

>  <Peripheral>  (617) 
nan

>  <Num_H_Atoms_ProtBoundConf>  (617) 
nan

>  <Num_Resolved_Atoms>  (617) 
nan

>  <Num_Not_Resolved_Atoms>  (617) 
nan

$$$$
CHEMBL4647780
     RDKit          3D

  0  0  0  0  0  0  0  0  0  0999 V3000
M  V30 BEGIN CTAB
M  V30 COUNTS 48 51 0 0 0
M  V30 BEGIN ATOM
M  V30 1 N 2.629791 -7.049516 0.634362 0
M  V30 2 C 1.774502 -5.915577 0.578906 0
M  V30 3 C 2.016029 -4.839512 1.404909 0
M  V30 4 C 1.238000 -3.696046 1.419344 0
M  V30 5 F 1.440591 -2.626717 2.208955 0
M  V30 6 C 0.161229 -3.629753 0.559398 0
M  V30 7 C -0.774181 -2.518957 0.423440 0
M  V30 8 C -0.419487 -1.199373 0.354473 0
M  V30 9 C -1.324367 -0.186836 0.227598 0
M  V30 10 N -0.928761 1.162242 0.172759 0
M  V30 11 C 0.444933 1.600458 0.300644 0 CFG=1
M  V30 12 C 0.611829 3.088744 -0.052591 0
M  V30 13 C 2.109708 3.326297 -0.049732 0
M  V30 14 C 2.585967 4.039848 1.188236 0
M  V30 15 C 2.112305 3.281334 2.396685 0
M  V30 16 N 2.111760 1.867007 2.077778 0
M  V30 17 C 0.777108 1.455318 1.775745 0
M  V30 18 C -2.625050 -0.576175 0.172059 0
M  V30 19 C -3.654697 0.320751 0.044921 0
M  V30 20 C -4.995800 0.006819 -0.018285 0
M  V30 21 N -5.353565 -1.303747 0.049602 0
M  V30 22 C -4.383854 -2.253532 0.176616 0
M  V30 23 C -3.050706 -1.903307 0.236811 0
M  V30 24 C -2.119627 -2.899992 0.364740 0
M  V30 25 C -0.050529 -4.737980 -0.260426 0
M  V30 26 N 0.720314 -5.841182 -0.257490 0
M  V30 27 H 3.451671 -7.072166 -0.019602 0
M  V30 28 H 2.281541 -7.716104 1.359676 0
M  V30 29 H 2.856152 -4.833315 2.109449 0
M  V30 30 H 0.629637 -1.076392 0.400350 0
M  V30 31 H -1.584363 1.955738 0.036765 0
M  V30 32 H 1.155111 1.008648 -0.280463 0
M  V30 33 H 0.240489 3.274304 -1.060769 0
M  V30 34 H 0.064231 3.675916 0.694583 0
M  V30 35 H 2.406325 3.937978 -0.931399 0
M  V30 36 H 2.698560 2.383433 -0.126449 0
M  V30 37 H 2.246374 5.097308 1.216811 0
M  V30 38 H 3.686446 3.998194 1.199342 0
M  V30 39 H 2.749257 3.516394 3.270294 0
M  V30 40 H 1.075722 3.643132 2.603097 0
M  V30 41 H 2.409745 1.354042 2.947369 0
M  V30 42 H 0.470764 0.475968 2.124405 0
M  V30 43 H 0.084097 2.181913 2.302222 0
M  V30 44 H -3.462543 1.367232 -0.015142 0
M  V30 45 H -5.777900 0.741655 -0.118567 0
M  V30 46 H -4.700274 -3.285967 0.227925 0
M  V30 47 H -2.428593 -3.934494 0.416872 0
M  V30 48 H -0.861868 -4.831250 -0.991503 0
M  V30 END ATOM
M  V30 BEGIN BOND
M  V30 1 1 1 2
M  V30 2 2 2 3
M  V30 3 1 3 4
M  V30 4 1 4 5
M  V30 5 2 4 6
M  V30 6 1 6 7
M  V30 7 2 7 8
M  V30 8 1 8 9
M  V30 9 1 9 10
M  V30 10 1 10 11
M  V30 11 1 11 12
M  V30 12 1 12 13
M  V30 13 1 13 14
M  V30 14 1 14 15
M  V30 15 1 15 16
M  V30 16 1 16 17
M  V30 17 2 9 18
M  V30 18 1 18 19
M  V30 19 2 19 20
M  V30 20 1 20 21
M  V30 21 2 21 22
M  V30 22 1 22 23
M  V30 23 2 23 24
M  V30 24 1 6 25
M  V30 25 2 25 26
M  V30 26 1 26 2
M  V30 27 1 24 7
M  V30 28 1 17 11
M  V30 29 1 23 18
M  V30 30 1 1 27
M  V30 31 1 1 28
M  V30 32 1 3 29
M  V30 33 1 8 30
M  V30 34 1 10 31
M  V30 35 1 11 32 CFG=3
M  V30 36 1 12 33
M  V30 37 1 12 34
M  V30 38 1 13 35
M  V30 39 1 13 36
M  V30 40 1 14 37
M  V30 41 1 14 38
M  V30 42 1 15 39
M  V30 43 1 15 40
M  V30 44 1 16 41
M  V30 45 1 17 42
M  V30 46 1 17 43
M  V30 47 1 19 44
M  V30 48 1 20 45
M  V30 49 1 22 46
M  V30 50 1 24 47
M  V30 51 1 25 48
M  V30 END BOND
M  V30 END CTAB
M  END
>  <Dataset>  (618) 
ChEMBL_Kinases

>  <Ligand_Instance>  (618) 
nan

>  <PDB_ID>  (618) 
nan

>  <Standardized_SMILES>  (618) 
Nc1cc(F)c(-c2cc(N[C@H]3CCCCNC3)c3ccncc3c2)cn1

>  <Name>  (618) 
nan

>  <Pocket>  (618) 
nan

>  <ATP_Site>  (618) 
nan

>  <Peripheral>  (618) 
nan

>  <Num_H_Atoms_ProtBoundConf>  (618) 
nan

>  <Num_Resolved_Atoms>  (618) 
nan

>  <Num_Not_Resolved_Atoms>  (618) 
nan

$$$$
CHEMBL4517782
     RDKit          3D

  0  0  0  0  0  0  0  0  0  0999 V3000
M  V30 BEGIN CTAB
M  V30 COUNTS 49 52 0 0 0
M  V30 BEGIN ATOM
M  V30 1 N -0.476846 -5.328541 2.605937 0
M  V30 2 C -0.178206 -4.036156 2.089527 0
M  V30 3 N 0.991555 -3.434243 2.446379 0
M  V30 4 C 1.255760 -2.213925 1.948447 0
M  V30 5 C 0.442609 -1.515819 1.104694 0
M  V30 6 C 0.711024 -0.194616 0.555386 0
M  V30 7 C -0.262328 0.334163 -0.290897 0
M  V30 8 C -0.050937 1.593363 -0.840075 0
M  V30 9 C 1.110020 2.270181 -0.528181 0
M  V30 10 C 2.089819 1.778876 0.301823 0
M  V30 11 N 3.267345 2.513575 0.594224 0
M  V30 12 C 3.557869 3.838391 0.091171 0
M  V30 13 C 3.609748 4.738888 1.327567 0
M  V30 14 N 4.711623 4.293442 2.174075 0
M  V30 15 C 4.384982 2.959445 2.643102 0
M  V30 16 C 4.337241 2.028696 1.440283 0
M  V30 17 C 1.846927 0.538031 0.822987 0
M  V30 18 N -0.703090 -2.136701 0.771904 0
M  V30 19 C -1.030008 -3.366193 1.238383 0
M  V30 20 C -2.279005 -4.016258 0.861259 0
M  V30 21 O -2.493224 -5.154129 1.344119 0
M  V30 22 N -3.243544 -3.444637 -0.002720 0
M  V30 23 C -4.479347 -3.961492 -0.443250 0
M  V30 24 C -5.045623 -5.171796 -0.125845 0
M  V30 25 C -6.260442 -5.631464 -0.584680 0
M  V30 26 N -6.956472 -4.835105 -1.412831 0
M  V30 27 C -6.453855 -3.643161 -1.757336 0
M  V30 28 C -5.247253 -3.201984 -1.293397 0
M  V30 29 H -0.945018 -5.037109 3.498855 0
M  V30 30 H -0.169909 -6.133357 1.998458 0
M  V30 31 H 2.185293 -1.782083 2.256793 0
M  V30 32 H -1.180660 -0.195117 -0.540878 0
M  V30 33 H -0.816422 1.977685 -1.488790 0
M  V30 34 H 1.169974 3.228224 -1.004340 0
M  V30 35 H 4.615955 3.861963 -0.296347 0
M  V30 36 H 2.844737 4.248293 -0.613503 0
M  V30 37 H 2.639089 4.733812 1.815749 0
M  V30 38 H 3.831060 5.756227 0.952264 0
M  V30 39 H 4.669468 4.908649 3.030677 0
M  V30 40 H 3.394174 3.041725 3.147227 0
M  V30 41 H 5.076956 2.595989 3.423664 0
M  V30 42 H 4.274292 0.982374 1.723831 0
M  V30 43 H 5.306081 2.201223 0.896418 0
M  V30 44 H 2.518698 0.048161 1.474708 0
M  V30 45 H -2.940070 -2.501942 -0.329727 0
M  V30 46 H -4.513821 -5.829117 0.532978 0
M  V30 47 H -6.634838 -6.599904 -0.285084 0
M  V30 48 H -7.003653 -2.996706 -2.420778 0
M  V30 49 H -4.884829 -2.217275 -1.608627 0
M  V30 END ATOM
M  V30 BEGIN BOND
M  V30 1 1 1 2
M  V30 2 2 2 3
M  V30 3 1 3 4
M  V30 4 2 4 5
M  V30 5 1 5 6
M  V30 6 2 6 7
M  V30 7 1 7 8
M  V30 8 2 8 9
M  V30 9 1 9 10
M  V30 10 1 10 11
M  V30 11 1 11 12
M  V30 12 1 12 13
M  V30 13 1 13 14
M  V30 14 1 14 15
M  V30 15 1 15 16
M  V30 16 2 10 17
M  V30 17 1 5 18
M  V30 18 2 18 19
M  V30 19 1 19 20
M  V30 20 2 20 21
M  V30 21 1 20 22
M  V30 22 1 22 23
M  V30 23 2 23 24
M  V30 24 1 24 25
M  V30 25 2 25 26
M  V30 26 1 26 27
M  V30 27 2 27 28
M  V30 28 1 19 2
M  V30 29 1 28 23
M  V30 30 1 17 6
M  V30 31 1 16 11
M  V30 32 1 1 29
M  V30 33 1 1 30
M  V30 34 1 4 31
M  V30 35 1 7 32
M  V30 36 1 8 33
M  V30 37 1 9 34
M  V30 38 1 12 35
M  V30 39 1 12 36
M  V30 40 1 13 37
M  V30 41 1 13 38
M  V30 42 1 14 39
M  V30 43 1 15 40
M  V30 44 1 15 41
M  V30 45 1 16 42
M  V30 46 1 16 43
M  V30 47 1 17 44
M  V30 48 1 22 45
M  V30 49 1 24 46
M  V30 50 1 25 47
M  V30 51 1 27 48
M  V30 52 1 28 49
M  V30 END BOND
M  V30 END CTAB
M  END
>  <Dataset>  (619) 
ChEMBL_Kinases

>  <Ligand_Instance>  (619) 
nan

>  <PDB_ID>  (619) 
nan

>  <Standardized_SMILES>  (619) 
Nc1ncc(-c2cccc(N3CCNCC3)c2)nc1C(=O)Nc1ccncc1

>  <Name>  (619) 
nan

>  <Pocket>  (619) 
nan

>  <ATP_Site>  (619) 
nan

>  <Peripheral>  (619) 
nan

>  <Num_H_Atoms_ProtBoundConf>  (619) 
nan

>  <Num_Resolved_Atoms>  (619) 
nan

>  <Num_Not_Resolved_Atoms>  (619) 
nan

$$$$
CHEMBL45176
     RDKit          3D

  0  0  0  0  0  0  0  0  0  0999 V3000
M  V30 BEGIN CTAB
M  V30 COUNTS 27 29 0 0 0
M  V30 BEGIN ATOM
M  V30 1 C 0.201615 -0.750053 3.994484 0
M  V30 2 O 0.581143 -1.481017 2.866535 0
M  V30 3 C 0.836703 -0.956068 1.607034 0
M  V30 4 C 2.130071 -0.544825 1.267852 0
M  V30 5 C 3.266405 -0.580607 2.037095 0
M  V30 6 C 4.275141 -0.060353 1.236340 0
M  V30 7 O 3.759898 0.260439 0.068975 0
M  V30 8 C 2.481474 -0.007821 0.032717 0
M  V30 9 C 1.479649 0.116821 -0.895679 0
M  V30 10 C 0.193891 -0.280731 -0.588781 0
M  V30 11 O -0.673145 -0.109104 -1.563615 0
M  V30 12 C -1.919698 -0.464234 -1.347512 0
M  V30 13 C -2.967882 -0.299909 -2.410025 0
M  V30 14 C -2.330677 -1.006545 -0.133407 0
M  V30 15 C -1.429043 -1.194697 0.906338 0
M  V30 16 O -1.730178 -1.673140 2.013859 0
M  V30 17 C -0.141476 -0.811356 0.638705 0
M  V30 18 H -0.619164 -1.319811 4.505123 0
M  V30 19 H -0.143930 0.271753 3.789606 0
M  V30 20 H 1.068023 -0.769560 4.691343 0
M  V30 21 H 3.404093 -0.929017 3.055047 0
M  V30 22 H 5.322004 0.074888 1.492951 0
M  V30 23 H 1.752372 0.535698 -1.859923 0
M  V30 24 H -3.487557 0.647084 -2.210738 0
M  V30 25 H -3.638099 -1.185620 -2.354097 0
M  V30 26 H -2.460738 -0.331392 -3.391566 0
M  V30 27 H -3.365232 -1.295186 0.029570 0
M  V30 END ATOM
M  V30 BEGIN BOND
M  V30 1 1 1 2
M  V30 2 1 2 3
M  V30 3 2 3 4
M  V30 4 1 4 5
M  V30 5 2 5 6
M  V30 6 1 6 7
M  V30 7 1 7 8
M  V30 8 2 8 9
M  V30 9 1 9 10
M  V30 10 1 10 11
M  V30 11 1 11 12
M  V30 12 1 12 13
M  V30 13 2 12 14
M  V30 14 1 14 15
M  V30 15 2 15 16
M  V30 16 1 15 17
M  V30 17 1 17 3
M  V30 18 1 8 4
M  V30 19 2 17 10
M  V30 20 1 1 18
M  V30 21 1 1 19
M  V30 22 1 1 20
M  V30 23 1 5 21
M  V30 24 1 6 22
M  V30 25 1 9 23
M  V30 26 1 13 24
M  V30 27 1 13 25
M  V30 28 1 13 26
M  V30 29 1 14 27
M  V30 END BOND
M  V30 END CTAB
M  END
>  <Dataset>  (620) 
ChEMBL_Kinases

>  <Ligand_Instance>  (620) 
nan

>  <PDB_ID>  (620) 
nan

>  <Standardized_SMILES>  (620) 
COc1c2ccoc2cc2oc(C)cc(=O)c12

>  <Name>  (620) 
VISNAGIN

>  <Pocket>  (620) 
nan

>  <ATP_Site>  (620) 
nan

>  <Peripheral>  (620) 
nan

>  <Num_H_Atoms_ProtBoundConf>  (620) 
nan

>  <Num_Resolved_Atoms>  (620) 
nan

>  <Num_Not_Resolved_Atoms>  (620) 
nan

$$$$
CHEMBL4517450
     RDKit          3D

  0  0  0  0  0  0  0  0  0  0999 V3000
M  V30 BEGIN CTAB
M  V30 COUNTS 46 49 0 0 0
M  V30 BEGIN ATOM
M  V30 1 C 3.893187 -4.433551 3.326921 0
M  V30 2 C 3.448899 -3.123748 2.746795 0
M  V30 3 N 3.959603 -2.372318 1.755559 0
M  V30 4 C 3.205922 -1.279580 1.601075 0
M  V30 5 C 3.383304 -0.178673 0.641087 0
M  V30 6 C 2.367307 0.025065 -0.273607 0
M  V30 7 C 2.405511 1.013199 -1.221470 0
M  V30 8 C 3.527225 1.813457 -1.222967 0
M  V30 9 C 4.561890 1.652053 -0.336980 0
M  V30 10 C 4.488296 0.642923 0.606683 0
M  V30 11 C 2.187166 -1.350757 2.529628 0
M  V30 12 C 1.132539 -0.340999 2.695892 0
M  V30 13 C 1.305858 0.969120 3.089646 0
M  V30 14 C 0.231839 1.822957 3.207627 0
M  V30 15 N -1.011022 1.349125 2.927330 0
M  V30 16 C -1.188267 0.073888 2.542881 0
M  V30 17 N -2.513847 -0.420042 2.244114 0
M  V30 18 C -2.696872 -0.160020 0.873653 0
M  V30 19 O -1.860098 0.385477 0.118670 0
M  V30 20 C -3.873673 -0.448977 -0.000045 0
M  V30 21 C -3.602837 0.041881 -1.415388 0
M  V30 22 N -4.707632 -0.218764 -2.288957 0
M  V30 23 C -4.845834 -1.359590 -3.015368 0
M  V30 24 N -5.990837 -1.260858 -3.714903 0
M  V30 25 N -6.551842 -0.111964 -3.444746 0
M  V30 26 N -5.765428 0.515346 -2.577083 0
M  V30 27 C -0.132223 -0.833027 2.407880 0
M  V30 28 N 2.365731 -2.510125 3.227676 0
M  V30 29 H 3.044493 -5.145393 3.234195 0
M  V30 30 H 4.239371 -4.345220 4.360254 0
M  V30 31 H 4.705920 -4.846628 2.670011 0
M  V30 32 H 1.465198 -0.601374 -0.289266 0
M  V30 33 H 1.639480 1.214175 -1.957583 0
M  V30 34 H 3.614411 2.615836 -1.953380 0
M  V30 35 H 5.454776 2.268732 -0.318496 0
M  V30 36 H 5.275794 0.476329 1.323807 0
M  V30 37 H 2.327872 1.248515 3.288472 0
M  V30 38 H 0.404846 2.852797 3.521655 0
M  V30 39 H -3.328207 -0.877994 2.686410 0
M  V30 40 H -4.820311 -0.094874 0.404764 0
M  V30 41 H -3.927651 -1.566368 -0.068577 0
M  V30 42 H -3.362737 1.121904 -1.305651 0
M  V30 43 H -2.714340 -0.486669 -1.794978 0
M  V30 44 H -4.164725 -2.195832 -3.032463 0
M  V30 45 H -0.358054 -1.848596 2.092349 0
M  V30 46 H 1.668297 -2.737307 3.994776 0
M  V30 END ATOM
M  V30 BEGIN BOND
M  V30 1 1 1 2
M  V30 2 2 2 3
M  V30 3 1 3 4
M  V30 4 1 4 5
M  V30 5 2 5 6
M  V30 6 1 6 7
M  V30 7 2 7 8
M  V30 8 1 8 9
M  V30 9 2 9 10
M  V30 10 2 4 11
M  V30 11 1 11 12
M  V30 12 2 12 13
M  V30 13 1 13 14
M  V30 14 2 14 15
M  V30 15 1 15 16
M  V30 16 1 16 17
M  V30 17 1 17 18
M  V30 18 2 18 19
M  V30 19 1 18 20
M  V30 20 1 20 21
M  V30 21 1 21 22
M  V30 22 1 22 23
M  V30 23 2 23 24
M  V30 24 1 24 25
M  V30 25 2 25 26
M  V30 26 2 16 27
M  V30 27 1 11 28
M  V30 28 1 28 2
M  V30 29 1 10 5
M  V30 30 1 27 12
M  V30 31 1 26 22
M  V30 32 1 1 29
M  V30 33 1 1 30
M  V30 34 1 1 31
M  V30 35 1 6 32
M  V30 36 1 7 33
M  V30 37 1 8 34
M  V30 38 1 9 35
M  V30 39 1 10 36
M  V30 40 1 13 37
M  V30 41 1 14 38
M  V30 42 1 17 39
M  V30 43 1 20 40
M  V30 44 1 20 41
M  V30 45 1 21 42
M  V30 46 1 21 43
M  V30 47 1 23 44
M  V30 48 1 27 45
M  V30 49 1 28 46
M  V30 END BOND
M  V30 END CTAB
M  END
>  <Dataset>  (621) 
ChEMBL_Kinases

>  <Ligand_Instance>  (621) 
nan

>  <PDB_ID>  (621) 
nan

>  <Standardized_SMILES>  (621) 
Cc1nc(-c2ccccc2)c(-c2ccnc(NC(=O)CCn3cnnn3)c2)[nH]1

>  <Name>  (621) 
nan

>  <Pocket>  (621) 
nan

>  <ATP_Site>  (621) 
nan

>  <Peripheral>  (621) 
nan

>  <Num_H_Atoms_ProtBoundConf>  (621) 
nan

>  <Num_Resolved_Atoms>  (621) 
nan

>  <Num_Not_Resolved_Atoms>  (621) 
nan

$$$$
CHEMBL4647810
     RDKit          3D

  0  0  0  0  0  0  0  0  0  0999 V3000
M  V30 BEGIN CTAB
M  V30 COUNTS 49 53 0 0 0
M  V30 BEGIN ATOM
M  V30 1 C 0.742239 -3.759277 2.009872 0
M  V30 2 C 1.642016 -3.126364 0.958996 0 CFG=2
M  V30 3 C 2.983738 -3.784977 0.994523 0
M  V30 4 O 4.008009 -3.049242 0.417572 0
M  V30 5 C 4.119558 -1.772525 0.943899 0
M  V30 6 C 2.950559 -1.400275 1.817218 0
M  V30 7 N 1.686353 -1.721871 1.257129 0
M  V30 8 C 0.586574 -0.864878 0.995394 0
M  V30 9 C 0.630906 0.487892 1.247486 0
M  V30 10 C -0.425859 1.377499 1.008845 0
M  V30 11 C -0.244565 2.790988 1.316601 0
M  V30 12 C -0.944749 3.757560 1.980948 0
M  V30 13 C -0.272934 4.954927 1.937501 0
M  V30 14 N 0.840771 4.685417 1.235628 0
M  V30 15 N 0.877170 3.417672 0.860739 0
M  V30 16 C 1.987977 2.885322 0.084329 0
M  V30 17 C -1.548582 0.772438 0.484792 0
M  V30 18 C -2.616912 1.602447 0.224328 0
M  V30 19 C -3.757205 1.056257 -0.301194 0
M  V30 20 N -3.813060 -0.241377 -0.546853 0
M  V30 21 C -2.790767 -1.078711 -0.305641 0
M  V30 22 C -2.936849 -2.496714 -0.605816 0
M  V30 23 C -4.101396 -3.057772 -1.143494 0
M  V30 24 C -3.968411 -4.412768 -1.327717 0
M  V30 25 N -2.737473 -4.675962 -0.907583 0
M  V30 26 N -2.154941 -3.568527 -0.495507 0
M  V30 27 C -1.622934 -0.576898 0.222367 0
M  V30 28 N -0.554686 -1.349109 0.486051 0
M  V30 29 H 0.056024 -3.016271 2.438454 0
M  V30 30 H 1.406707 -4.143030 2.804688 0
M  V30 31 H 0.199070 -4.613339 1.534417 0
M  V30 32 H 1.171930 -3.273430 -0.051551 0
M  V30 33 H 3.256915 -4.133895 2.031196 0
M  V30 34 H 2.908316 -4.723429 0.390618 0
M  V30 35 H 4.178799 -1.064629 0.091816 0
M  V30 36 H 5.057627 -1.652300 1.523781 0
M  V30 37 H 3.099185 -1.941742 2.793758 0
M  V30 38 H 3.024952 -0.331762 2.081217 0
M  V30 39 H 1.529798 0.939629 1.663045 0
M  V30 40 H -1.872941 3.551409 2.453126 0
M  V30 41 H -0.642361 5.861104 2.398508 0
M  V30 42 H 1.666908 1.970312 -0.490515 0
M  V30 43 H 2.849025 2.715177 0.741022 0
M  V30 44 H 2.288989 3.679211 -0.648457 0
M  V30 45 H -2.597664 2.652512 0.406704 0
M  V30 46 H -4.605144 1.673451 -0.514896 0
M  V30 47 H -5.015280 -2.511138 -1.394614 0
M  V30 48 H -4.741995 -5.066699 -1.733571 0
M  V30 49 H -1.190505 -3.529764 -0.123560 0
M  V30 END ATOM
M  V30 BEGIN BOND
M  V30 1 1 1 2
M  V30 2 1 2 3
M  V30 3 1 3 4
M  V30 4 1 4 5
M  V30 5 1 5 6
M  V30 6 1 6 7
M  V30 7 1 7 8
M  V30 8 2 8 9
M  V30 9 1 9 10
M  V30 10 1 10 11
M  V30 11 2 11 12
M  V30 12 1 12 13
M  V30 13 2 13 14
M  V30 14 1 14 15
M  V30 15 1 15 16
M  V30 16 2 10 17
M  V30 17 1 17 18
M  V30 18 2 18 19
M  V30 19 1 19 20
M  V30 20 2 20 21
M  V30 21 1 21 22
M  V30 22 2 22 23
M  V30 23 1 23 24
M  V30 24 2 24 25
M  V30 25 1 25 26
M  V30 26 1 21 27
M  V30 27 2 27 28
M  V30 28 1 7 2
M  V30 29 1 28 8
M  V30 30 1 15 11
M  V30 31 1 27 17
M  V30 32 1 26 22
M  V30 33 1 1 29
M  V30 34 1 1 30
M  V30 35 1 1 31
M  V30 36 1 2 32 CFG=3
M  V30 37 1 3 33
M  V30 38 1 3 34
M  V30 39 1 5 35
M  V30 40 1 5 36
M  V30 41 1 6 37
M  V30 42 1 6 38
M  V30 43 1 9 39
M  V30 44 1 12 40
M  V30 45 1 13 41
M  V30 46 1 16 42
M  V30 47 1 16 43
M  V30 48 1 16 44
M  V30 49 1 18 45
M  V30 50 1 19 46
M  V30 51 1 23 47
M  V30 52 1 24 48
M  V30 53 1 26 49
M  V30 END BOND
M  V30 END CTAB
M  END
>  <Dataset>  (622) 
ChEMBL_Kinases

>  <Ligand_Instance>  (622) 
nan

>  <PDB_ID>  (622) 
nan

>  <Standardized_SMILES>  (622) 
C[C@@H]1COCCN1c1cc(-c2ccnn2C)c2ccnc(-c3ccn[nH]3)c2n1

>  <Name>  (622) 
ELIMUSERTIB

>  <Pocket>  (622) 
nan

>  <ATP_Site>  (622) 
nan

>  <Peripheral>  (622) 
nan

>  <Num_H_Atoms_ProtBoundConf>  (622) 
nan

>  <Num_Resolved_Atoms>  (622) 
nan

>  <Num_Not_Resolved_Atoms>  (622) 
nan

$$$$
CHEMBL4647622
     RDKit          3D

  0  0  0  0  0  0  0  0  0  0999 V3000
M  V30 BEGIN CTAB
M  V30 COUNTS 40 42 0 0 0
M  V30 BEGIN ATOM
M  V30 1 C 0.575169 -3.415968 -1.150668 0
M  V30 2 C 1.787211 -3.757764 -0.359890 0
M  V30 3 C 1.448178 -3.553805 1.119139 0
M  V30 4 N 2.950104 -2.974242 -0.625797 0
M  V30 5 C 4.255781 -3.367265 -0.595512 0
M  V30 6 N 5.007958 -2.292188 -0.914329 0
M  V30 7 N 4.240610 -1.259243 -1.139344 0
M  V30 8 C 2.971715 -1.675394 -0.962577 0
M  V30 9 C 1.864739 -0.743874 -1.142823 0
M  V30 10 C 1.576841 -0.401117 -2.458778 0
M  V30 11 C 0.570663 0.462808 -2.839221 0
M  V30 12 C -0.194707 1.016812 -1.825687 0
M  V30 13 C 0.105737 0.664658 -0.522357 0
M  V30 14 N -0.630568 1.187731 0.577737 0
M  V30 15 C -0.415759 0.902190 1.937032 0
M  V30 16 O 0.512190 0.110120 2.229538 0
M  V30 17 C -1.245556 1.507650 2.975123 0
M  V30 18 C -1.126840 1.301633 4.336944 0
M  V30 19 C -2.126738 2.086740 4.886086 0
M  V30 20 N -2.810375 2.731266 3.898576 0
M  V30 21 C -3.934694 3.650879 4.050649 0
M  V30 22 N -2.256996 2.362889 2.758150 0
M  V30 23 N 1.091985 -0.178360 -0.197313 0
M  V30 24 H -0.074843 -4.335948 -1.237649 0
M  V30 25 H -0.098520 -2.663051 -0.695586 0
M  V30 26 H 0.838927 -3.194848 -2.214307 0
M  V30 27 H 1.981558 -4.863570 -0.480116 0
M  V30 28 H 2.317086 -3.753153 1.768142 0
M  V30 29 H 0.974982 -2.568617 1.256378 0
M  V30 30 H 0.649371 -4.309033 1.374372 0
M  V30 31 H 4.611439 -4.366340 -0.356785 0
M  V30 32 H 2.153305 -0.812222 -3.300268 0
M  V30 33 H 0.380878 0.701993 -3.873845 0
M  V30 34 H -1.003756 1.702778 -2.021730 0
M  V30 35 H -1.419854 1.858365 0.367574 0
M  V30 36 H -0.397424 0.660359 4.803730 0
M  V30 37 H -2.328986 2.169326 5.961353 0
M  V30 38 H -4.605229 3.533066 3.189710 0
M  V30 39 H -4.475537 3.356667 4.980108 0
M  V30 40 H -3.516567 4.669626 4.150070 0
M  V30 END ATOM
M  V30 BEGIN BOND
M  V30 1 1 1 2
M  V30 2 1 2 3
M  V30 3 1 2 4
M  V30 4 1 4 5
M  V30 5 2 5 6
M  V30 6 1 6 7
M  V30 7 2 7 8
M  V30 8 1 8 9
M  V30 9 2 9 10
M  V30 10 1 10 11
M  V30 11 2 11 12
M  V30 12 1 12 13
M  V30 13 1 13 14
M  V30 14 1 14 15
M  V30 15 2 15 16
M  V30 16 1 15 17
M  V30 17 1 17 18
M  V30 18 2 18 19
M  V30 19 1 19 20
M  V30 20 1 20 21
M  V30 21 1 20 22
M  V30 22 2 13 23
M  V30 23 1 8 4
M  V30 24 1 23 9
M  V30 25 2 22 17
M  V30 26 1 1 24
M  V30 27 1 1 25
M  V30 28 1 1 26
M  V30 29 1 2 27
M  V30 30 1 3 28
M  V30 31 1 3 29
M  V30 32 1 3 30
M  V30 33 1 5 31
M  V30 34 1 10 32
M  V30 35 1 11 33
M  V30 36 1 12 34
M  V30 37 1 14 35
M  V30 38 1 18 36
M  V30 39 1 19 37
M  V30 40 1 21 38
M  V30 41 1 21 39
M  V30 42 1 21 40
M  V30 END BOND
M  V30 END CTAB
M  END
>  <Dataset>  (623) 
ChEMBL_Kinases

>  <Ligand_Instance>  (623) 
nan

>  <PDB_ID>  (623) 
nan

>  <Standardized_SMILES>  (623) 
CC(C)n1cnnc1-c1cccc(NC(=O)c2ccn(C)n2)n1

>  <Name>  (623) 
nan

>  <Pocket>  (623) 
nan

>  <ATP_Site>  (623) 
nan

>  <Peripheral>  (623) 
nan

>  <Num_H_Atoms_ProtBoundConf>  (623) 
nan

>  <Num_Resolved_Atoms>  (623) 
nan

>  <Num_Not_Resolved_Atoms>  (623) 
nan

$$$$
CHEMBL4646785
     RDKit          3D

  0  0  0  0  0  0  0  0  0  0999 V3000
M  V30 BEGIN CTAB
M  V30 COUNTS 58 62 0 0 0
M  V30 BEGIN ATOM
M  V30 1 C 1.338856 -7.160583 3.591203 0
M  V30 2 C 1.330839 -6.350793 2.328414 0
M  V30 3 C 1.953721 -5.145006 2.208458 0
M  V30 4 C 1.917197 -4.439143 0.997167 0
M  V30 5 C 2.571998 -3.141858 0.853063 0
M  V30 6 C 3.714603 -2.735503 1.507885 0
M  V30 7 C 4.220453 -1.474252 1.268877 0
M  V30 8 C 3.585513 -0.632664 0.381963 0
M  V30 9 N 3.906441 0.640224 0.002297 0
M  V30 10 C 2.960919 1.031382 -0.894824 0
M  V30 11 N 2.508724 2.108424 -1.727026 0
M  V30 12 C 1.383499 2.857896 -1.214887 0
M  V30 13 C 0.835971 2.420272 -0.005992 0
M  V30 14 C -0.264717 3.150634 0.468059 0
M  V30 15 C -0.766919 4.237539 -0.228956 0
M  V30 16 C -1.921608 4.884077 0.390234 0
M  V30 17 O -2.224482 5.983682 0.880603 0
M  V30 18 N -3.007292 3.934923 0.422353 0
M  V30 19 C -4.298438 4.227273 0.956845 0
M  V30 20 C -5.053107 3.004046 1.401791 0
M  V30 21 O -5.334931 2.136586 0.367053 0
M  V30 22 C -4.430523 2.344908 -0.668332 0
M  V30 23 C -3.080086 2.568746 -0.026266 0
M  V30 24 C -0.202611 4.641569 -1.415031 0
M  V30 25 C 0.863033 3.944211 -1.887064 0
M  V30 26 N 2.101361 -0.002033 -1.034798 0
M  V30 27 N 2.467722 -1.030739 -0.259148 0
M  V30 28 C 1.961502 -2.272123 -0.029376 0
M  V30 29 C 1.230484 -5.009892 -0.058875 0
M  V30 30 C 0.585182 -6.233766 0.025888 0
M  V30 31 C -0.155546 -6.843248 -1.114885 0
M  V30 32 C 0.647236 -6.894946 1.237905 0
M  V30 33 O 0.007534 -8.139032 1.369455 0
M  V30 34 H 0.610979 -7.970577 3.537453 0
M  V30 35 H 2.374633 -7.543113 3.737557 0
M  V30 36 H 1.049437 -6.513345 4.439123 0
M  V30 37 H 2.479700 -4.741315 3.062526 0
M  V30 38 H 4.167372 -3.435436 2.190856 0
M  V30 39 H 5.101047 -1.119761 1.754485 0
M  V30 40 H 2.890073 2.425503 -2.664641 0
M  V30 41 H 1.181507 1.586747 0.571806 0
M  V30 42 H -0.698969 2.820417 1.406403 0
M  V30 43 H -4.257684 5.013279 1.723780 0
M  V30 44 H -4.894189 4.693855 0.114232 0
M  V30 45 H -5.997016 3.301746 1.918526 0
M  V30 46 H -4.403983 2.461638 2.127878 0
M  V30 47 H -4.396421 1.449752 -1.333120 0
M  V30 48 H -4.665366 3.229261 -1.280057 0
M  V30 49 H -2.255351 2.291938 -0.717833 0
M  V30 50 H -2.983893 1.834410 0.816223 0
M  V30 51 H -0.627005 5.502846 -1.927894 0
M  V30 52 H 1.340976 4.211564 -2.796833 0
M  V30 53 H 1.067058 -2.464957 -0.605965 0
M  V30 54 H 1.163591 -4.520658 -1.023566 0
M  V30 55 H 0.105945 -6.304099 -2.059100 0
M  V30 56 H 0.119488 -7.913753 -1.170568 0
M  V30 57 H -1.254184 -6.696087 -0.959401 0
M  V30 58 H -0.825662 -8.248512 1.931339 0
M  V30 END ATOM
M  V30 BEGIN BOND
M  V30 1 1 1 2
M  V30 2 2 2 3
M  V30 3 1 3 4
M  V30 4 1 4 5
M  V30 5 1 5 6
M  V30 6 2 6 7
M  V30 7 1 7 8
M  V30 8 2 8 9
M  V30 9 1 9 10
M  V30 10 1 10 11
M  V30 11 1 11 12
M  V30 12 2 12 13
M  V30 13 1 13 14
M  V30 14 2 14 15
M  V30 15 1 15 16
M  V30 16 2 16 17
M  V30 17 1 16 18
M  V30 18 1 18 19
M  V30 19 1 19 20
M  V30 20 1 20 21
M  V30 21 1 21 22
M  V30 22 1 22 23
M  V30 23 1 15 24
M  V30 24 2 24 25
M  V30 25 2 10 26
M  V30 26 1 26 27
M  V30 27 1 27 28
M  V30 28 2 4 29
M  V30 29 1 29 30
M  V30 30 1 30 31
M  V30 31 2 30 32
M  V30 32 1 32 33
M  V30 33 1 32 2
M  V30 34 2 28 5
M  V30 35 1 27 8
M  V30 36 1 25 12
M  V30 37 1 23 18
M  V30 38 1 1 34
M  V30 39 1 1 35
M  V30 40 1 1 36
M  V30 41 1 3 37
M  V30 42 1 6 38
M  V30 43 1 7 39
M  V30 44 1 11 40
M  V30 45 1 13 41
M  V30 46 1 14 42
M  V30 47 1 19 43
M  V30 48 1 19 44
M  V30 49 1 20 45
M  V30 50 1 20 46
M  V30 51 1 22 47
M  V30 52 1 22 48
M  V30 53 1 23 49
M  V30 54 1 23 50
M  V30 55 1 24 51
M  V30 56 1 25 52
M  V30 57 1 28 53
M  V30 58 1 29 54
M  V30 59 1 31 55
M  V30 60 1 31 56
M  V30 61 1 31 57
M  V30 62 1 33 58
M  V30 END BOND
M  V30 END CTAB
M  END
>  <Dataset>  (624) 
ChEMBL_Kinases

>  <Ligand_Instance>  (624) 
nan

>  <PDB_ID>  (624) 
nan

>  <Standardized_SMILES>  (624) 
Cc1cc(-c2ccc3nc(Nc4ccc(C(=O)N5CCOCC5)cc4)nn3c2)cc(C)c1O

>  <Name>  (624) 
nan

>  <Pocket>  (624) 
nan

>  <ATP_Site>  (624) 
nan

>  <Peripheral>  (624) 
nan

>  <Num_H_Atoms_ProtBoundConf>  (624) 
nan

>  <Num_Resolved_Atoms>  (624) 
nan

>  <Num_Not_Resolved_Atoms>  (624) 
nan

$$$$
CHEMBL4520049
     RDKit          3D

  0  0  0  0  0  0  0  0  0  0999 V3000
M  V30 BEGIN CTAB
M  V30 COUNTS 38 40 0 0 0
M  V30 BEGIN ATOM
M  V30 1 C -0.687975 -3.825595 2.621126 0
M  V30 2 C 0.410488 -2.757331 2.537336 0
M  V30 3 C 0.512947 -2.266179 3.998666 0
M  V30 4 C 1.679257 -3.565216 2.289324 0
M  V30 5 N 0.139251 -1.731835 1.598753 0
M  V30 6 C -0.113008 -0.690185 0.660280 0
M  V30 7 N 0.698025 0.345048 0.403100 0
M  V30 8 C 0.486388 1.326142 -0.467082 0
M  V30 9 C 1.440854 2.409089 -0.668234 0
M  V30 10 C 1.077274 3.350954 -1.606249 0
M  V30 11 C 1.954854 4.394047 -1.826285 0
M  V30 12 N 3.104903 4.445921 -1.129670 0
M  V30 13 C 3.420118 3.503940 -0.222561 0
M  V30 14 C 2.605298 2.417922 0.069771 0
M  V30 15 Cl 3.005019 1.189929 1.245489 0
M  V30 16 N -0.670577 1.200483 -1.112285 0
M  V30 17 C -1.569377 0.224311 -0.955397 0
M  V30 18 C -2.689477 0.336782 -1.754884 0
M  V30 19 N -3.630139 -0.644452 -1.620280 0
M  V30 20 C -3.418025 -1.652279 -0.729668 0
M  V30 21 C -2.278732 -1.703613 0.036228 0
M  V30 22 C -1.291379 -0.758598 -0.041461 0
M  V30 23 H -0.785557 -4.284727 1.603885 0
M  V30 24 H -0.329552 -4.639840 3.277367 0
M  V30 25 H -1.660220 -3.425368 2.900968 0
M  V30 26 H 0.380399 -3.135263 4.673554 0
M  V30 27 H -0.188292 -1.437916 4.188859 0
M  V30 28 H 1.583382 -1.946668 4.148758 0
M  V30 29 H 1.926481 -3.628430 1.220411 0
M  V30 30 H 2.545558 -3.102949 2.810100 0
M  V30 31 H 1.597464 -4.601902 2.671504 0
M  V30 32 H 1.084553 -1.404094 1.963629 0
M  V30 33 H 0.134097 3.270634 -2.149416 0
M  V30 34 H 1.735015 5.174272 -2.551470 0
M  V30 35 H 4.372076 3.590883 0.321012 0
M  V30 36 H -2.830644 1.143080 -2.449067 0
M  V30 37 H -4.155264 -2.444264 -0.607014 0
M  V30 38 H -2.120764 -2.497866 0.733084 0
M  V30 END ATOM
M  V30 BEGIN BOND
M  V30 1 1 1 2
M  V30 2 1 2 3
M  V30 3 1 2 4
M  V30 4 1 2 5
M  V30 5 1 5 6
M  V30 6 2 6 7
M  V30 7 1 7 8
M  V30 8 1 8 9
M  V30 9 2 9 10
M  V30 10 1 10 11
M  V30 11 2 11 12
M  V30 12 1 12 13
M  V30 13 2 13 14
M  V30 14 1 14 15
M  V30 15 2 8 16
M  V30 16 1 16 17
M  V30 17 2 17 18
M  V30 18 1 18 19
M  V30 19 2 19 20
M  V30 20 1 20 21
M  V30 21 2 21 22
M  V30 22 1 22 6
M  V30 23 1 14 9
M  V30 24 1 22 17
M  V30 25 1 1 23
M  V30 26 1 1 24
M  V30 27 1 1 25
M  V30 28 1 3 26
M  V30 29 1 3 27
M  V30 30 1 3 28
M  V30 31 1 4 29
M  V30 32 1 4 30
M  V30 33 1 4 31
M  V30 34 1 5 32
M  V30 35 1 10 33
M  V30 36 1 11 34
M  V30 37 1 13 35
M  V30 38 1 18 36
M  V30 39 1 20 37
M  V30 40 1 21 38
M  V30 END BOND
M  V30 END CTAB
M  END
>  <Dataset>  (625) 
ChEMBL_Kinases

>  <Ligand_Instance>  (625) 
nan

>  <PDB_ID>  (625) 
nan

>  <Standardized_SMILES>  (625) 
CC(C)(C)Nc1nc(-c2ccncc2Cl)nc2cnccc12

>  <Name>  (625) 
nan

>  <Pocket>  (625) 
nan

>  <ATP_Site>  (625) 
nan

>  <Peripheral>  (625) 
nan

>  <Num_H_Atoms_ProtBoundConf>  (625) 
nan

>  <Num_Resolved_Atoms>  (625) 
nan

>  <Num_Not_Resolved_Atoms>  (625) 
nan

$$$$
CHEMBL4520021
     RDKit          3D

  0  0  0  0  0  0  0  0  0  0999 V3000
M  V30 BEGIN CTAB
M  V30 COUNTS 39 41 0 0 0
M  V30 BEGIN ATOM
M  V30 1 C -1.128979 -4.271575 1.287595 0
M  V30 2 C 0.154119 -3.440289 1.398720 0
M  V30 3 C 0.611843 -3.727147 2.845886 0
M  V30 4 C 1.130592 -4.214231 0.483783 0
M  V30 5 N 0.016593 -2.085010 1.068692 0
M  V30 6 C -0.122295 -0.712902 0.734649 0
M  V30 7 C 0.864320 0.247336 0.763617 0
M  V30 8 C 0.725409 1.564531 0.442653 0
M  V30 9 C 1.820589 2.516966 0.499690 0
M  V30 10 C 3.109525 2.285257 0.862386 0
M  V30 11 C 4.080263 3.250565 0.886495 0
M  V30 12 N 3.721786 4.490511 0.528756 0
M  V30 13 C 2.466771 4.801906 0.156842 0
M  V30 14 C 1.508877 3.810838 0.141492 0
M  V30 15 F 0.262504 4.186299 -0.242227 0
M  V30 16 N -0.517870 1.875768 0.074082 0
M  V30 17 C -1.548440 1.036910 0.007977 0
M  V30 18 C -2.729020 1.621319 -0.405454 0
M  V30 19 N -3.828921 0.816655 -0.496284 0
M  V30 20 C -3.721729 -0.487396 -0.185826 0
M  V30 21 C -2.515761 -1.009585 0.220132 0
M  V30 22 C -1.359039 -0.283587 0.341926 0
M  V30 23 H -0.817740 -5.294053 1.586331 0
M  V30 24 H -1.504181 -4.335896 0.265245 0
M  V30 25 H -1.866542 -3.946692 2.048869 0
M  V30 26 H 0.812147 -4.819829 2.857917 0
M  V30 27 H 1.509794 -3.125142 3.074619 0
M  V30 28 H -0.255818 -3.541666 3.487099 0
M  V30 29 H 2.105286 -3.721336 0.417587 0
M  V30 30 H 1.275705 -5.214428 0.929982 0
M  V30 31 H 0.601657 -4.332061 -0.488634 0
M  V30 32 H 1.010717 -2.115343 1.315982 0
M  V30 33 H 1.865151 -0.047705 1.069902 0
M  V30 34 H 3.376643 1.281365 1.146523 0
M  V30 35 H 5.086630 2.993049 1.186455 0
M  V30 36 H 2.240572 5.828059 -0.122176 0
M  V30 37 H -2.815881 2.668705 -0.654883 0
M  V30 38 H -4.577825 -1.139831 -0.250799 0
M  V30 39 H -2.460488 -2.051141 0.460513 0
M  V30 END ATOM
M  V30 BEGIN BOND
M  V30 1 1 1 2
M  V30 2 1 2 3
M  V30 3 1 2 4
M  V30 4 1 2 5
M  V30 5 1 5 6
M  V30 6 2 6 7
M  V30 7 1 7 8
M  V30 8 1 8 9
M  V30 9 2 9 10
M  V30 10 1 10 11
M  V30 11 2 11 12
M  V30 12 1 12 13
M  V30 13 2 13 14
M  V30 14 1 14 15
M  V30 15 2 8 16
M  V30 16 1 16 17
M  V30 17 2 17 18
M  V30 18 1 18 19
M  V30 19 2 19 20
M  V30 20 1 20 21
M  V30 21 2 21 22
M  V30 22 1 22 6
M  V30 23 1 14 9
M  V30 24 1 22 17
M  V30 25 1 1 23
M  V30 26 1 1 24
M  V30 27 1 1 25
M  V30 28 1 3 26
M  V30 29 1 3 27
M  V30 30 1 3 28
M  V30 31 1 4 29
M  V30 32 1 4 30
M  V30 33 1 4 31
M  V30 34 1 5 32
M  V30 35 1 7 33
M  V30 36 1 10 34
M  V30 37 1 11 35
M  V30 38 1 13 36
M  V30 39 1 18 37
M  V30 40 1 20 38
M  V30 41 1 21 39
M  V30 END BOND
M  V30 END CTAB
M  END
>  <Dataset>  (626) 
ChEMBL_Kinases

>  <Ligand_Instance>  (626) 
nan

>  <PDB_ID>  (626) 
nan

>  <Standardized_SMILES>  (626) 
CC(C)(C)Nc1cc(-c2ccncc2F)nc2cnccc12

>  <Name>  (626) 
nan

>  <Pocket>  (626) 
nan

>  <ATP_Site>  (626) 
nan

>  <Peripheral>  (626) 
nan

>  <Num_H_Atoms_ProtBoundConf>  (626) 
nan

>  <Num_Resolved_Atoms>  (626) 
nan

>  <Num_Not_Resolved_Atoms>  (626) 
nan

$$$$
CHEMBL4646793
     RDKit          3D

  0  0  0  0  0  0  0  0  0  0999 V3000
M  V30 BEGIN CTAB
M  V30 COUNTS 63 66 0 0 0
M  V30 BEGIN ATOM
M  V30 1 C 1.926865 -5.242661 4.141878 0
M  V30 2 C 1.048604 -4.497483 3.113858 0
M  V30 3 O 1.544047 -3.206725 2.957699 0
M  V30 4 C 1.074590 -2.198907 2.155144 0
M  V30 5 O 0.308591 -3.146211 1.951158 0
M  V30 6 C 1.652852 -0.893922 2.058415 0
M  V30 7 C 2.799183 -0.738448 2.833033 0
M  V30 8 N 3.383979 0.453102 2.745888 0
M  V30 9 C 2.931612 1.432396 1.989084 0
M  V30 10 C 3.623239 2.610355 1.984759 0
M  V30 11 C 3.211987 3.679259 1.218377 0
M  V30 12 C 2.074921 3.491152 0.465316 0
M  V30 13 C 1.577529 4.593585 -0.379185 0
M  V30 14 C 2.162243 5.817115 -0.483551 0
M  V30 15 C 1.548948 6.738015 -1.333749 0
M  V30 16 N 0.437737 6.534392 -2.058699 0
M  V30 17 C -0.149242 5.337807 -1.967556 0
M  V30 18 C 0.424745 4.378293 -1.129780 0
M  V30 19 N 1.417091 2.322476 0.490566 0
M  V30 20 C 1.803596 1.272684 1.230472 0
M  V30 21 C 1.116906 0.077618 1.244974 0
M  V30 22 N -0.052354 -0.078745 0.487136 0
M  V30 23 C -1.132469 -0.895582 0.125194 0 CFG=1
M  V30 24 C -2.117140 -1.162515 1.246893 0
M  V30 25 C -2.846608 -2.425047 0.825045 0
M  V30 26 C -3.642415 -2.222551 -0.426212 0 CFG=2
M  V30 27 C -3.789813 -3.548041 -1.137280 0
M  V30 28 N -2.627186 -4.196102 -1.546612 0
M  V30 29 C -1.820209 -3.689533 -2.571097 0
M  V30 30 C -2.033932 -5.211354 -0.787858 0
M  V30 31 C -3.200770 -1.119527 -1.295863 0
M  V30 32 C -1.972216 -0.388035 -1.025950 0
M  V30 33 H 2.380551 -4.469867 4.794520 0
M  V30 34 H 2.751383 -5.698552 3.559345 0
M  V30 35 H 1.327898 -5.980900 4.675378 0
M  V30 36 H -0.012377 -4.518145 3.463052 0
M  V30 37 H 1.145750 -5.035749 2.134490 0
M  V30 38 H 3.210844 -1.504624 3.468476 0
M  V30 39 H 4.504115 2.723341 2.581244 0
M  V30 40 H 3.788755 4.583617 1.248603 0
M  V30 41 H 3.042073 6.035532 0.065546 0
M  V30 42 H 2.013917 7.725379 -1.423059 0
M  V30 43 H -1.042935 5.123177 -2.527971 0
M  V30 44 H -0.049880 3.409935 -1.056405 0
M  V30 45 H -0.254510 0.790307 -0.086895 0
M  V30 46 H -0.721765 -1.886259 -0.183941 0
M  V30 47 H -1.677765 -1.324923 2.221361 0
M  V30 48 H -2.886657 -0.329662 1.260625 0
M  V30 49 H -3.460434 -2.765523 1.681814 0
M  V30 50 H -2.074824 -3.194267 0.651889 0
M  V30 51 H -4.684921 -2.005455 -0.064130 0
M  V30 52 H -4.486996 -3.329168 -1.999303 0
M  V30 53 H -4.422911 -4.214640 -0.467108 0
M  V30 54 H -1.098916 -4.509545 -2.878869 0
M  V30 55 H -1.147333 -2.843019 -2.326811 0
M  V30 56 H -2.355045 -3.459459 -3.522323 0
M  V30 57 H -1.917941 -6.125572 -1.447855 0
M  V30 58 H -0.968065 -4.933607 -0.534061 0
M  V30 59 H -2.603759 -5.548678 0.099948 0
M  V30 60 H -4.026805 -0.349015 -1.411023 0
M  V30 61 H -3.156360 -1.539763 -2.346405 0
M  V30 62 H -2.145187 0.697669 -0.789518 0
M  V30 63 H -1.310278 -0.331988 -1.941818 0
M  V30 END ATOM
M  V30 BEGIN BOND
M  V30 1 1 1 2
M  V30 2 1 2 3
M  V30 3 1 3 4
M  V30 4 2 4 5
M  V30 5 1 4 6
M  V30 6 2 6 7
M  V30 7 1 7 8
M  V30 8 2 8 9
M  V30 9 1 9 10
M  V30 10 2 10 11
M  V30 11 1 11 12
M  V30 12 1 12 13
M  V30 13 2 13 14
M  V30 14 1 14 15
M  V30 15 2 15 16
M  V30 16 1 16 17
M  V30 17 2 17 18
M  V30 18 2 12 19
M  V30 19 1 19 20
M  V30 20 2 20 21
M  V30 21 1 21 22
M  V30 22 1 22 23
M  V30 23 1 23 24
M  V30 24 1 24 25
M  V30 25 1 25 26
M  V30 26 1 26 27
M  V30 27 1 27 28
M  V30 28 1 28 29
M  V30 29 1 28 30
M  V30 30 1 26 31
M  V30 31 1 31 32
M  V30 32 1 21 6
M  V30 33 1 32 23
M  V30 34 1 20 9
M  V30 35 1 18 13
M  V30 36 1 1 33
M  V30 37 1 1 34
M  V30 38 1 1 35
M  V30 39 1 2 36
M  V30 40 1 2 37
M  V30 41 1 7 38
M  V30 42 1 10 39
M  V30 43 1 11 40
M  V30 44 1 14 41
M  V30 45 1 15 42
M  V30 46 1 17 43
M  V30 47 1 18 44
M  V30 48 1 22 45
M  V30 49 1 23 46 CFG=3
M  V30 50 1 24 47
M  V30 51 1 24 48
M  V30 52 1 25 49
M  V30 53 1 25 50
M  V30 54 1 26 51 CFG=1
M  V30 55 1 27 52
M  V30 56 1 27 53
M  V30 57 1 29 54
M  V30 58 1 29 55
M  V30 59 1 29 56
M  V30 60 1 30 57
M  V30 61 1 30 58
M  V30 62 1 30 59
M  V30 63 1 31 60
M  V30 64 1 31 61
M  V30 65 1 32 62
M  V30 66 1 32 63
M  V30 END BOND
M  V30 END CTAB
M  END
>  <Dataset>  (627) 
ChEMBL_Kinases

>  <Ligand_Instance>  (627) 
nan

>  <PDB_ID>  (627) 
nan

>  <Standardized_SMILES>  (627) 
CCOC(=O)c1cnc2ccc(-c3ccncc3)nc2c1N[C@H]1CC[C@H](CN(C)C)CC1

>  <Name>  (627) 
nan

>  <Pocket>  (627) 
nan

>  <ATP_Site>  (627) 
nan

>  <Peripheral>  (627) 
nan

>  <Num_H_Atoms_ProtBoundConf>  (627) 
nan

>  <Num_Resolved_Atoms>  (627) 
nan

>  <Num_Not_Resolved_Atoms>  (627) 
nan

$$$$
CHEMBL4519793
     RDKit          3D

  0  0  0  0  0  0  0  0  0  0999 V3000
M  V30 BEGIN CTAB
M  V30 COUNTS 60 64 0 0 0
M  V30 BEGIN ATOM
M  V30 1 C 5.271657 1.421355 1.919691 0
M  V30 2 N 5.421097 2.860610 1.763119 0
M  V30 3 N 6.620376 3.406783 1.997412 0
M  V30 4 C 6.565315 4.729161 1.791113 0
M  V30 5 C 5.259355 4.926291 1.420919 0
M  V30 6 Cl 4.853149 6.581483 1.081656 0
M  V30 7 C 4.522607 3.777484 1.395427 0
M  V30 8 C 3.143725 3.573480 1.043999 0
M  V30 9 C 2.500446 2.362118 1.075334 0
M  V30 10 C 1.167044 2.449649 0.663095 0
M  V30 11 C 0.094796 1.464577 0.526487 0
M  V30 12 O -1.051929 1.803210 0.082109 0
M  V30 13 N 0.282782 0.102339 0.879933 0
M  V30 14 C -0.673056 -0.958636 0.798081 0 CFG=2
M  V30 15 C -1.162021 -1.438376 2.145598 0
M  V30 16 N -2.448144 -2.060393 1.891480 0
M  V30 17 C -2.265204 -3.176475 1.000757 0 CFG=2
M  V30 18 C -2.591530 -4.421006 1.842601 0
M  V30 19 C -4.018320 -4.345474 2.350503 0
M  V30 20 N -4.990233 -4.280314 1.280253 0
M  V30 21 C -5.571251 -5.359423 0.695749 0
M  V30 22 N -6.420933 -4.929548 -0.259411 0
M  V30 23 C -6.345437 -3.589462 -0.243522 0
M  V30 24 N -5.470558 -3.182861 0.697310 0
M  V30 25 C -0.846957 -3.371996 0.532607 0
M  V30 26 C -0.199883 -2.124309 -0.009493 0 CFG=1
M  V30 27 C -0.287551 -1.960596 -1.465698 0
M  V30 28 C 0.853311 -2.056721 -2.263387 0
M  V30 29 C 0.864796 -1.914204 -3.640272 0
M  V30 30 C -0.319465 -1.658864 -4.292916 0
M  V30 31 Cl -0.224451 -1.493011 -6.031433 0
M  V30 32 C -1.480825 -1.553563 -3.551169 0
M  V30 33 Cl -2.949266 -1.231262 -4.410298 0
M  V30 34 C -1.464306 -1.700352 -2.176532 0
M  V30 35 O 1.004290 3.741757 0.377028 0
M  V30 36 C 2.130057 4.372004 0.596380 0
M  V30 37 Cl 2.188458 6.074272 0.300895 0
M  V30 38 H 4.619366 1.189941 2.757679 0
M  V30 39 H 6.280307 0.954178 2.121103 0
M  V30 40 H 4.981378 0.929929 0.946652 0
M  V30 41 H 7.461793 5.308364 1.939125 0
M  V30 42 H 2.759494 1.362258 1.342376 0
M  V30 43 H 1.232908 -0.162088 1.244493 0
M  V30 44 H -1.582160 -0.527376 0.310345 0
M  V30 45 H -0.528194 -2.169161 2.638223 0
M  V30 46 H -1.356109 -0.554535 2.797737 0
M  V30 47 H -3.059208 -1.364244 1.376719 0
M  V30 48 H -2.934203 -3.152434 0.127330 0
M  V30 49 H -2.456176 -5.354077 1.298415 0
M  V30 50 H -1.941218 -4.440588 2.740054 0
M  V30 51 H -4.166380 -5.218585 3.016321 0
M  V30 52 H -4.062036 -3.435421 3.003259 0
M  V30 53 H -5.372475 -6.395796 0.962853 0
M  V30 54 H -6.987238 -3.091192 -0.975795 0
M  V30 55 H -0.219655 -3.725270 1.381284 0
M  V30 56 H -0.846910 -4.207932 -0.181879 0
M  V30 57 H 0.909266 -2.249327 0.196047 0
M  V30 58 H 1.818262 -2.258789 -1.792372 0
M  V30 59 H 1.816791 -2.007959 -4.176683 0
M  V30 60 H -2.372873 -1.614581 -1.613817 0
M  V30 END ATOM
M  V30 BEGIN BOND
M  V30 1 1 1 2
M  V30 2 1 2 3
M  V30 3 2 3 4
M  V30 4 1 4 5
M  V30 5 1 5 6
M  V30 6 2 5 7
M  V30 7 1 7 8
M  V30 8 1 8 9
M  V30 9 2 9 10
M  V30 10 1 10 11
M  V30 11 2 11 12
M  V30 12 1 11 13
M  V30 13 1 13 14
M  V30 14 1 14 15
M  V30 15 1 15 16
M  V30 16 1 16 17
M  V30 17 1 17 18
M  V30 18 1 18 19
M  V30 19 1 19 20
M  V30 20 1 20 21
M  V30 21 2 21 22
M  V30 22 1 22 23
M  V30 23 2 23 24
M  V30 24 1 17 25
M  V30 25 1 25 26
M  V30 26 1 26 27
M  V30 27 2 27 28
M  V30 28 1 28 29
M  V30 29 2 29 30
M  V30 30 1 30 31
M  V30 31 1 30 32
M  V30 32 1 32 33
M  V30 33 2 32 34
M  V30 34 1 10 35
M  V30 35 1 35 36
M  V30 36 1 36 37
M  V30 37 1 7 2
M  V30 38 2 36 8
M  V30 39 1 26 14
M  V30 40 1 34 27
M  V30 41 1 24 20
M  V30 42 1 1 38
M  V30 43 1 1 39
M  V30 44 1 1 40
M  V30 45 1 4 41
M  V30 46 1 9 42
M  V30 47 1 13 43
M  V30 48 1 14 44 CFG=3
M  V30 49 1 15 45
M  V30 50 1 15 46
M  V30 51 1 16 47
M  V30 52 1 17 48 CFG=3
M  V30 53 1 18 49
M  V30 54 1 18 50
M  V30 55 1 19 51
M  V30 56 1 19 52
M  V30 57 1 21 53
M  V30 58 1 23 54
M  V30 59 1 25 55
M  V30 60 1 25 56
M  V30 61 1 26 57 CFG=3
M  V30 62 1 28 58
M  V30 63 1 29 59
M  V30 64 1 34 60
M  V30 END BOND
M  V30 END CTAB
M  END
>  <Dataset>  (628) 
ChEMBL_Kinases

>  <Ligand_Instance>  (628) 
nan

>  <PDB_ID>  (628) 
nan

>  <Standardized_SMILES>  (628) 
Cn1ncc(Cl)c1-c1cc(C(=O)N[C@@H]2CN[C@H](CCn3cncn3)C[C@H]2c2ccc(Cl)c(Cl)c2)oc1Cl

>  <Name>  (628) 
nan

>  <Pocket>  (628) 
nan

>  <ATP_Site>  (628) 
nan

>  <Peripheral>  (628) 
nan

>  <Num_H_Atoms_ProtBoundConf>  (628) 
nan

>  <Num_Resolved_Atoms>  (628) 
nan

>  <Num_Not_Resolved_Atoms>  (628) 
nan

$$$$
CHEMBL4519769
     RDKit          3D

  0  0  0  0  0  0  0  0  0  0999 V3000
M  V30 BEGIN CTAB
M  V30 COUNTS 105 109 0 0 0
M  V30 BEGIN ATOM
M  V30 1 C -6.059764 -3.783465 6.752031 0
M  V30 2 C -5.317569 -2.444547 6.827719 0
M  V30 3 C -5.040028 -1.910137 5.440826 0
M  V30 4 C -4.306711 -0.599729 5.585328 0
M  V30 5 C -3.979149 0.021648 4.247165 0
M  V30 6 C -5.163680 0.327143 3.416540 0
M  V30 7 C -4.833766 0.926618 2.070988 0
M  V30 8 C -4.035073 0.024550 1.229355 0
M  V30 9 O -3.751977 -1.105515 1.670671 0
M  V30 10 O -3.516922 0.228244 -0.031203 0
M  V30 11 C -2.768398 -0.685558 -0.741401 0 CFG=1
M  V30 12 C -3.525261 -1.288524 -1.892089 0
M  V30 13 C -4.679234 -0.932941 -2.375655 0
M  V30 14 C -5.405167 -1.516690 -3.483500 0
M  V30 15 O -6.518470 -1.084933 -3.864386 0
M  V30 16 O -5.127450 -2.561546 -4.317701 0
M  V30 17 C -5.997765 -2.980646 -5.362620 0
M  V30 18 C -2.855744 -2.442124 -2.541551 0
M  V30 19 C -1.448022 -2.522380 -1.927672 0 CFG=1
M  V30 20 C -0.659314 -3.410282 -2.854703 0
M  V30 21 C 0.391770 -4.253724 -2.161327 0 CFG=2
M  V30 22 C -0.200475 -5.198969 -1.135215 0
M  V30 23 O 0.856950 -6.023602 -0.678422 0
M  V30 24 O 1.384501 -3.459449 -1.641484 0
M  V30 25 C 2.689629 -3.284046 -1.925764 0
M  V30 26 O 2.583052 -4.145634 -2.865755 0
M  V30 27 C 4.121194 -2.987553 -2.119449 0
M  V30 28 C 4.374458 -2.197662 -3.379478 0
M  V30 29 O 3.909436 -0.886833 -3.365488 0
M  V30 30 C 4.335179 0.098488 -2.502900 0
M  V30 31 C 5.704375 0.025135 -2.381102 0
M  V30 32 C 6.467745 0.876054 -1.587591 0
M  V30 33 C 5.848357 1.889234 -0.846354 0
M  V30 34 C 6.640605 2.789305 -0.031986 0
M  V30 35 C 7.751850 3.246533 -0.730350 0
M  V30 36 C 8.665330 4.136117 -0.156496 0
M  V30 37 C 8.429244 4.557603 1.149526 0
M  V30 38 C 7.326668 4.096615 1.826901 0
M  V30 39 N 6.828657 4.308015 3.069027 0
M  V30 40 C 5.691839 3.603131 3.254913 0
M  V30 41 C 5.411945 2.885063 2.084796 0
M  V30 42 C 6.437895 3.222304 1.249943 0
M  V30 43 C 4.485944 1.933066 -0.989728 0
M  V30 44 C 3.740130 1.088991 -1.774799 0
M  V30 45 C 2.337405 1.413713 -1.700838 0
M  V30 46 O 1.889086 2.510199 -1.290635 0
M  V30 47 O 1.111108 0.851183 -1.965583 0
M  V30 48 C -0.034164 1.642527 -1.696362 0
M  V30 49 C -1.302222 0.903460 -2.057862 0
M  V30 50 C -1.185515 0.604051 -3.550127 0
M  V30 51 C -2.417546 1.906202 -1.912190 0
M  V30 52 C -1.422351 -0.294510 -1.198801 0 CFG=1
M  V30 53 O -0.649221 -0.071477 -0.033015 0
M  V30 54 O -0.808378 -1.321200 -1.862301 0
M  V30 55 H -5.352225 -4.599125 6.478191 0
M  V30 56 H -6.816970 -3.745612 5.916958 0
M  V30 57 H -6.552933 -4.010034 7.695768 0
M  V30 58 H -4.401190 -2.644704 7.420983 0
M  V30 59 H -5.967283 -1.778658 7.435960 0
M  V30 60 H -4.465743 -2.682795 4.902748 0
M  V30 61 H -6.026216 -1.693475 4.986389 0
M  V30 62 H -4.926668 0.068637 6.206513 0
M  V30 63 H -3.372425 -0.801923 6.144622 0
M  V30 64 H -3.173183 -0.560988 3.800183 0
M  V30 65 H -3.494435 1.009566 4.511076 0
M  V30 66 H -5.815812 -0.546659 3.207077 0
M  V30 67 H -5.821396 1.020964 4.005111 0
M  V30 68 H -5.795729 1.090771 1.529317 0
M  V30 69 H -4.388596 1.940174 2.176495 0
M  V30 70 H -2.628946 -1.585583 -0.059933 0
M  V30 71 H -5.141752 -0.089228 -1.876974 0
M  V30 72 H -7.049519 -2.718667 -5.169824 0
M  V30 73 H -5.971293 -4.106276 -5.382432 0
M  V30 74 H -5.616085 -2.627163 -6.325599 0
M  V30 75 H -2.829213 -2.389884 -3.642492 0
M  V30 76 H -3.418049 -3.350958 -2.171251 0
M  V30 77 H -1.534974 -3.051817 -0.964416 0
M  V30 78 H -1.349781 -4.033281 -3.459925 0
M  V30 79 H -0.138586 -2.758348 -3.583524 0
M  V30 80 H 0.778098 -4.914613 -2.968202 0
M  V30 81 H -0.507598 -4.631615 -0.246987 0
M  V30 82 H -0.941316 -5.869718 -1.568749 0
M  V30 83 H 0.667523 -6.371977 0.234439 0
M  V30 84 H 4.728364 -3.898629 -2.113445 0
M  V30 85 H 4.475913 -2.382890 -1.222822 0
M  V30 86 H 3.882925 -2.704005 -4.258895 0
M  V30 87 H 5.452776 -2.234856 -3.598393 0
M  V30 88 H 6.386274 -0.670362 -2.861355 0
M  V30 89 H 7.549999 0.829501 -1.479646 0
M  V30 90 H 8.035720 2.989345 -1.746906 0
M  V30 91 H 9.533952 4.514552 -0.651215 0
M  V30 92 H 9.126973 5.245862 1.604471 0
M  V30 93 H 7.334613 4.949552 3.719935 0
M  V30 94 H 5.097170 3.593661 4.158229 0
M  V30 95 H 4.582313 2.215334 1.881206 0
M  V30 96 H 4.058581 2.747949 -0.382409 0
M  V30 97 H 0.002874 2.641907 -2.187137 0
M  V30 98 H -0.005198 1.855839 -0.585802 0
M  V30 99 H -0.765393 1.549328 -4.008618 0
M  V30 100 H -0.449586 -0.177391 -3.742390 0
M  V30 101 H -2.174468 0.460778 -4.014813 0
M  V30 102 H -2.660297 2.206010 -0.899332 0
M  V30 103 H -3.309343 1.581677 -2.475074 0
M  V30 104 H -2.106257 2.864007 -2.427941 0
M  V30 105 H -1.206512 0.522002 0.530238 0
M  V30 END ATOM
M  V30 BEGIN BOND
M  V30 1 1 1 2
M  V30 2 1 2 3
M  V30 3 1 3 4
M  V30 4 1 4 5
M  V30 5 1 5 6
M  V30 6 1 6 7
M  V30 7 1 7 8
M  V30 8 2 8 9
M  V30 9 1 8 10
M  V30 10 1 10 11
M  V30 11 1 11 12
M  V30 12 2 12 13
M  V30 13 1 13 14
M  V30 14 2 14 15
M  V30 15 1 14 16
M  V30 16 1 16 17
M  V30 17 1 12 18
M  V30 18 1 18 19
M  V30 19 1 19 20
M  V30 20 1 20 21
M  V30 21 1 21 22
M  V30 22 1 22 23
M  V30 23 1 21 24
M  V30 24 1 24 25
M  V30 25 2 25 26
M  V30 26 1 25 27
M  V30 27 1 27 28
M  V30 28 1 28 29
M  V30 29 1 29 30
M  V30 30 2 30 31
M  V30 31 1 31 32
M  V30 32 2 32 33
M  V30 33 1 33 34
M  V30 34 2 34 35
M  V30 35 1 35 36
M  V30 36 2 36 37
M  V30 37 1 37 38
M  V30 38 1 38 39
M  V30 39 1 39 40
M  V30 40 2 40 41
M  V30 41 1 41 42
M  V30 42 1 33 43
M  V30 43 2 43 44
M  V30 44 1 44 45
M  V30 45 2 45 46
M  V30 46 1 45 47
M  V30 47 1 47 48
M  V30 48 1 48 49
M  V30 49 1 49 50
M  V30 50 1 49 51
M  V30 51 1 49 52
M  V30 52 1 52 53 CFG=1
M  V30 53 1 52 54
M  V30 54 1 52 11
M  V30 55 1 54 19
M  V30 56 1 44 30
M  V30 57 1 42 34
M  V30 58 2 42 38
M  V30 59 1 1 55
M  V30 60 1 1 56
M  V30 61 1 1 57
M  V30 62 1 2 58
M  V30 63 1 2 59
M  V30 64 1 3 60
M  V30 65 1 3 61
M  V30 66 1 4 62
M  V30 67 1 4 63
M  V30 68 1 5 64
M  V30 69 1 5 65
M  V30 70 1 6 66
M  V30 71 1 6 67
M  V30 72 1 7 68
M  V30 73 1 7 69
M  V30 74 1 11 70 CFG=1
M  V30 75 1 13 71
M  V30 76 1 17 72
M  V30 77 1 17 73
M  V30 78 1 17 74
M  V30 79 1 18 75
M  V30 80 1 18 76
M  V30 81 1 19 77 CFG=1
M  V30 82 1 20 78
M  V30 83 1 20 79
M  V30 84 1 21 80 CFG=3
M  V30 85 1 22 81
M  V30 86 1 22 82
M  V30 87 1 23 83
M  V30 88 1 27 84
M  V30 89 1 27 85
M  V30 90 1 28 86
M  V30 91 1 28 87
M  V30 92 1 31 88
M  V30 93 1 32 89
M  V30 94 1 35 90
M  V30 95 1 36 91
M  V30 96 1 37 92
M  V30 97 1 39 93
M  V30 98 1 40 94
M  V30 99 1 41 95
M  V30 100 1 43 96
M  V30 101 1 48 97
M  V30 102 1 48 98
M  V30 103 1 50 99
M  V30 104 1 50 100
M  V30 105 1 50 101
M  V30 106 1 51 102
M  V30 107 1 51 103
M  V30 108 1 51 104
M  V30 109 1 53 105
M  V30 END BOND
M  V30 END CTAB
M  END
>  <Dataset>  (629) 
ChEMBL_Kinases

>  <Ligand_Instance>  (629) 
nan

>  <PDB_ID>  (629) 
nan

>  <Standardized_SMILES>  (629) 
CCCCCCCC(=O)O[C@H]1/C(=C/C(=O)OC)C[C@H]2C[C@H](CO)OC(=O)CCOc3ccc(-c4cccc5[nH]ccc45)cc3C(=O)OCC(C)(C)[C@]1(O)O2

>  <Name>  (629) 
nan

>  <Pocket>  (629) 
nan

>  <ATP_Site>  (629) 
nan

>  <Peripheral>  (629) 
nan

>  <Num_H_Atoms_ProtBoundConf>  (629) 
nan

>  <Num_Resolved_Atoms>  (629) 
nan

>  <Num_Not_Resolved_Atoms>  (629) 
nan

$$$$
CHEMBL464684
     RDKit          3D

  0  0  0  0  0  0  0  0  0  0999 V3000
M  V30 BEGIN CTAB
M  V30 COUNTS 31 35 0 0 0
M  V30 BEGIN ATOM
M  V30 1 O 1.744910 -3.744974 4.018716 0
M  V30 2 C 1.971228 -2.653330 3.406298 0
M  V30 3 N 3.102112 -1.781305 3.606960 0
M  V30 4 C 2.964688 -0.678009 2.722142 0
M  V30 5 O 3.766794 0.268584 2.631016 0
M  V30 6 C 1.735466 -0.856428 1.956551 0
M  V30 7 C 1.134036 -2.050054 2.369155 0
M  V30 8 C -0.050616 -2.418215 1.770923 0
M  V30 9 C -0.694780 -1.693660 0.787638 0
M  V30 10 C -0.095400 -0.503729 0.376174 0
M  V30 11 C 1.090745 -0.121357 0.965378 0
M  V30 12 N 1.524545 1.058142 0.441103 0
M  V30 13 C 0.609653 1.414090 -0.476486 0
M  V30 14 C 0.590150 2.531552 -1.285778 0
M  V30 15 C -0.479473 2.657059 -2.151759 0
M  V30 16 C -1.499527 1.727887 -2.231287 0
M  V30 17 C -1.460548 0.617132 -1.412627 0
M  V30 18 C -0.402953 0.468410 -0.538864 0
M  V30 19 C -1.942137 -2.351283 0.349845 0
M  V30 20 N -1.970641 -3.544454 1.178124 0
M  V30 21 C -0.843455 -3.612041 2.044683 0
M  V30 22 O -0.599194 -4.536272 2.879669 0
M  V30 23 H 3.855345 -2.012158 4.318154 0
M  V30 24 H 2.396853 1.595038 0.692485 0
M  V30 25 H 1.324479 3.325573 -1.317556 0
M  V30 26 H -0.604019 3.501813 -2.843280 0
M  V30 27 H -2.339081 1.837390 -2.918805 0
M  V30 28 H -2.249616 -0.134732 -1.450602 0
M  V30 29 H -1.852890 -2.737226 -0.700886 0
M  V30 30 H -2.859555 -1.792775 0.547781 0
M  V30 31 H -2.712482 -4.304980 1.180598 0
M  V30 END ATOM
M  V30 BEGIN BOND
M  V30 1 2 1 2
M  V30 2 1 2 3
M  V30 3 1 3 4
M  V30 4 2 4 5
M  V30 5 1 4 6
M  V30 6 2 6 7
M  V30 7 1 7 8
M  V30 8 2 8 9
M  V30 9 1 9 10
M  V30 10 2 10 11
M  V30 11 1 11 12
M  V30 12 1 12 13
M  V30 13 2 13 14
M  V30 14 1 14 15
M  V30 15 2 15 16
M  V30 16 1 16 17
M  V30 17 2 17 18
M  V30 18 1 9 19
M  V30 19 1 19 20
M  V30 20 1 20 21
M  V30 21 2 21 22
M  V30 22 1 7 2
M  V30 23 1 21 8
M  V30 24 1 11 6
M  V30 25 1 18 13
M  V30 26 1 18 10
M  V30 27 1 3 23
M  V30 28 1 12 24
M  V30 29 1 14 25
M  V30 30 1 15 26
M  V30 31 1 16 27
M  V30 32 1 17 28
M  V30 33 1 19 29
M  V30 34 1 19 30
M  V30 35 1 20 31
M  V30 END BOND
M  V30 END CTAB
M  END
>  <Dataset>  (630) 
ChEMBL_Kinases

>  <Ligand_Instance>  (630) 
nan

>  <PDB_ID>  (630) 
nan

>  <Standardized_SMILES>  (630) 
O=C1NC(=O)c2c1c1c(c3c2[nH]c2ccccc23)CNC1=O

>  <Name>  (630) 
nan

>  <Pocket>  (630) 
nan

>  <ATP_Site>  (630) 
nan

>  <Peripheral>  (630) 
nan

>  <Num_H_Atoms_ProtBoundConf>  (630) 
nan

>  <Num_Resolved_Atoms>  (630) 
nan

>  <Num_Not_Resolved_Atoms>  (630) 
nan

$$$$
CHEMBL4519701
     RDKit          3D

  0  0  0  0  0  0  0  0  0  0999 V3000
M  V30 BEGIN CTAB
M  V30 COUNTS 47 51 0 0 0
M  V30 BEGIN ATOM
M  V30 1 Cl 3.974630 -1.084907 6.873870 0
M  V30 2 C 4.049739 -0.796840 5.150944 0
M  V30 3 C 4.896048 -1.593433 4.411055 0
M  V30 4 C 4.985390 -1.399455 3.042693 0
M  V30 5 C 4.219773 -0.409409 2.461761 0
M  V30 6 C 3.358453 0.413009 3.159314 0
M  V30 7 N 2.576780 1.424571 2.528324 0
M  V30 8 C 2.705298 1.499814 1.114768 0
M  V30 9 N 3.687709 2.244691 0.619998 0
M  V30 10 C 3.969444 2.436804 -0.670494 0
M  V30 11 N 3.184075 1.817546 -1.562738 0
M  V30 12 C 2.154960 1.036678 -1.081036 0
M  V30 13 S 0.844174 0.014651 -1.958794 0
M  V30 14 C 0.088616 -0.537083 -0.508830 0
M  V30 15 C 0.809367 0.036107 0.554185 0
M  V30 16 C 1.854548 0.831534 0.266158 0
M  V30 17 C 0.197444 -0.402356 1.830343 0
M  V30 18 C -1.297681 -0.066304 1.691383 0
M  V30 19 N -1.936335 -0.948624 0.754004 0
M  V30 20 C -3.081435 -0.293670 0.184147 0
M  V30 21 C -3.843565 -1.064202 -0.792560 0
M  V30 22 C -3.739745 -1.083241 -2.165974 0
M  V30 23 C -4.525528 -1.877536 -2.976902 0
M  V30 24 C -5.465631 -2.694902 -2.363107 0
M  V30 25 C -5.606982 -2.710217 -0.992864 0
M  V30 26 C -4.797345 -1.895100 -0.196274 0
M  V30 27 C -1.074590 -1.429409 -0.268075 0
M  V30 28 C 3.313376 0.170553 4.522657 0
M  V30 29 H 5.486414 -2.359317 4.869522 0
M  V30 30 H 5.628184 -1.988764 2.405467 0
M  V30 31 H 4.305035 -0.270607 1.374927 0
M  V30 32 H 1.981600 2.017312 3.154377 0
M  V30 33 H 4.733066 3.013496 -1.155230 0
M  V30 34 H 0.539446 0.124719 2.719188 0
M  V30 35 H 0.286587 -1.494769 1.983977 0
M  V30 36 H -1.303029 0.957847 1.238139 0
M  V30 37 H -1.794698 0.014557 2.656586 0
M  V30 38 H -2.669623 0.598756 -0.368932 0
M  V30 39 H -3.718842 0.073483 1.036404 0
M  V30 40 H -3.004890 -0.427820 -2.583710 0
M  V30 41 H -4.337503 -1.794992 -4.037989 0
M  V30 42 H -6.073356 -3.314328 -3.039945 0
M  V30 43 H -6.370342 -3.384275 -0.630596 0
M  V30 44 H -5.045659 -2.037107 0.846201 0
M  V30 45 H -0.667094 -2.422647 0.105452 0
M  V30 46 H -1.545921 -1.666570 -1.213835 0
M  V30 47 H 2.659721 0.777487 5.133641 0
M  V30 END ATOM
M  V30 BEGIN BOND
M  V30 1 1 1 2
M  V30 2 2 2 3
M  V30 3 1 3 4
M  V30 4 2 4 5
M  V30 5 1 5 6
M  V30 6 1 6 7
M  V30 7 1 7 8
M  V30 8 2 8 9
M  V30 9 1 9 10
M  V30 10 2 10 11
M  V30 11 1 11 12
M  V30 12 1 12 13
M  V30 13 1 13 14
M  V30 14 2 14 15
M  V30 15 1 15 16
M  V30 16 1 15 17
M  V30 17 1 17 18
M  V30 18 1 18 19
M  V30 19 1 19 20
M  V30 20 1 20 21
M  V30 21 2 21 22
M  V30 22 1 22 23
M  V30 23 2 23 24
M  V30 24 1 24 25
M  V30 25 2 25 26
M  V30 26 1 19 27
M  V30 27 2 6 28
M  V30 28 1 28 2
M  V30 29 1 16 8
M  V30 30 1 26 21
M  V30 31 2 16 12
M  V30 32 1 27 14
M  V30 33 1 3 29
M  V30 34 1 4 30
M  V30 35 1 5 31
M  V30 36 1 7 32
M  V30 37 1 10 33
M  V30 38 1 17 34
M  V30 39 1 17 35
M  V30 40 1 18 36
M  V30 41 1 18 37
M  V30 42 1 20 38
M  V30 43 1 20 39
M  V30 44 1 22 40
M  V30 45 1 23 41
M  V30 46 1 24 42
M  V30 47 1 25 43
M  V30 48 1 26 44
M  V30 49 1 27 45
M  V30 50 1 27 46
M  V30 51 1 28 47
M  V30 END BOND
M  V30 END CTAB
M  END
>  <Dataset>  (631) 
ChEMBL_Kinases

>  <Ligand_Instance>  (631) 
nan

>  <PDB_ID>  (631) 
nan

>  <Standardized_SMILES>  (631) 
Clc1cccc(Nc2ncnc3sc4c(c23)CCN(Cc2ccccc2)C4)c1

>  <Name>  (631) 
nan

>  <Pocket>  (631) 
nan

>  <ATP_Site>  (631) 
nan

>  <Peripheral>  (631) 
nan

>  <Num_H_Atoms_ProtBoundConf>  (631) 
nan

>  <Num_Resolved_Atoms>  (631) 
nan

>  <Num_Not_Resolved_Atoms>  (631) 
nan

$$$$
CHEMBL4646866
     RDKit          3D

  0  0  0  0  0  0  0  0  0  0999 V3000
M  V30 BEGIN CTAB
M  V30 COUNTS 37 40 0 0 0
M  V30 BEGIN ATOM
M  V30 1 C -1.092301 -4.739992 1.582042 0
M  V30 2 C 0.285273 -4.261447 1.253722 0
M  V30 3 C 1.401258 -4.922651 1.746233 0
M  V30 4 C 2.672670 -4.497865 1.456127 0
M  V30 5 C 2.895342 -3.384187 0.654513 0
M  V30 6 C 1.749751 -2.771822 0.196860 0
M  V30 7 N 1.898577 -1.614031 -0.634817 0
M  V30 8 C 0.941682 -0.773124 -1.268830 0
M  V30 9 N 0.445588 -0.930518 -2.529116 0
M  V30 10 C -0.459834 -0.076709 -3.034324 0
M  V30 11 C -0.903516 0.994704 -2.254465 0
M  V30 12 C -0.410791 1.158029 -0.991454 0
M  V30 13 C -0.850876 2.261891 -0.147062 0
M  V30 14 C -1.748142 3.247840 -0.445168 0
M  V30 15 N -1.866369 4.069350 0.624224 0
M  V30 16 N -1.066888 3.632948 1.598762 0
M  V30 17 N -0.830232 4.087162 2.824086 0
M  V30 18 C 0.039457 3.456687 3.636006 0
M  V30 19 C 0.724078 2.310735 3.232302 0
M  V30 20 C 0.455428 1.855625 1.938442 0
M  V30 21 C -0.442156 2.532446 1.142457 0
M  V30 22 N 0.497025 0.266941 -0.540094 0
M  V30 23 C 0.448520 -3.149913 0.452734 0
M  V30 24 H -1.163169 -5.854729 1.477916 0
M  V30 25 H -1.272995 -4.505025 2.656831 0
M  V30 26 H -1.814590 -4.226341 0.934157 0
M  V30 27 H 1.301787 -5.810526 2.386652 0
M  V30 28 H 3.579798 -4.995932 1.827919 0
M  V30 29 H 3.873809 -2.991769 0.383961 0
M  V30 30 H 2.816057 -1.186112 -0.918075 0
M  V30 31 H -0.810811 -0.266102 -4.049132 0
M  V30 32 H -1.635134 1.669254 -2.687408 0
M  V30 33 H -2.298516 3.381599 -1.384001 0
M  V30 34 H 0.218300 3.847315 4.638134 0
M  V30 35 H 1.403383 1.873941 3.955717 0
M  V30 36 H 1.008880 0.968043 1.674172 0
M  V30 37 H -0.392693 -2.612140 0.052949 0
M  V30 END ATOM
M  V30 BEGIN BOND
M  V30 1 1 1 2
M  V30 2 2 2 3
M  V30 3 1 3 4
M  V30 4 2 4 5
M  V30 5 1 5 6
M  V30 6 1 6 7
M  V30 7 1 7 8
M  V30 8 2 8 9
M  V30 9 1 9 10
M  V30 10 2 10 11
M  V30 11 1 11 12
M  V30 12 1 12 13
M  V30 13 1 13 14
M  V30 14 2 14 15
M  V30 15 1 15 16
M  V30 16 1 16 17
M  V30 17 2 17 18
M  V30 18 1 18 19
M  V30 19 2 19 20
M  V30 20 1 20 21
M  V30 21 2 12 22
M  V30 22 2 6 23
M  V30 23 1 23 2
M  V30 24 1 22 8
M  V30 25 2 21 13
M  V30 26 1 21 16
M  V30 27 1 1 24
M  V30 28 1 1 25
M  V30 29 1 1 26
M  V30 30 1 3 27
M  V30 31 1 4 28
M  V30 32 1 5 29
M  V30 33 1 7 30
M  V30 34 1 10 31
M  V30 35 1 11 32
M  V30 36 1 14 33
M  V30 37 1 18 34
M  V30 38 1 19 35
M  V30 39 1 20 36
M  V30 40 1 23 37
M  V30 END BOND
M  V30 END CTAB
M  END
>  <Dataset>  (632) 
ChEMBL_Kinases

>  <Ligand_Instance>  (632) 
nan

>  <PDB_ID>  (632) 
nan

>  <Standardized_SMILES>  (632) 
Cc1cccc(Nc2nccc(-c3cnn4ncccc34)n2)c1

>  <Name>  (632) 
nan

>  <Pocket>  (632) 
nan

>  <ATP_Site>  (632) 
nan

>  <Peripheral>  (632) 
nan

>  <Num_H_Atoms_ProtBoundConf>  (632) 
nan

>  <Num_Resolved_Atoms>  (632) 
nan

>  <Num_Not_Resolved_Atoms>  (632) 
nan

$$$$
CHEMBL4646895
     RDKit          3D

  0  0  0  0  0  0  0  0  0  0999 V3000
M  V30 BEGIN CTAB
M  V30 COUNTS 50 53 0 0 0
M  V30 BEGIN ATOM
M  V30 1 C -0.930233 -4.211219 3.946507 0
M  V30 2 O -1.373498 -5.089919 2.919405 0
M  V30 3 C -1.493428 -4.617945 1.611625 0
M  V30 4 C -1.196693 -3.309591 1.253634 0
M  V30 5 C -1.327796 -2.869249 -0.066137 0
M  V30 6 C -0.997962 -1.477986 -0.377326 0
M  V30 7 C 0.006152 -0.928646 0.399475 0
M  V30 8 N 0.333612 0.350446 0.139880 0
M  V30 9 C -0.233598 1.119083 -0.801930 0
M  V30 10 C 0.029401 2.435286 -1.144378 0
M  V30 11 N 1.067602 3.248831 -0.457824 0
M  V30 12 C 0.762454 4.028863 0.712292 0
M  V30 13 C 1.836369 3.908992 1.774191 0 CFG=1
M  V30 14 C 1.224703 3.674880 3.161264 0
M  V30 15 O 2.624068 2.788458 1.520010 0
M  V30 16 C 3.375783 2.979445 0.388659 0 CFG=1
M  V30 17 C 3.998884 1.623454 0.032408 0
M  V30 18 C 2.477432 3.468226 -0.719325 0
M  V30 19 S -0.937310 2.926252 -2.366849 0
M  V30 20 N -1.855325 1.299324 -2.553332 0
M  V30 21 C -1.235005 0.598387 -1.589225 0
M  V30 22 C -1.605533 -0.714853 -1.358127 0
M  V30 23 C -1.765399 -3.756519 -1.050570 0
M  V30 24 C -2.074127 -5.077635 -0.736260 0
M  V30 25 C -1.919498 -5.435293 0.585822 0
M  V30 26 C -2.244583 -6.819331 0.906899 0
M  V30 27 N -2.689836 -7.775495 -0.037561 0
M  V30 28 O -2.211165 -7.436891 1.993407 0
M  V30 29 H -0.740059 -4.817797 4.866673 0
M  V30 30 H 0.025853 -3.751940 3.588990 0
M  V30 31 H -1.660680 -3.399977 4.153581 0
M  V30 32 H -0.858112 -2.659524 2.069297 0
M  V30 33 H 0.561923 -1.413893 1.197494 0
M  V30 34 H -0.198472 3.712879 1.193467 0
M  V30 35 H 0.604371 5.092669 0.440119 0
M  V30 36 H 2.472343 4.807823 1.769600 0
M  V30 37 H 2.029292 3.202153 3.769433 0
M  V30 38 H 0.414830 2.942449 3.014849 0
M  V30 39 H 0.866248 4.627499 3.607635 0
M  V30 40 H 4.191863 3.724630 0.581489 0
M  V30 41 H 3.838969 0.873267 0.818807 0
M  V30 42 H 3.547359 1.225628 -0.913617 0
M  V30 43 H 5.096827 1.731723 -0.106584 0
M  V30 44 H 2.833054 2.922200 -1.642104 0
M  V30 45 H 2.699639 4.534672 -0.928865 0
M  V30 46 H -2.358461 -1.289792 -1.864818 0
M  V30 47 H -1.851000 -3.369237 -2.056994 0
M  V30 48 H -2.410816 -5.761741 -1.491836 0
M  V30 49 H -2.334185 -8.079807 -0.984658 0
M  V30 50 H -3.514737 -8.424678 0.000672 0
M  V30 END ATOM
M  V30 BEGIN BOND
M  V30 1 1 1 2
M  V30 2 1 2 3
M  V30 3 2 3 4
M  V30 4 1 4 5
M  V30 5 1 5 6
M  V30 6 1 6 7
M  V30 7 2 7 8
M  V30 8 1 8 9
M  V30 9 2 9 10
M  V30 10 1 10 11
M  V30 11 1 11 12
M  V30 12 1 12 13
M  V30 13 1 13 14
M  V30 14 1 13 15
M  V30 15 1 15 16
M  V30 16 1 16 17
M  V30 17 1 16 18
M  V30 18 1 10 19
M  V30 19 1 19 20
M  V30 20 2 20 21
M  V30 21 1 21 22
M  V30 22 2 5 23
M  V30 23 1 23 24
M  V30 24 2 24 25
M  V30 25 1 25 26
M  V30 26 1 26 27
M  V30 27 2 26 28
M  V30 28 1 25 3
M  V30 29 2 22 6
M  V30 30 1 21 9
M  V30 31 1 18 11
M  V30 32 1 1 29
M  V30 33 1 1 30
M  V30 34 1 1 31
M  V30 35 1 4 32
M  V30 36 1 7 33
M  V30 37 1 12 34
M  V30 38 1 12 35
M  V30 39 1 13 36 CFG=1
M  V30 40 1 14 37
M  V30 41 1 14 38
M  V30 42 1 14 39
M  V30 43 1 16 40 CFG=1
M  V30 44 1 17 41
M  V30 45 1 17 42
M  V30 46 1 17 43
M  V30 47 1 18 44
M  V30 48 1 18 45
M  V30 49 1 22 46
M  V30 50 1 23 47
M  V30 51 1 24 48
M  V30 52 1 27 49
M  V30 53 1 27 50
M  V30 END BOND
M  V30 END CTAB
M  END
>  <Dataset>  (633) 
ChEMBL_Kinases

>  <Ligand_Instance>  (633) 
nan

>  <PDB_ID>  (633) 
nan

>  <Standardized_SMILES>  (633) 
COc1cc(-c2cnc3c(N4C[C@@H](C)O[C@@H](C)C4)snc3c2)ccc1C(N)=O

>  <Name>  (633) 
nan

>  <Pocket>  (633) 
nan

>  <ATP_Site>  (633) 
nan

>  <Peripheral>  (633) 
nan

>  <Num_H_Atoms_ProtBoundConf>  (633) 
nan

>  <Num_Resolved_Atoms>  (633) 
nan

>  <Num_Not_Resolved_Atoms>  (633) 
nan

$$$$
CHEMBL4519384
     RDKit          3D

  0  0  0  0  0  0  0  0  0  0999 V3000
M  V30 BEGIN CTAB
M  V30 COUNTS 53 56 0 0 0
M  V30 BEGIN ATOM
M  V30 1 C 1.304268 -5.454000 1.891061 0
M  V30 2 C 0.398910 -4.588807 1.060272 0 CFG=1
M  V30 3 N 1.156475 -3.451013 0.556547 0
M  V30 4 C 0.826253 -2.117473 0.923781 0
M  V30 5 O -0.163587 -1.959547 1.714694 0
M  V30 6 C 1.574133 -0.976526 0.427899 0
M  V30 7 C 2.669368 -1.047148 -0.438887 0
M  V30 8 C 3.329188 0.083919 -0.866382 0
M  V30 9 C 2.932269 1.339497 -0.453008 0
M  V30 10 N 3.414018 2.567753 -0.732656 0
M  V30 11 N 2.648411 3.423114 -0.061706 0
M  V30 12 C 1.691454 2.776491 0.638487 0
M  V30 13 C 0.678562 3.400342 1.485283 0
M  V30 14 C 1.092616 4.408358 2.354073 0
M  V30 15 C 0.161072 5.035301 3.183843 0
M  V30 16 C -1.148850 4.610097 3.093696 0
M  V30 17 C -1.600564 3.601506 2.233519 0
M  V30 18 N -2.982064 3.258879 2.240123 0
M  V30 19 S -3.943449 3.015258 0.852959 0
M  V30 20 C -3.372091 1.676169 -0.153290 0
M  V30 21 O -4.036158 4.303725 0.068695 0
M  V30 22 O -5.336070 2.692851 1.300188 0
M  V30 23 C -0.640850 3.014162 1.434977 0
M  V30 24 C 1.852003 1.425238 0.403236 0
M  V30 25 C 1.202337 0.289348 0.822365 0
M  V30 26 C -0.295651 -5.337226 -0.015657 0
M  V30 27 C 0.303690 -5.682493 -1.218735 0
M  V30 28 C -0.419044 -6.380922 -2.165581 0
M  V30 29 C -1.729930 -6.762072 -1.978132 0
M  V30 30 C -2.357313 -6.436284 -0.795389 0
M  V30 31 C -1.621617 -5.740115 0.136625 0
M  V30 32 H 1.097684 -5.287057 2.977157 0
M  V30 33 H 2.363503 -5.143205 1.759518 0
M  V30 34 H 1.176707 -6.537925 1.706674 0
M  V30 35 H -0.397434 -4.157677 1.721204 0
M  V30 36 H 1.946789 -3.660226 -0.081640 0
M  V30 37 H 2.973899 -2.032597 -0.757811 0
M  V30 38 H 4.176013 -0.088819 -1.546113 0
M  V30 39 H 4.225070 2.782755 -1.352971 0
M  V30 40 H 2.122268 4.756685 2.438451 0
M  V30 41 H 0.414848 5.825874 3.882494 0
M  V30 42 H -1.871103 5.095914 3.736822 0
M  V30 43 H -3.366655 3.167157 3.227887 0
M  V30 44 H -2.673717 2.085756 -0.912370 0
M  V30 45 H -4.257898 1.208944 -0.663983 0
M  V30 46 H -2.935302 0.891189 0.481214 0
M  V30 47 H -0.975523 2.244564 0.776106 0
M  V30 48 H 0.375565 0.390847 1.480667 0
M  V30 49 H 1.345018 -5.382509 -1.373615 0
M  V30 50 H 0.046879 -6.657178 -3.117759 0
M  V30 51 H -2.283932 -7.314029 -2.739586 0
M  V30 52 H -3.383436 -6.705754 -0.586514 0
M  V30 53 H -2.120968 -5.485074 1.068868 0
M  V30 END ATOM
M  V30 BEGIN BOND
M  V30 1 1 1 2
M  V30 2 1 2 3
M  V30 3 1 3 4
M  V30 4 2 4 5
M  V30 5 1 4 6
M  V30 6 2 6 7
M  V30 7 1 7 8
M  V30 8 2 8 9
M  V30 9 1 9 10
M  V30 10 1 10 11
M  V30 11 2 11 12
M  V30 12 1 12 13
M  V30 13 2 13 14
M  V30 14 1 14 15
M  V30 15 2 15 16
M  V30 16 1 16 17
M  V30 17 1 17 18
M  V30 18 1 18 19
M  V30 19 1 19 20
M  V30 20 2 19 21
M  V30 21 2 19 22
M  V30 22 2 17 23
M  V30 23 1 12 24
M  V30 24 2 24 25
M  V30 25 1 2 26
M  V30 26 2 26 27
M  V30 27 1 27 28
M  V30 28 2 28 29
M  V30 29 1 29 30
M  V30 30 2 30 31
M  V30 31 1 25 6
M  V30 32 1 31 26
M  V30 33 1 24 9
M  V30 34 1 23 13
M  V30 35 1 1 32
M  V30 36 1 1 33
M  V30 37 1 1 34
M  V30 38 1 2 35 CFG=1
M  V30 39 1 3 36
M  V30 40 1 7 37
M  V30 41 1 8 38
M  V30 42 1 10 39
M  V30 43 1 14 40
M  V30 44 1 15 41
M  V30 45 1 16 42
M  V30 46 1 18 43
M  V30 47 1 20 44
M  V30 48 1 20 45
M  V30 49 1 20 46
M  V30 50 1 23 47
M  V30 51 1 25 48
M  V30 52 1 27 49
M  V30 53 1 28 50
M  V30 54 1 29 51
M  V30 55 1 30 52
M  V30 56 1 31 53
M  V30 END BOND
M  V30 END CTAB
M  END
>  <Dataset>  (634) 
ChEMBL_Kinases

>  <Ligand_Instance>  (634) 
nan

>  <PDB_ID>  (634) 
nan

>  <Standardized_SMILES>  (634) 
C[C@@H](NC(=O)c1ccc2[nH]nc(-c3cccc(NS(C)(=O)=O)c3)c2c1)c1ccccc1

>  <Name>  (634) 
nan

>  <Pocket>  (634) 
nan

>  <ATP_Site>  (634) 
nan

>  <Peripheral>  (634) 
nan

>  <Num_H_Atoms_ProtBoundConf>  (634) 
nan

>  <Num_Resolved_Atoms>  (634) 
nan

>  <Num_Not_Resolved_Atoms>  (634) 
nan

$$$$
CHEMBL4518386
     RDKit          3D

  0  0  0  0  0  0  0  0  0  0999 V3000
M  V30 BEGIN CTAB
M  V30 COUNTS 48 51 0 0 0
M  V30 BEGIN ATOM
M  V30 1 C 3.259333 -3.991841 1.304098 0
M  V30 2 N 2.851755 -4.969936 0.293127 0
M  V30 3 N 3.325247 -6.186062 0.208833 0
M  V30 4 C 2.731283 -6.785405 -0.822142 0
M  V30 5 C 1.865429 -5.866213 -1.365946 0
M  V30 6 C 1.939255 -4.701483 -0.654578 0
M  V30 7 C 1.152580 -3.515884 -0.960853 0
M  V30 8 C 0.250307 -3.453918 -2.006164 0
M  V30 9 O -0.299683 -2.263007 -2.026953 0
M  V30 10 C 0.153384 -1.492058 -1.073366 0
M  V30 11 C -0.237360 -0.113144 -0.803325 0
M  V30 12 O -1.101574 0.364624 -1.581102 0
M  V30 13 N 0.352235 0.592012 0.278559 0
M  V30 14 C -0.069830 1.958921 0.504746 0 CFG=2
M  V30 15 C 1.060922 2.939869 0.379780 0
M  V30 16 N 1.016451 3.897860 1.466793 0
M  V30 17 C -0.285190 4.514224 1.594809 0
M  V30 18 C -1.382558 3.511032 1.809703 0
M  V30 19 C -0.710295 2.132696 1.859973 0 CFG=1
M  V30 20 C -1.717459 1.076937 2.138549 0
M  V30 21 C -1.735918 0.230611 3.230777 0
M  V30 22 C -2.746973 -0.702455 3.343751 0
M  V30 23 C -3.752540 -0.819798 2.390429 0
M  V30 24 Cl -5.026536 -2.017797 2.562005 0
M  V30 25 C -3.764769 0.008133 1.288578 0
M  V30 26 C -2.733828 0.932996 1.208309 0
M  V30 27 C 1.070182 -2.264633 -0.390558 0
M  V30 28 H 3.707470 -3.098508 0.839748 0
M  V30 29 H 2.424515 -3.657815 1.942198 0
M  V30 30 H 3.994931 -4.459238 2.012330 0
M  V30 31 H 2.925295 -7.797840 -1.131664 0
M  V30 32 H 1.257244 -6.114893 -2.226355 0
M  V30 33 H -0.034390 -4.200105 -2.745326 0
M  V30 34 H 1.057494 0.155628 0.888406 0
M  V30 35 H -0.837197 2.232663 -0.267775 0
M  V30 36 H 2.050675 2.423113 0.461017 0
M  V30 37 H 1.038749 3.471041 -0.612717 0
M  V30 38 H 1.719749 4.621930 1.284674 0
M  V30 39 H -0.248839 5.182692 2.475001 0
M  V30 40 H -0.456115 5.162432 0.703465 0
M  V30 41 H -2.007933 3.500092 0.874329 0
M  V30 42 H -2.023855 3.691756 2.671989 0
M  V30 43 H 0.039193 2.140249 2.674623 0
M  V30 44 H -0.934085 0.359631 3.944327 0
M  V30 45 H -2.745727 -1.358946 4.208139 0
M  V30 46 H -4.522551 -0.054090 0.535693 0
M  V30 47 H -2.768370 1.575175 0.326088 0
M  V30 48 H 1.643922 -1.958461 0.458704 0
M  V30 END ATOM
M  V30 BEGIN BOND
M  V30 1 1 1 2
M  V30 2 1 2 3
M  V30 3 2 3 4
M  V30 4 1 4 5
M  V30 5 2 5 6
M  V30 6 1 6 7
M  V30 7 2 7 8
M  V30 8 1 8 9
M  V30 9 1 9 10
M  V30 10 1 10 11
M  V30 11 2 11 12
M  V30 12 1 11 13
M  V30 13 1 13 14
M  V30 14 1 14 15
M  V30 15 1 15 16
M  V30 16 1 16 17
M  V30 17 1 17 18
M  V30 18 1 18 19
M  V30 19 1 19 20
M  V30 20 2 20 21
M  V30 21 1 21 22
M  V30 22 2 22 23
M  V30 23 1 23 24
M  V30 24 1 23 25
M  V30 25 2 25 26
M  V30 26 2 10 27
M  V30 27 1 6 2
M  V30 28 1 27 7
M  V30 29 1 19 14
M  V30 30 1 26 20
M  V30 31 1 1 28
M  V30 32 1 1 29
M  V30 33 1 1 30
M  V30 34 1 4 31
M  V30 35 1 5 32
M  V30 36 1 8 33
M  V30 37 1 13 34
M  V30 38 1 14 35 CFG=3
M  V30 39 1 15 36
M  V30 40 1 15 37
M  V30 41 1 16 38
M  V30 42 1 17 39
M  V30 43 1 17 40
M  V30 44 1 18 41
M  V30 45 1 18 42
M  V30 46 1 19 43 CFG=1
M  V30 47 1 21 44
M  V30 48 1 22 45
M  V30 49 1 25 46
M  V30 50 1 26 47
M  V30 51 1 27 48
M  V30 END BOND
M  V30 END CTAB
M  END
>  <Dataset>  (635) 
ChEMBL_Kinases

>  <Ligand_Instance>  (635) 
nan

>  <PDB_ID>  (635) 
nan

>  <Standardized_SMILES>  (635) 
Cn1nccc1-c1coc(C(=O)N[C@@H]2CNCC[C@H]2c2ccc(Cl)cc2)c1

>  <Name>  (635) 
nan

>  <Pocket>  (635) 
nan

>  <ATP_Site>  (635) 
nan

>  <Peripheral>  (635) 
nan

>  <Num_H_Atoms_ProtBoundConf>  (635) 
nan

>  <Num_Resolved_Atoms>  (635) 
nan

>  <Num_Not_Resolved_Atoms>  (635) 
nan

$$$$
CHEMBL4519315
     RDKit          3D

  0  0  0  0  0  0  0  0  0  0999 V3000
M  V30 BEGIN CTAB
M  V30 COUNTS 44 47 0 0 0
M  V30 BEGIN ATOM
M  V30 1 C 3.883233 -6.403244 -0.989854 0
M  V30 2 C 3.275085 -5.070805 -1.228963 0
M  V30 3 C 1.941386 -4.856228 -1.557283 0
M  V30 4 C 1.838299 -3.480337 -1.681094 0
M  V30 5 C 0.637411 -2.642698 -2.023381 0
M  V30 6 C 0.545020 -2.454385 -3.498842 0
M  V30 7 O -0.470104 -3.353277 -1.579954 0
M  V30 8 C 0.769493 -1.337876 -1.372062 0
M  V30 9 C 0.894243 -0.269827 -0.824459 0
M  V30 10 C 1.054628 0.991291 -0.153344 0
M  V30 11 C 1.800062 2.040682 -0.690524 0
M  V30 12 C 1.905519 3.234757 0.028014 0
M  V30 13 C 1.300479 3.424744 1.255613 0
M  V30 14 C 0.549937 2.389318 1.812557 0
M  V30 15 C -0.125377 2.495177 3.102066 0
M  V30 16 C 0.438103 3.027633 4.262966 0
M  V30 17 N -0.468368 2.964620 5.254717 0
M  V30 18 C -1.596042 2.410477 4.774264 0
M  V30 19 C -2.824149 2.120725 5.381453 0
M  V30 20 N -3.760663 1.549722 4.583228 0
M  V30 21 C -3.547885 1.268661 3.284465 0
M  V30 22 N -4.546677 0.666885 2.459099 0
M  V30 23 N -2.374660 1.537029 2.674001 0
M  V30 24 C -1.409053 2.105603 3.424350 0
M  V30 25 C 0.475073 1.230531 1.066060 0
M  V30 26 N 3.047381 -2.930628 -1.437348 0
M  V30 27 O 3.864367 -3.906475 -1.175081 0
M  V30 28 H 4.900175 -6.471929 -1.451272 0
M  V30 29 H 3.892006 -6.623579 0.097174 0
M  V30 30 H 3.256983 -7.182959 -1.468713 0
M  V30 31 H 1.131362 -5.549379 -1.697062 0
M  V30 32 H 0.966746 -3.372829 -3.996733 0
M  V30 33 H -0.514090 -2.406563 -3.881311 0
M  V30 34 H 1.051071 -1.564336 -3.880227 0
M  V30 35 H -0.759656 -3.066651 -0.682559 0
M  V30 36 H 2.272420 1.888391 -1.651909 0
M  V30 37 H 2.486438 4.056162 -0.387859 0
M  V30 38 H 1.383804 4.348966 1.808736 0
M  V30 39 H 1.453316 3.431997 4.354952 0
M  V30 40 H -0.282086 3.307846 6.240904 0
M  V30 41 H -3.007578 2.341731 6.424355 0
M  V30 42 H -5.414073 1.234973 2.560483 0
M  V30 43 H -4.410336 -0.196413 1.862545 0
M  V30 44 H -0.105359 0.401675 1.475417 0
M  V30 END ATOM
M  V30 BEGIN BOND
M  V30 1 1 1 2
M  V30 2 2 2 3
M  V30 3 1 3 4
M  V30 4 1 4 5
M  V30 5 1 5 6
M  V30 6 1 5 7
M  V30 7 1 5 8
M  V30 8 3 8 9
M  V30 9 1 9 10
M  V30 10 2 10 11
M  V30 11 1 11 12
M  V30 12 2 12 13
M  V30 13 1 13 14
M  V30 14 1 14 15
M  V30 15 2 15 16
M  V30 16 1 16 17
M  V30 17 1 17 18
M  V30 18 2 18 19
M  V30 19 1 19 20
M  V30 20 2 20 21
M  V30 21 1 21 22
M  V30 22 1 21 23
M  V30 23 2 23 24
M  V30 24 2 14 25
M  V30 25 2 4 26
M  V30 26 1 26 27
M  V30 27 1 27 2
M  V30 28 1 25 10
M  V30 29 1 24 15
M  V30 30 1 24 18
M  V30 31 1 1 28
M  V30 32 1 1 29
M  V30 33 1 1 30
M  V30 34 1 3 31
M  V30 35 1 6 32
M  V30 36 1 6 33
M  V30 37 1 6 34
M  V30 38 1 7 35
M  V30 39 1 11 36
M  V30 40 1 12 37
M  V30 41 1 13 38
M  V30 42 1 16 39
M  V30 43 1 17 40
M  V30 44 1 19 41
M  V30 45 1 22 42
M  V30 46 1 22 43
M  V30 47 1 25 44
M  V30 END BOND
M  V30 END CTAB
M  END
>  <Dataset>  (636) 
ChEMBL_Kinases

>  <Ligand_Instance>  (636) 
nan

>  <PDB_ID>  (636) 
nan

>  <Standardized_SMILES>  (636) 
Cc1cc(C(C)(O)C#Cc2cccc(-c3c[nH]c4cnc(N)nc34)c2)no1

>  <Name>  (636) 
nan

>  <Pocket>  (636) 
nan

>  <ATP_Site>  (636) 
nan

>  <Peripheral>  (636) 
nan

>  <Num_H_Atoms_ProtBoundConf>  (636) 
nan

>  <Num_Resolved_Atoms>  (636) 
nan

>  <Num_Not_Resolved_Atoms>  (636) 
nan

$$$$
CHEMBL4647065
     RDKit          3D

  0  0  0  0  0  0  0  0  0  0999 V3000
M  V30 BEGIN CTAB
M  V30 COUNTS 51 54 0 0 0
M  V30 BEGIN ATOM
M  V30 1 C 2.262767 -2.640159 -2.481666 0
M  V30 2 O 2.023156 -1.980814 -1.256609 0
M  V30 3 C 2.827510 -0.974840 -0.741502 0
M  V30 4 N 3.933937 -0.485731 -1.318870 0
M  V30 5 N 4.464379 0.463884 -0.567568 0
M  V30 6 C 5.655988 1.183542 -0.912879 0
M  V30 7 C 5.393625 2.437042 -1.719508 0
M  V30 8 C 6.680899 3.194901 -2.079910 0
M  V30 9 C 5.636502 3.773689 -1.176000 0
M  V30 10 C 3.671606 0.574317 0.508546 0
M  V30 11 C 2.618936 -0.313809 0.450019 0
M  V30 12 C 1.564723 -0.474030 1.441857 0
M  V30 13 O 1.574489 0.250395 2.469947 0
M  V30 14 N 0.524778 -1.428111 1.278094 0
M  V30 15 C -0.553342 -1.674338 2.173628 0
M  V30 16 C -0.409647 -2.605571 3.166781 0
M  V30 17 C -1.372823 -2.954273 4.114601 0
M  V30 18 C -2.563712 -2.235821 3.960058 0
M  V30 19 C -2.748784 -1.294473 2.978677 0
M  V30 20 C -4.002607 -0.562709 2.844428 0
M  V30 21 N -4.175294 0.675517 3.361610 0
M  V30 22 N -5.409667 1.113401 3.096253 0
M  V30 23 C -6.032279 0.139573 2.399802 0
M  V30 24 N -5.173770 -0.883886 2.245776 0
M  V30 25 C -5.314049 -2.166967 1.588119 0
M  V30 26 C -6.739544 -2.438731 1.158942 0
M  V30 27 C -4.428540 -2.272175 0.368325 0
M  V30 28 N -1.741040 -1.046802 2.122144 0
M  V30 29 H 3.261121 -2.389253 -2.897892 0
M  V30 30 H 2.251897 -3.752290 -2.358579 0
M  V30 31 H 1.530262 -2.326340 -3.279514 0
M  V30 32 H 6.183433 1.404554 0.035872 0
M  V30 33 H 6.335368 0.530967 -1.499162 0
M  V30 34 H 4.636287 2.331452 -2.525926 0
M  V30 35 H 6.801426 3.585445 -3.100034 0
M  V30 36 H 7.618074 2.907074 -1.587157 0
M  V30 37 H 5.912656 3.965658 -0.114459 0
M  V30 38 H 5.038581 4.612868 -1.617229 0
M  V30 39 H 3.874812 1.294693 1.309018 0
M  V30 40 H 0.461129 -2.045205 0.466927 0
M  V30 41 H 0.539130 -3.153160 3.261090 0
M  V30 42 H -1.183794 -3.695874 4.863031 0
M  V30 43 H -3.364186 -2.458863 4.670271 0
M  V30 44 H -7.045103 0.119965 2.003635 0
M  V30 45 H -5.026551 -3.000962 2.274963 0
M  V30 46 H -6.791425 -3.508760 0.888740 0
M  V30 47 H -7.397479 -2.199384 2.025119 0
M  V30 48 H -6.985164 -1.754557 0.322163 0
M  V30 49 H -4.878798 -2.912932 -0.418076 0
M  V30 50 H -4.241073 -1.285830 -0.099049 0
M  V30 51 H -3.451096 -2.768995 0.627812 0
M  V30 END ATOM
M  V30 BEGIN BOND
M  V30 1 1 1 2
M  V30 2 1 2 3
M  V30 3 2 3 4
M  V30 4 1 4 5
M  V30 5 1 5 6
M  V30 6 1 6 7
M  V30 7 1 7 8
M  V30 8 1 8 9
M  V30 9 1 5 10
M  V30 10 2 10 11
M  V30 11 1 11 12
M  V30 12 2 12 13
M  V30 13 1 12 14
M  V30 14 1 14 15
M  V30 15 2 15 16
M  V30 16 1 16 17
M  V30 17 2 17 18
M  V30 18 1 18 19
M  V30 19 1 19 20
M  V30 20 2 20 21
M  V30 21 1 21 22
M  V30 22 2 22 23
M  V30 23 1 23 24
M  V30 24 1 24 25
M  V30 25 1 25 26
M  V30 26 1 25 27
M  V30 27 2 19 28
M  V30 28 1 11 3
M  V30 29 1 28 15
M  V30 30 1 9 7
M  V30 31 1 24 20
M  V30 32 1 1 29
M  V30 33 1 1 30
M  V30 34 1 1 31
M  V30 35 1 6 32
M  V30 36 1 6 33
M  V30 37 1 7 34
M  V30 38 1 8 35
M  V30 39 1 8 36
M  V30 40 1 9 37
M  V30 41 1 9 38
M  V30 42 1 10 39
M  V30 43 1 14 40
M  V30 44 1 16 41
M  V30 45 1 17 42
M  V30 46 1 18 43
M  V30 47 1 23 44
M  V30 48 1 25 45
M  V30 49 1 26 46
M  V30 50 1 26 47
M  V30 51 1 26 48
M  V30 52 1 27 49
M  V30 53 1 27 50
M  V30 54 1 27 51
M  V30 END BOND
M  V30 END CTAB
M  END
>  <Dataset>  (637) 
ChEMBL_Kinases

>  <Ligand_Instance>  (637) 
nan

>  <PDB_ID>  (637) 
nan

>  <Standardized_SMILES>  (637) 
COc1nn(CC2CC2)cc1C(=O)Nc1cccc(-c2nncn2C(C)C)n1

>  <Name>  (637) 
nan

>  <Pocket>  (637) 
nan

>  <ATP_Site>  (637) 
nan

>  <Peripheral>  (637) 
nan

>  <Num_H_Atoms_ProtBoundConf>  (637) 
nan

>  <Num_Resolved_Atoms>  (637) 
nan

>  <Num_Not_Resolved_Atoms>  (637) 
nan

$$$$
CHEMBL4519255
     RDKit          3D

  0  0  0  0  0  0  0  0  0  0999 V3000
M  V30 BEGIN CTAB
M  V30 COUNTS 51 55 0 0 0
M  V30 BEGIN ATOM
M  V30 1 C 0.011732 -2.833236 7.352101 0
M  V30 2 C 0.803932 -2.699991 6.105324 0
M  V30 3 C 0.371886 -3.288259 4.897791 0
M  V30 4 C 1.188164 -3.101527 3.810853 0
M  V30 5 C 2.374900 -2.407259 3.767211 0
M  V30 6 N 3.132460 -2.282214 2.577954 0
M  V30 7 C 2.873917 -2.763605 1.240784 0
M  V30 8 C 1.752526 -2.004073 0.635418 0
M  V30 9 N 2.129079 -0.869089 -0.032000 0
M  V30 10 C 1.040420 -0.272342 -0.545755 0
M  V30 11 C 0.989276 0.981760 -1.356791 0
M  V30 12 C 0.723088 1.004097 -2.650673 0
M  V30 13 C 0.704039 2.214473 -3.251369 0
M  V30 14 C 0.468406 2.636230 -4.574228 0
M  V30 15 N 0.495477 3.935359 -4.995949 0
M  V30 16 C 0.764151 4.943123 -4.120240 0
M  V30 17 C 1.023907 4.713309 -2.762783 0
M  V30 18 C 0.939052 3.360390 -2.600492 0
M  V30 19 S 1.229661 2.657561 -0.903387 0
M  V30 20 C -0.039211 -1.017150 -0.211367 0
M  V30 21 C -1.450663 -0.812772 -0.511574 0
M  V30 22 C -2.065542 0.362184 -0.062338 0
M  V30 23 C -3.379782 0.620603 -0.295950 0
M  V30 24 C -4.189376 -0.233012 -0.976610 0
M  V30 25 C -3.561858 -1.402364 -1.419656 0
M  V30 26 C -4.206138 -2.504132 -2.181840 0
M  V30 27 N -2.269475 -1.639386 -1.180997 0
M  V30 28 N 0.430369 -2.040390 0.491497 0
M  V30 29 C 2.802805 -1.826967 4.951463 0
M  V30 30 C 1.987209 -2.013699 6.039508 0
M  V30 31 H -0.799493 -3.583730 7.238055 0
M  V30 32 H 0.688571 -3.143826 8.201537 0
M  V30 33 H -0.451882 -1.891093 7.687606 0
M  V30 34 H -0.541607 -3.826797 4.914553 0
M  V30 35 H 0.784127 -3.597463 2.926704 0
M  V30 36 H 4.050317 -1.746258 2.668313 0
M  V30 37 H 2.540547 -3.834732 1.265856 0
M  V30 38 H 3.783960 -2.768560 0.625384 0
M  V30 39 H 0.519956 0.125418 -3.275341 0
M  V30 40 H 0.239518 1.912778 -5.384149 0
M  V30 41 H 0.781232 5.981887 -4.479903 0
M  V30 42 H 1.239719 5.448762 -2.022064 0
M  V30 43 H -1.478642 1.084117 0.486245 0
M  V30 44 H -3.881037 1.538610 0.049075 0
M  V30 45 H -5.235631 -0.164903 -1.232751 0
M  V30 46 H -3.922177 -3.467229 -1.666701 0
M  V30 47 H -5.294744 -2.358962 -2.147240 0
M  V30 48 H -3.801586 -2.586399 -3.193527 0
M  V30 49 H -0.087547 -2.822200 0.913333 0
M  V30 50 H 3.720672 -1.283712 4.937166 0
M  V30 51 H 2.319018 -1.560038 6.976606 0
M  V30 END ATOM
M  V30 BEGIN BOND
M  V30 1 1 1 2
M  V30 2 2 2 3
M  V30 3 1 3 4
M  V30 4 2 4 5
M  V30 5 1 5 6
M  V30 6 1 6 7
M  V30 7 1 7 8
M  V30 8 2 8 9
M  V30 9 1 9 10
M  V30 10 1 10 11
M  V30 11 2 11 12
M  V30 12 1 12 13
M  V30 13 2 13 14
M  V30 14 1 14 15
M  V30 15 2 15 16
M  V30 16 1 16 17
M  V30 17 2 17 18
M  V30 18 1 18 19
M  V30 19 2 10 20
M  V30 20 1 20 21
M  V30 21 2 21 22
M  V30 22 1 22 23
M  V30 23 2 23 24
M  V30 24 1 24 25
M  V30 25 1 25 26
M  V30 26 2 25 27
M  V30 27 1 20 28
M  V30 28 1 5 29
M  V30 29 2 29 30
M  V30 30 1 30 2
M  V30 31 1 28 8
M  V30 32 1 19 11
M  V30 33 1 27 21
M  V30 34 1 18 13
M  V30 35 1 1 31
M  V30 36 1 1 32
M  V30 37 1 1 33
M  V30 38 1 3 34
M  V30 39 1 4 35
M  V30 40 1 6 36
M  V30 41 1 7 37
M  V30 42 1 7 38
M  V30 43 1 12 39
M  V30 44 1 14 40
M  V30 45 1 16 41
M  V30 46 1 17 42
M  V30 47 1 22 43
M  V30 48 1 23 44
M  V30 49 1 24 45
M  V30 50 1 26 46
M  V30 51 1 26 47
M  V30 52 1 26 48
M  V30 53 1 28 49
M  V30 54 1 29 50
M  V30 55 1 30 51
M  V30 END BOND
M  V30 END CTAB
M  END
>  <Dataset>  (638) 
ChEMBL_Kinases

>  <Ligand_Instance>  (638) 
nan

>  <PDB_ID>  (638) 
nan

>  <Standardized_SMILES>  (638) 
Cc1ccc(NCc2nc(-c3cc4cnccc4s3)c(-c3cccc(C)n3)[nH]2)cc1

>  <Name>  (638) 
nan

>  <Pocket>  (638) 
nan

>  <ATP_Site>  (638) 
nan

>  <Peripheral>  (638) 
nan

>  <Num_H_Atoms_ProtBoundConf>  (638) 
nan

>  <Num_Resolved_Atoms>  (638) 
nan

>  <Num_Not_Resolved_Atoms>  (638) 
nan

$$$$
CHEMBL4519014
     RDKit          3D

  0  0  0  0  0  0  0  0  0  0999 V3000
M  V30 BEGIN CTAB
M  V30 COUNTS 52 56 0 0 0
M  V30 BEGIN ATOM
M  V30 1 O -1.755728 -4.044084 3.127648 0
M  V30 2 C -1.307505 -2.949861 2.655885 0
M  V30 3 C 0.131686 -2.717922 2.495429 0
M  V30 4 C 0.740099 -1.657603 2.033719 0
M  V30 5 C 2.182095 -1.491043 1.899926 0
M  V30 6 C 3.108676 -2.440183 2.235330 0
M  V30 7 N 4.447365 -2.257566 2.103207 0
M  V30 8 C 4.896416 -1.086979 1.618586 0
M  V30 9 N 6.140540 -0.606566 1.372951 0
M  V30 10 C 6.075177 0.652808 0.876247 0
M  V30 11 C 4.750800 1.031502 0.784678 0
M  V30 12 C 4.223034 2.305537 0.303973 0
M  V30 13 C 4.712024 2.884703 -0.851779 0
M  V30 14 C 4.229085 4.087001 -1.323679 0
M  V30 15 C 3.242394 4.769636 -0.674963 0
M  V30 16 C 2.738843 4.210638 0.481143 0
M  V30 17 C 3.225166 3.010642 0.946574 0
M  V30 18 C 4.036248 -0.070472 1.253385 0
M  V30 19 C 2.683674 -0.303712 1.406186 0
M  V30 20 N -2.316381 -2.006527 2.311958 0
M  V30 21 C -3.719923 -2.189714 2.451872 0
M  V30 22 C -4.283230 -3.347898 1.664238 0
M  V30 23 C -4.051798 -3.203604 0.214541 0
M  V30 24 C -3.119155 -3.861520 -0.592279 0
M  V30 25 N -3.287670 -3.394476 -1.857683 0
M  V30 26 C -4.280381 -2.482026 -1.859057 0
M  V30 27 N -4.760000 -1.784412 -2.898575 0
M  V30 28 C -5.763252 -0.896379 -2.759664 0
M  V30 29 C -6.311365 -0.702145 -1.506447 0
M  V30 30 C -5.815491 -1.424171 -0.428642 0
M  V30 31 C -4.789168 -2.332166 -0.571934 0
M  V30 32 H 0.776510 -3.544312 2.804138 0
M  V30 33 H 0.083723 -0.855451 1.735252 0
M  V30 34 H 2.785058 -3.392576 2.627571 0
M  V30 35 H 7.024639 -1.136393 1.544042 0
M  V30 36 H 6.903336 1.290611 0.586516 0
M  V30 37 H 5.508167 2.404571 -1.440126 0
M  V30 38 H 4.607397 4.557087 -2.237843 0
M  V30 39 H 2.836001 5.700228 -0.998038 0
M  V30 40 H 1.942789 4.715903 1.046394 0
M  V30 41 H 2.801930 2.606603 1.858759 0
M  V30 42 H 1.969512 0.469976 1.130621 0
M  V30 43 H -1.920591 -1.099390 1.918897 0
M  V30 44 H -4.239714 -1.286598 2.072223 0
M  V30 45 H -3.948378 -2.248997 3.520672 0
M  V30 46 H -5.359853 -3.495621 1.886281 0
M  V30 47 H -3.786110 -4.270446 2.022636 0
M  V30 48 H -2.437377 -4.595156 -0.158823 0
M  V30 49 H -2.667409 -3.781610 -2.598316 0
M  V30 50 H -6.194293 -0.299888 -3.569416 0
M  V30 51 H -7.119280 -0.019998 -1.260614 0
M  V30 52 H -6.203990 -1.316526 0.580089 0
M  V30 END ATOM
M  V30 BEGIN BOND
M  V30 1 2 1 2
M  V30 2 1 2 3
M  V30 3 2 3 4
M  V30 4 1 4 5
M  V30 5 2 5 6
M  V30 6 1 6 7
M  V30 7 2 7 8
M  V30 8 1 8 9
M  V30 9 1 9 10
M  V30 10 2 10 11
M  V30 11 1 11 12
M  V30 12 2 12 13
M  V30 13 1 13 14
M  V30 14 2 14 15
M  V30 15 1 15 16
M  V30 16 2 16 17
M  V30 17 1 11 18
M  V30 18 2 18 19
M  V30 19 1 2 20
M  V30 20 1 20 21
M  V30 21 1 21 22
M  V30 22 1 22 23
M  V30 23 2 23 24
M  V30 24 1 24 25
M  V30 25 1 25 26
M  V30 26 2 26 27
M  V30 27 1 27 28
M  V30 28 2 28 29
M  V30 29 1 29 30
M  V30 30 2 30 31
M  V30 31 1 19 5
M  V30 32 1 31 23
M  V30 33 1 18 8
M  V30 34 1 31 26
M  V30 35 1 17 12
M  V30 36 1 3 32
M  V30 37 1 4 33
M  V30 38 1 6 34
M  V30 39 1 9 35
M  V30 40 1 10 36
M  V30 41 1 13 37
M  V30 42 1 14 38
M  V30 43 1 15 39
M  V30 44 1 16 40
M  V30 45 1 17 41
M  V30 46 1 19 42
M  V30 47 1 20 43
M  V30 48 1 21 44
M  V30 49 1 21 45
M  V30 50 1 22 46
M  V30 51 1 22 47
M  V30 52 1 24 48
M  V30 53 1 25 49
M  V30 54 1 28 50
M  V30 55 1 29 51
M  V30 56 1 30 52
M  V30 END BOND
M  V30 END CTAB
M  END
>  <Dataset>  (639) 
ChEMBL_Kinases

>  <Ligand_Instance>  (639) 
nan

>  <PDB_ID>  (639) 
nan

>  <Standardized_SMILES>  (639) 
O=C(/C=C/c1cnc2[nH]cc(-c3ccccc3)c2c1)NCCc1c[nH]c2ncccc12

>  <Name>  (639) 
nan

>  <Pocket>  (639) 
nan

>  <ATP_Site>  (639) 
nan

>  <Peripheral>  (639) 
nan

>  <Num_H_Atoms_ProtBoundConf>  (639) 
nan

>  <Num_Resolved_Atoms>  (639) 
nan

>  <Num_Not_Resolved_Atoms>  (639) 
nan

$$$$
CHEMBL4518783
     RDKit          3D

  0  0  0  0  0  0  0  0  0  0999 V3000
M  V30 BEGIN CTAB
M  V30 COUNTS 51 54 0 0 0
M  V30 BEGIN ATOM
M  V30 1 O -1.818826 -1.430607 -1.576867 0
M  V30 2 C -1.627018 -1.338623 -0.362957 0
M  V30 3 C -0.518037 -0.532423 0.125367 0
M  V30 4 C 0.496400 0.210762 -0.439899 0
M  V30 5 C 1.439968 0.855682 0.331398 0
M  V30 6 C 2.528826 1.650945 -0.219756 0
M  V30 7 C 2.718573 1.833577 -1.570214 0
M  V30 8 C 3.771186 2.599115 -2.025230 0
M  V30 9 N 4.592217 3.152188 -1.128446 0
M  V30 10 C 4.444605 3.000012 0.207742 0
M  V30 11 N 5.308705 3.578668 1.177283 0
M  V30 12 C 5.150080 3.426277 2.608335 0
M  V30 13 C 3.825811 3.990561 3.058502 0
M  V30 14 O 3.701027 3.829111 4.446621 0
M  V30 15 N 3.418817 2.256349 0.584931 0
M  V30 16 C 1.334478 0.731513 1.701393 0
M  V30 17 C 0.320561 -0.012498 2.319916 0
M  V30 18 C -0.586070 -0.628551 1.498142 0
M  V30 19 C -1.739223 -1.424628 1.907098 0
M  V30 20 N -2.378180 -1.937946 0.682780 0
M  V30 21 C -3.482379 -2.858171 0.700988 0
M  V30 22 C -4.692419 -2.360429 -0.036152 0
M  V30 23 O -4.459801 -2.108012 -1.366347 0
M  V30 24 C -3.186683 -4.232582 0.230735 0
M  V30 25 C -3.710715 -5.295969 0.993352 0
M  V30 26 C -3.575764 -6.648186 0.762480 0
M  V30 27 C -2.845333 -7.016739 -0.339699 0
M  V30 28 C -2.287802 -6.058770 -1.154791 0
M  V30 29 Cl -1.358041 -6.470712 -2.557022 0
M  V30 30 C -2.486626 -4.742180 -0.829033 0
M  V30 31 H 0.539310 0.279855 -1.516379 0
M  V30 32 H 2.057738 1.388299 -2.282771 0
M  V30 33 H 3.971425 2.778967 -3.085856 0
M  V30 34 H 6.106170 4.150178 0.763880 0
M  V30 35 H 5.930056 4.064338 3.093517 0
M  V30 36 H 5.303304 2.392041 2.969756 0
M  V30 37 H 3.764562 5.071004 2.862639 0
M  V30 38 H 2.982158 3.492123 2.559722 0
M  V30 39 H 2.973846 4.404237 4.810048 0
M  V30 40 H 2.076374 1.237300 2.323127 0
M  V30 41 H 0.301183 -0.064770 3.397541 0
M  V30 42 H -2.513584 -0.849690 2.453364 0
M  V30 43 H -1.460102 -2.269689 2.587004 0
M  V30 44 H -3.780147 -2.962901 1.789374 0
M  V30 45 H -5.059081 -1.441953 0.489058 0
M  V30 46 H -5.488943 -3.129229 0.106375 0
M  V30 47 H -4.688762 -1.156990 -1.563686 0
M  V30 48 H -4.310373 -5.078913 1.895370 0
M  V30 49 H -4.015559 -7.392143 1.405557 0
M  V30 50 H -2.695120 -8.044691 -0.586712 0
M  V30 51 H -2.045091 -4.011812 -1.476918 0
M  V30 END ATOM
M  V30 BEGIN BOND
M  V30 1 2 1 2
M  V30 2 1 2 3
M  V30 3 2 3 4
M  V30 4 1 4 5
M  V30 5 1 5 6
M  V30 6 2 6 7
M  V30 7 1 7 8
M  V30 8 2 8 9
M  V30 9 1 9 10
M  V30 10 1 10 11
M  V30 11 1 11 12
M  V30 12 1 12 13
M  V30 13 1 13 14
M  V30 14 2 10 15
M  V30 15 2 5 16
M  V30 16 1 16 17
M  V30 17 2 17 18
M  V30 18 1 18 19
M  V30 19 1 19 20
M  V30 20 1 20 21
M  V30 21 1 21 22
M  V30 22 1 22 23
M  V30 23 1 21 24
M  V30 24 2 24 25
M  V30 25 1 25 26
M  V30 26 2 26 27
M  V30 27 1 27 28
M  V30 28 1 28 29
M  V30 29 2 28 30
M  V30 30 1 20 2
M  V30 31 1 30 24
M  V30 32 1 18 3
M  V30 33 1 15 6
M  V30 34 1 4 31
M  V30 35 1 7 32
M  V30 36 1 8 33
M  V30 37 1 11 34
M  V30 38 1 12 35
M  V30 39 1 12 36
M  V30 40 1 13 37
M  V30 41 1 13 38
M  V30 42 1 14 39
M  V30 43 1 16 40
M  V30 44 1 17 41
M  V30 45 1 19 42
M  V30 46 1 19 43
M  V30 47 1 21 44
M  V30 48 1 22 45
M  V30 49 1 22 46
M  V30 50 1 23 47
M  V30 51 1 25 48
M  V30 52 1 26 49
M  V30 53 1 27 50
M  V30 54 1 30 51
M  V30 END BOND
M  V30 END CTAB
M  END
>  <Dataset>  (640) 
ChEMBL_Kinases

>  <Ligand_Instance>  (640) 
nan

>  <PDB_ID>  (640) 
nan

>  <Standardized_SMILES>  (640) 
O=C1c2cc(-c3ccnc(NCCO)n3)ccc2CN1C(CO)c1cccc(Cl)c1

>  <Name>  (640) 
nan

>  <Pocket>  (640) 
nan

>  <ATP_Site>  (640) 
nan

>  <Peripheral>  (640) 
nan

>  <Num_H_Atoms_ProtBoundConf>  (640) 
nan

>  <Num_Resolved_Atoms>  (640) 
nan

>  <Num_Not_Resolved_Atoms>  (640) 
nan

$$$$
CHEMBL4647220
     RDKit          3D

  0  0  0  0  0  0  0  0  0  0999 V3000
M  V30 BEGIN CTAB
M  V30 COUNTS 49 52 0 0 0
M  V30 BEGIN ATOM
M  V30 1 C -0.791555 -5.283240 3.812457 0
M  V30 2 C -0.088654 -4.165638 3.892635 0
M  V30 3 C 0.625878 -3.865542 2.658766 0
M  V30 4 O 0.456385 -4.708299 1.745958 0
M  V30 5 N 1.447305 -2.747826 2.444870 0
M  V30 6 C 2.047633 -2.670610 1.132722 0
M  V30 7 C 3.295506 -3.216347 0.880133 0
M  V30 8 C 3.803178 -3.110067 -0.395112 0
M  V30 9 C 3.155530 -2.497354 -1.441975 0
M  V30 10 C 1.912080 -1.946400 -1.215566 0
M  V30 11 C 0.979755 -1.262161 -2.110926 0
M  V30 12 C 0.225322 -0.167762 -1.902948 0
M  V30 13 C 0.182147 0.616078 -0.659098 0
M  V30 14 C 1.332409 1.026853 0.031026 0
M  V30 15 N 1.008603 1.712377 1.147401 0
M  V30 16 C 1.889449 2.305191 2.126048 0
M  V30 17 C -0.343751 1.752637 1.192456 0
M  V30 18 C -1.276373 2.289959 2.073584 0
M  V30 19 C -2.641410 2.158024 1.852873 0
M  V30 20 O -3.404018 2.761344 2.845349 0
M  V30 21 C -4.819903 2.735498 2.805473 0
M  V30 22 C -3.136814 1.488606 0.748977 0
M  V30 23 C -2.231604 0.943568 -0.145215 0
M  V30 24 C -0.881268 1.082656 0.087502 0
M  V30 25 C -0.496099 0.044011 -3.142048 0
M  V30 26 O -1.312971 0.997381 -3.316535 0
M  V30 27 N -0.169705 -0.941754 -4.113682 0
M  V30 28 C 0.776449 -1.781770 -3.456358 0
M  V30 29 O 1.290358 -2.775806 -4.023008 0
M  V30 30 C 1.387903 -2.047741 0.072090 0
M  V30 31 H -1.425096 -5.796668 4.516245 0
M  V30 32 H -0.894676 -5.964724 2.981886 0
M  V30 33 H -0.201653 -3.722245 4.856715 0
M  V30 34 H 1.521799 -2.107080 3.267836 0
M  V30 35 H 3.854650 -3.710294 1.656966 0
M  V30 36 H 4.773609 -3.520635 -0.638898 0
M  V30 37 H 3.471203 -2.366604 -2.464983 0
M  V30 38 H 2.380769 0.867026 -0.215672 0
M  V30 39 H 1.375678 3.138177 2.662366 0
M  V30 40 H 2.828973 2.651228 1.656356 0
M  V30 41 H 2.177376 1.563239 2.908833 0
M  V30 42 H -0.832397 2.800214 2.917076 0
M  V30 43 H -5.129639 1.690981 2.526842 0
M  V30 44 H -5.217563 2.878941 3.852937 0
M  V30 45 H -5.273581 3.502315 2.169371 0
M  V30 46 H -4.206859 1.432550 0.652465 0
M  V30 47 H -2.629025 0.428428 -0.991065 0
M  V30 48 H -0.606106 -0.941353 -5.080381 0
M  V30 49 H 0.403675 -1.656818 0.382852 0
M  V30 END ATOM
M  V30 BEGIN BOND
M  V30 1 2 1 2
M  V30 2 1 2 3
M  V30 3 2 3 4
M  V30 4 1 3 5
M  V30 5 1 5 6
M  V30 6 2 6 7
M  V30 7 1 7 8
M  V30 8 2 8 9
M  V30 9 1 9 10
M  V30 10 1 10 11
M  V30 11 2 11 12
M  V30 12 1 12 13
M  V30 13 2 13 14
M  V30 14 1 14 15
M  V30 15 1 15 16
M  V30 16 1 15 17
M  V30 17 2 17 18
M  V30 18 1 18 19
M  V30 19 1 19 20
M  V30 20 1 20 21
M  V30 21 2 19 22
M  V30 22 1 22 23
M  V30 23 2 23 24
M  V30 24 1 12 25
M  V30 25 2 25 26
M  V30 26 1 25 27
M  V30 27 1 27 28
M  V30 28 2 28 29
M  V30 29 2 10 30
M  V30 30 1 30 6
M  V30 31 1 28 11
M  V30 32 1 24 13
M  V30 33 1 24 17
M  V30 34 1 1 31
M  V30 35 1 1 32
M  V30 36 1 2 33
M  V30 37 1 5 34
M  V30 38 1 7 35
M  V30 39 1 8 36
M  V30 40 1 9 37
M  V30 41 1 14 38
M  V30 42 1 16 39
M  V30 43 1 16 40
M  V30 44 1 16 41
M  V30 45 1 18 42
M  V30 46 1 21 43
M  V30 47 1 21 44
M  V30 48 1 21 45
M  V30 49 1 22 46
M  V30 50 1 23 47
M  V30 51 1 27 48
M  V30 52 1 30 49
M  V30 END BOND
M  V30 END CTAB
M  END
>  <Dataset>  (641) 
ChEMBL_Kinases

>  <Ligand_Instance>  (641) 
nan

>  <PDB_ID>  (641) 
nan

>  <Standardized_SMILES>  (641) 
C=CC(=O)Nc1cccc(C2=C(c3cn(C)c4cc(OC)ccc34)C(=O)NC2=O)c1

>  <Name>  (641) 
nan

>  <Pocket>  (641) 
nan

>  <ATP_Site>  (641) 
nan

>  <Peripheral>  (641) 
nan

>  <Num_H_Atoms_ProtBoundConf>  (641) 
nan

>  <Num_Resolved_Atoms>  (641) 
nan

>  <Num_Not_Resolved_Atoms>  (641) 
nan

$$$$
CHEMBL4518582
     RDKit          3D

  0  0  0  0  0  0  0  0  0  0999 V3000
M  V30 BEGIN CTAB
M  V30 COUNTS 42 44 0 0 0
M  V30 BEGIN ATOM
M  V30 1 C 0.737487 -4.508467 1.541507 0
M  V30 2 C 0.659218 -2.962597 1.645037 0
M  V30 3 C 2.050053 -2.458211 1.698629 0
M  V30 4 C -0.204482 -2.738104 2.836977 0
M  V30 5 C -0.523064 -1.383007 3.277970 0
M  V30 6 O 0.522465 -0.578880 3.630935 0
M  V30 7 N 0.061355 -2.518416 0.389727 0
M  V30 8 C 0.019428 -1.197535 -0.111277 0
M  V30 9 N 0.595293 -0.161211 0.521307 0
M  V30 10 C 0.606375 1.101397 0.073595 0
M  V30 11 C 1.227888 2.250972 0.710149 0
M  V30 12 C 1.951919 2.204580 1.881461 0
M  V30 13 C 2.559072 3.270707 2.508101 0
M  V30 14 N 2.436733 4.486603 1.921035 0
M  V30 15 C 1.743966 4.605935 0.775792 0
M  V30 16 C 1.154198 3.523972 0.182203 0
M  V30 17 N -0.012433 1.348626 -1.108427 0
M  V30 18 C -0.614348 0.392943 -1.816485 0
M  V30 19 C -1.244243 0.640098 -3.017211 0
M  V30 20 N -1.857407 -0.296859 -3.750927 0
M  V30 21 C -1.851968 -1.574798 -3.269102 0
M  V30 22 C -1.222234 -1.823318 -2.068182 0
M  V30 23 C -0.591617 -0.884183 -1.304655 0
M  V30 24 H 1.398012 -4.911689 2.333174 0
M  V30 25 H -0.254114 -4.956762 1.677875 0
M  V30 26 H 1.141079 -4.818406 0.569296 0
M  V30 27 H 2.434938 -2.430772 0.654155 0
M  V30 28 H 2.128913 -1.401567 2.035060 0
M  V30 29 H 2.758815 -3.123134 2.232364 0
M  V30 30 H -1.176307 -3.269431 2.610360 0
M  V30 31 H 0.209674 -3.315024 3.690972 0
M  V30 32 H -1.193761 -1.413051 4.196878 0
M  V30 33 H -1.164742 -0.813749 2.551875 0
M  V30 34 H 1.183717 -1.021787 4.209319 0
M  V30 35 H -0.377818 -3.264481 -0.183957 0
M  V30 36 H 2.081695 1.259538 2.383629 0
M  V30 37 H 3.113022 3.157358 3.429635 0
M  V30 38 H 1.659815 5.591043 0.323917 0
M  V30 39 H 0.606177 3.702864 -0.751002 0
M  V30 40 H -1.247242 1.661783 -3.400014 0
M  V30 41 H -2.352378 -2.305670 -3.880301 0
M  V30 42 H -1.288256 -2.859854 -1.799680 0
M  V30 END ATOM
M  V30 BEGIN BOND
M  V30 1 1 1 2
M  V30 2 1 2 3
M  V30 3 1 2 4
M  V30 4 1 4 5
M  V30 5 1 5 6
M  V30 6 1 2 7
M  V30 7 1 7 8
M  V30 8 2 8 9
M  V30 9 1 9 10
M  V30 10 1 10 11
M  V30 11 2 11 12
M  V30 12 1 12 13
M  V30 13 2 13 14
M  V30 14 1 14 15
M  V30 15 2 15 16
M  V30 16 2 10 17
M  V30 17 1 17 18
M  V30 18 2 18 19
M  V30 19 1 19 20
M  V30 20 2 20 21
M  V30 21 1 21 22
M  V30 22 2 22 23
M  V30 23 1 23 8
M  V30 24 1 16 11
M  V30 25 1 23 18
M  V30 26 1 1 24
M  V30 27 1 1 25
M  V30 28 1 1 26
M  V30 29 1 3 27
M  V30 30 1 3 28
M  V30 31 1 3 29
M  V30 32 1 4 30
M  V30 33 1 4 31
M  V30 34 1 5 32
M  V30 35 1 5 33
M  V30 36 1 6 34
M  V30 37 1 7 35
M  V30 38 1 12 36
M  V30 39 1 13 37
M  V30 40 1 15 38
M  V30 41 1 16 39
M  V30 42 1 19 40
M  V30 43 1 21 41
M  V30 44 1 22 42
M  V30 END BOND
M  V30 END CTAB
M  END
>  <Dataset>  (642) 
ChEMBL_Kinases

>  <Ligand_Instance>  (642) 
nan

>  <PDB_ID>  (642) 
nan

>  <Standardized_SMILES>  (642) 
CC(C)(CCO)Nc1nc(-c2ccncc2)nc2cnccc12

>  <Name>  (642) 
nan

>  <Pocket>  (642) 
nan

>  <ATP_Site>  (642) 
nan

>  <Peripheral>  (642) 
nan

>  <Num_H_Atoms_ProtBoundConf>  (642) 
nan

>  <Num_Resolved_Atoms>  (642) 
nan

>  <Num_Not_Resolved_Atoms>  (642) 
nan

$$$$
CHEMBL451857
     RDKit          3D

  0  0  0  0  0  0  0  0  0  0999 V3000
M  V30 BEGIN CTAB
M  V30 COUNTS 37 40 0 0 0
M  V30 BEGIN ATOM
M  V30 1 F 1.716574 -3.399492 4.400161 0
M  V30 2 C 1.926736 -3.136772 3.073010 0
M  V30 3 C 1.017844 -3.601808 2.144646 0
M  V30 4 C 1.285975 -3.303972 0.826986 0
M  V30 5 C 2.412757 -2.577575 0.492128 0
M  V30 6 C 3.326439 -2.111805 1.442523 0
M  V30 7 C 4.482304 -1.348669 0.918285 0
M  V30 8 N 4.228116 0.071320 0.832633 0
M  V30 9 C 3.109958 0.315659 -0.045277 0
M  V30 10 N 2.896588 0.538698 -1.360347 0
M  V30 11 N 1.590868 0.693584 -1.535752 0
M  V30 12 C 0.972764 0.571205 -0.346285 0
M  V30 13 C -0.444617 0.655597 0.005734 0
M  V30 14 C -0.768299 0.482956 1.336182 0
M  V30 15 C -2.113107 0.554764 1.720407 0
M  V30 16 C -3.029634 0.797866 0.717529 0
M  V30 17 C -2.707374 0.972677 -0.625592 0
M  V30 18 C -1.379236 0.899737 -0.992344 0
M  V30 19 C -3.990490 1.212836 -1.378333 0
M  V30 20 C -4.989557 0.560374 -0.446153 0
M  V30 21 O -4.428198 0.918189 0.819668 0
M  V30 22 O 1.933015 0.340632 0.542141 0
M  V30 23 C 3.055107 -2.411440 2.759355 0
M  V30 24 H 0.141572 -4.166297 2.399238 0
M  V30 25 H 0.599254 -3.647174 0.045597 0
M  V30 26 H 2.545266 -2.387823 -0.583474 0
M  V30 27 H 4.748234 -1.736748 -0.085575 0
M  V30 28 H 5.361031 -1.542982 1.567306 0
M  V30 29 H 4.834748 0.742656 1.376113 0
M  V30 30 H -0.049048 0.294059 2.110339 0
M  V30 31 H -2.418778 0.427292 2.744094 0
M  V30 32 H -1.090030 1.029413 -2.020282 0
M  V30 33 H -3.895016 0.710074 -2.350870 0
M  V30 34 H -4.195071 2.296668 -1.456111 0
M  V30 35 H -4.843328 -0.535756 -0.525280 0
M  V30 36 H -6.014152 0.910981 -0.554602 0
M  V30 37 H 3.768433 -2.045348 3.475173 0
M  V30 END ATOM
M  V30 BEGIN BOND
M  V30 1 1 1 2
M  V30 2 2 2 3
M  V30 3 1 3 4
M  V30 4 2 4 5
M  V30 5 1 5 6
M  V30 6 1 6 7
M  V30 7 1 7 8
M  V30 8 1 8 9
M  V30 9 2 9 10
M  V30 10 1 10 11
M  V30 11 2 11 12
M  V30 12 1 12 13
M  V30 13 2 13 14
M  V30 14 1 14 15
M  V30 15 2 15 16
M  V30 16 1 16 17
M  V30 17 2 17 18
M  V30 18 1 17 19
M  V30 19 1 19 20
M  V30 20 1 20 21
M  V30 21 1 12 22
M  V30 22 2 6 23
M  V30 23 1 23 2
M  V30 24 1 22 9
M  V30 25 1 18 13
M  V30 26 1 21 16
M  V30 27 1 3 24
M  V30 28 1 4 25
M  V30 29 1 5 26
M  V30 30 1 7 27
M  V30 31 1 7 28
M  V30 32 1 8 29
M  V30 33 1 14 30
M  V30 34 1 15 31
M  V30 35 1 18 32
M  V30 36 1 19 33
M  V30 37 1 19 34
M  V30 38 1 20 35
M  V30 39 1 20 36
M  V30 40 1 23 37
M  V30 END BOND
M  V30 END CTAB
M  END
>  <Dataset>  (643) 
ChEMBL_Kinases

>  <Ligand_Instance>  (643) 
nan

>  <PDB_ID>  (643) 
nan

>  <Standardized_SMILES>  (643) 
Fc1cccc(CNc2nnc(-c3ccc4c(c3)CCO4)o2)c1

>  <Name>  (643) 
nan

>  <Pocket>  (643) 
nan

>  <ATP_Site>  (643) 
nan

>  <Peripheral>  (643) 
nan

>  <Num_H_Atoms_ProtBoundConf>  (643) 
nan

>  <Num_Resolved_Atoms>  (643) 
nan

>  <Num_Not_Resolved_Atoms>  (643) 
nan

$$$$
CHEMBL4518541
     RDKit          3D

  0  0  0  0  0  0  0  0  0  0999 V3000
M  V30 BEGIN CTAB
M  V30 COUNTS 41 43 0 0 0
M  V30 BEGIN ATOM
M  V30 1 O 0.129341 -4.873846 1.707273 0
M  V30 2 C 0.599469 -4.536824 0.451245 0
M  V30 3 C 0.868167 -3.025763 0.489499 0
M  V30 4 C 1.890211 -2.847542 1.592825 0
M  V30 5 O 2.271531 -1.548050 1.813311 0
M  V30 6 C 1.548273 -2.631338 -0.804403 0
M  V30 7 O 1.941316 -1.328871 -0.882709 0
M  V30 8 N -0.323908 -2.317517 0.784872 0
M  V30 9 C -0.547875 -0.922371 0.924946 0
M  V30 10 N 0.404816 0.010254 0.791589 0
M  V30 11 C 0.244760 1.332691 0.914681 0
M  V30 12 C 1.324619 2.301379 0.759776 0
M  V30 13 C 2.630512 1.964080 0.475040 0
M  V30 14 C 3.611696 2.951738 0.342194 0
M  V30 15 N 3.306082 4.258619 0.489093 0
M  V30 16 C 2.047508 4.621737 0.766030 0
M  V30 17 C 1.093463 3.653865 0.894694 0
M  V30 18 N -0.986978 1.792397 1.200383 0
M  V30 19 C -2.036651 0.944970 1.359565 0
M  V30 20 C -3.290625 1.433870 1.651875 0
M  V30 21 N -4.353222 0.592373 1.814136 0
M  V30 22 C -4.168264 -0.749547 1.684629 0
M  V30 23 C -2.898063 -1.195255 1.391907 0
M  V30 24 C -1.788447 -0.401146 1.216712 0
M  V30 25 H -0.843495 -4.796055 1.721095 0
M  V30 26 H -0.109940 -4.790688 -0.359268 0
M  V30 27 H 1.532538 -5.078348 0.225107 0
M  V30 28 H 2.789880 -3.439086 1.305618 0
M  V30 29 H 1.472703 -3.257405 2.536934 0
M  V30 30 H 3.191145 -1.358210 1.484316 0
M  V30 31 H 0.783113 -2.785523 -1.617720 0
M  V30 32 H 2.370116 -3.330508 -1.057768 0
M  V30 33 H 1.818854 -0.909326 -1.770526 0
M  V30 34 H -1.139928 -2.945885 0.912457 0
M  V30 35 H 2.888928 0.928062 0.355969 0
M  V30 36 H 4.627754 2.598426 0.114685 0
M  V30 37 H 1.849668 5.680124 0.875021 0
M  V30 38 H 0.097681 4.028691 1.119524 0
M  V30 39 H -3.399761 2.521347 1.748405 0
M  V30 40 H -5.029714 -1.373254 1.820156 0
M  V30 41 H -2.864437 -2.268317 1.311914 0
M  V30 END ATOM
M  V30 BEGIN BOND
M  V30 1 1 1 2
M  V30 2 1 2 3
M  V30 3 1 3 4
M  V30 4 1 4 5
M  V30 5 1 3 6
M  V30 6 1 6 7
M  V30 7 1 3 8
M  V30 8 1 8 9
M  V30 9 2 9 10
M  V30 10 1 10 11
M  V30 11 1 11 12
M  V30 12 2 12 13
M  V30 13 1 13 14
M  V30 14 2 14 15
M  V30 15 1 15 16
M  V30 16 2 16 17
M  V30 17 2 11 18
M  V30 18 1 18 19
M  V30 19 2 19 20
M  V30 20 1 20 21
M  V30 21 2 21 22
M  V30 22 1 22 23
M  V30 23 2 23 24
M  V30 24 1 24 9
M  V30 25 1 17 12
M  V30 26 1 24 19
M  V30 27 1 1 25
M  V30 28 1 2 26
M  V30 29 1 2 27
M  V30 30 1 4 28
M  V30 31 1 4 29
M  V30 32 1 5 30
M  V30 33 1 6 31
M  V30 34 1 6 32
M  V30 35 1 7 33
M  V30 36 1 8 34
M  V30 37 1 13 35
M  V30 38 1 14 36
M  V30 39 1 16 37
M  V30 40 1 17 38
M  V30 41 1 20 39
M  V30 42 1 22 40
M  V30 43 1 23 41
M  V30 END BOND
M  V30 END CTAB
M  END
>  <Dataset>  (644) 
ChEMBL_Kinases

>  <Ligand_Instance>  (644) 
nan

>  <PDB_ID>  (644) 
nan

>  <Standardized_SMILES>  (644) 
OCC(CO)(CO)Nc1nc(-c2ccncc2)nc2cnccc12

>  <Name>  (644) 
nan

>  <Pocket>  (644) 
nan

>  <ATP_Site>  (644) 
nan

>  <Peripheral>  (644) 
nan

>  <Num_H_Atoms_ProtBoundConf>  (644) 
nan

>  <Num_Resolved_Atoms>  (644) 
nan

>  <Num_Not_Resolved_Atoms>  (644) 
nan

$$$$
CHEMBL4518523
     RDKit          3D

  0  0  0  0  0  0  0  0  0  0999 V3000
M  V30 BEGIN CTAB
M  V30 COUNTS 70 74 0 0 0
M  V30 BEGIN ATOM
M  V30 1 C 2.256078 -1.095247 4.235921 0
M  V30 2 N 3.119391 -0.375062 5.149137 0
M  V30 3 N 3.508097 -0.949264 6.295960 0
M  V30 4 C 4.299428 -0.132166 7.003968 0
M  V30 5 C 4.356344 0.974545 6.196440 0
M  V30 6 Cl 5.329878 2.271423 6.829156 0
M  V30 7 C 3.638287 0.859520 5.040763 0
M  V30 8 C 3.460550 1.796069 3.962042 0
M  V30 9 C 2.697572 1.540881 2.845620 0
M  V30 10 C 2.685804 2.596611 1.955495 0
M  V30 11 C 2.064630 2.857970 0.660477 0
M  V30 12 O 2.186564 3.905974 0.009408 0
M  V30 13 N 1.264054 1.806940 0.134087 0
M  V30 14 C 0.483513 1.641689 -1.086799 0 CFG=2
M  V30 15 C -0.971724 1.503580 -0.725029 0
M  V30 16 N -1.326041 0.197358 -0.272659 0
M  V30 17 C -1.171703 -0.704707 -1.417481 0 CFG=2
M  V30 18 C -1.658144 -2.086857 -1.032558 0
M  V30 19 C -3.117098 -2.002595 -0.637317 0
M  V30 20 N -3.681878 -3.272295 -0.249686 0
M  V30 21 C -3.137920 -3.772656 0.983126 0
M  V30 22 C -3.642804 -5.179333 1.208229 0
M  V30 23 C -5.138858 -5.237609 1.126223 0
M  V30 24 O -5.607866 -5.872300 -0.018212 0
M  V30 25 C -5.660274 -3.824213 1.121202 0
M  V30 26 C -5.100332 -3.062853 -0.066201 0
M  V30 27 C 0.285575 -0.795951 -1.723989 0
M  V30 28 C 1.000696 0.494616 -1.908267 0 CFG=1
M  V30 29 C 1.183734 0.907760 -3.323416 0
M  V30 30 C 0.157634 1.240059 -4.176024 0
M  V30 31 C 0.266100 1.625556 -5.482360 0
M  V30 32 C 1.551994 1.692170 -6.018207 0
M  V30 33 Cl 1.810346 2.173298 -7.678993 0
M  V30 34 C 2.664286 1.377215 -5.244189 0
M  V30 35 Cl 4.285313 1.452959 -5.893315 0
M  V30 36 C 2.435098 1.002088 -3.942538 0
M  V30 37 O 3.454035 3.526134 2.525553 0
M  V30 38 C 3.892966 3.059696 3.673086 0
M  V30 39 Cl 4.927667 4.042764 4.662060 0
M  V30 40 H 2.765622 -1.346287 3.266507 0
M  V30 41 H 2.072396 -2.121674 4.675147 0
M  V30 42 H 1.249928 -0.665507 4.123696 0
M  V30 43 H 4.691547 -0.455098 7.950351 0
M  V30 44 H 2.107181 0.737082 2.481759 0
M  V30 45 H 1.101221 0.890336 0.604940 0
M  V30 46 H 0.583175 2.574363 -1.678952 0
M  V30 47 H -1.575597 1.786083 -1.603251 0
M  V30 48 H -1.173799 2.207714 0.128300 0
M  V30 49 H -0.655686 -0.151422 0.453335 0
M  V30 50 H -1.777429 -0.358721 -2.263265 0
M  V30 51 H -1.032587 -2.505606 -0.234307 0
M  V30 52 H -1.583784 -2.725616 -1.933568 0
M  V30 53 H -3.700581 -1.658432 -1.513952 0
M  V30 54 H -3.276176 -1.299005 0.202569 0
M  V30 55 H -3.409122 -3.159230 1.854493 0
M  V30 56 H -2.035460 -3.844857 0.958292 0
M  V30 57 H -3.218365 -5.894797 0.497359 0
M  V30 58 H -3.346515 -5.503898 2.226593 0
M  V30 59 H -5.597116 -5.766229 1.998782 0
M  V30 60 H -4.926249 -6.524310 -0.296507 0
M  V30 61 H -5.459303 -3.296247 2.077052 0
M  V30 62 H -6.778868 -3.795590 0.997702 0
M  V30 63 H -5.304770 -1.982492 0.160974 0
M  V30 64 H -5.683671 -3.338234 -0.990423 0
M  V30 65 H 0.745880 -1.330576 -0.842465 0
M  V30 66 H 0.512811 -1.457999 -2.583459 0
M  V30 67 H 2.058593 0.324915 -1.539869 0
M  V30 68 H -0.860080 1.206466 -3.814052 0
M  V30 69 H -0.580435 1.874460 -6.102363 0
M  V30 70 H 3.318015 0.762321 -3.363628 0
M  V30 END ATOM
M  V30 BEGIN BOND
M  V30 1 1 1 2
M  V30 2 1 2 3
M  V30 3 2 3 4
M  V30 4 1 4 5
M  V30 5 1 5 6
M  V30 6 2 5 7
M  V30 7 1 7 8
M  V30 8 1 8 9
M  V30 9 2 9 10
M  V30 10 1 10 11
M  V30 11 2 11 12
M  V30 12 1 11 13
M  V30 13 1 13 14
M  V30 14 1 14 15
M  V30 15 1 15 16
M  V30 16 1 16 17
M  V30 17 1 17 18
M  V30 18 1 18 19
M  V30 19 1 19 20
M  V30 20 1 20 21
M  V30 21 1 21 22
M  V30 22 1 22 23
M  V30 23 1 23 24
M  V30 24 1 23 25
M  V30 25 1 25 26
M  V30 26 1 17 27
M  V30 27 1 27 28
M  V30 28 1 28 29
M  V30 29 2 29 30
M  V30 30 1 30 31
M  V30 31 2 31 32
M  V30 32 1 32 33
M  V30 33 1 32 34
M  V30 34 1 34 35
M  V30 35 2 34 36
M  V30 36 1 10 37
M  V30 37 1 37 38
M  V30 38 1 38 39
M  V30 39 1 7 2
M  V30 40 2 38 8
M  V30 41 1 28 14
M  V30 42 1 36 29
M  V30 43 1 26 20
M  V30 44 1 1 40
M  V30 45 1 1 41
M  V30 46 1 1 42
M  V30 47 1 4 43
M  V30 48 1 9 44
M  V30 49 1 13 45
M  V30 50 1 14 46 CFG=3
M  V30 51 1 15 47
M  V30 52 1 15 48
M  V30 53 1 16 49
M  V30 54 1 17 50 CFG=3
M  V30 55 1 18 51
M  V30 56 1 18 52
M  V30 57 1 19 53
M  V30 58 1 19 54
M  V30 59 1 21 55
M  V30 60 1 21 56
M  V30 61 1 22 57
M  V30 62 1 22 58
M  V30 63 1 23 59
M  V30 64 1 24 60
M  V30 65 1 25 61
M  V30 66 1 25 62
M  V30 67 1 26 63
M  V30 68 1 26 64
M  V30 69 1 27 65
M  V30 70 1 27 66
M  V30 71 1 28 67 CFG=1
M  V30 72 1 30 68
M  V30 73 1 31 69
M  V30 74 1 36 70
M  V30 END BOND
M  V30 END CTAB
M  END
>  <Dataset>  (645) 
ChEMBL_Kinases

>  <Ligand_Instance>  (645) 
nan

>  <PDB_ID>  (645) 
nan

>  <Standardized_SMILES>  (645) 
Cn1ncc(Cl)c1-c1cc(C(=O)N[C@@H]2CN[C@H](CCN3CCC(O)CC3)C[C@H]2c2ccc(Cl)c(Cl)c2)oc1Cl

>  <Name>  (645) 
nan

>  <Pocket>  (645) 
nan

>  <ATP_Site>  (645) 
nan

>  <Peripheral>  (645) 
nan

>  <Num_H_Atoms_ProtBoundConf>  (645) 
nan

>  <Num_Resolved_Atoms>  (645) 
nan

>  <Num_Not_Resolved_Atoms>  (645) 
nan

$$$$
CHEMBL4647289
     RDKit          3D

  0  0  0  0  0  0  0  0  0  0999 V3000
M  V30 BEGIN CTAB
M  V30 COUNTS 46 49 0 0 0
M  V30 BEGIN ATOM
M  V30 1 C 0.374101 1.513629 5.553325 0
M  V30 2 N 0.712944 1.576150 4.149738 0
M  V30 3 C 0.549595 2.812446 3.414290 0
M  V30 4 O 0.641699 3.912852 4.019654 0
M  V30 5 C 0.277045 2.651569 1.951694 0
M  V30 6 C 1.378407 1.790481 1.379224 0
M  V30 7 C 1.033605 1.506503 -0.049440 0
M  V30 8 C 1.783796 0.541120 -0.731018 0
M  V30 9 C 1.556893 0.198541 -2.042809 0
M  V30 10 C 0.552556 0.814042 -2.748904 0
M  V30 11 C -0.208994 1.779079 -2.092449 0
M  V30 12 C 0.028095 2.117595 -0.768898 0
M  V30 13 N 1.527819 0.572437 2.129540 0
M  V30 14 C 1.231520 0.449728 3.396632 0
M  V30 15 S 1.403374 -1.010844 4.389291 0
M  V30 16 C 1.970888 -2.441804 3.475737 0
M  V30 17 C 0.964937 -2.924885 2.489706 0
M  V30 18 C 0.721189 -2.647952 1.162167 0
M  V30 19 N -0.330120 -3.355345 0.714151 0
M  V30 20 C -0.892515 -3.345278 -0.592695 0
M  V30 21 C -2.174865 -2.783335 -0.563224 0
M  V30 22 C -2.923639 -2.665216 -1.716448 0
M  V30 23 C -2.408370 -3.103534 -2.912227 0
M  V30 24 C -1.139962 -3.659363 -2.941280 0
M  V30 25 C -0.368848 -3.787394 -1.789655 0
M  V30 26 F 0.857638 -4.298686 -1.672941 0
M  V30 27 N -0.735961 -4.067731 1.759445 0
M  V30 28 N 0.004218 -3.837513 2.818022 0
M  V30 29 H 1.244744 1.816835 6.165889 0
M  V30 30 H 0.050255 0.494382 5.857457 0
M  V30 31 H -0.485593 2.171918 5.738385 0
M  V30 32 H -0.695269 2.145004 1.807959 0
M  V30 33 H 0.232947 3.627196 1.437031 0
M  V30 34 H 2.311696 2.416628 1.424221 0
M  V30 35 H 2.598858 0.018349 -0.212932 0
M  V30 36 H 2.159704 -0.553903 -2.536126 0
M  V30 37 H 0.340602 0.573507 -3.785347 0
M  V30 38 H -1.028760 2.310676 -2.601865 0
M  V30 39 H -0.552397 2.854552 -0.266805 0
M  V30 40 H 2.941987 -2.270040 2.955879 0
M  V30 41 H 2.165033 -3.255791 4.199063 0
M  V30 42 H 1.330332 -1.953939 0.626383 0
M  V30 43 H -2.696239 -2.398379 0.318872 0
M  V30 44 H -3.921647 -2.235790 -1.734275 0
M  V30 45 H -2.897860 -3.064442 -3.878105 0
M  V30 46 H -0.597139 -4.050525 -3.808411 0
M  V30 END ATOM
M  V30 BEGIN BOND
M  V30 1 1 1 2
M  V30 2 1 2 3
M  V30 3 2 3 4
M  V30 4 1 3 5
M  V30 5 1 5 6
M  V30 6 1 6 7
M  V30 7 2 7 8
M  V30 8 1 8 9
M  V30 9 2 9 10
M  V30 10 1 10 11
M  V30 11 2 11 12
M  V30 12 1 6 13
M  V30 13 2 13 14
M  V30 14 1 14 15
M  V30 15 1 15 16
M  V30 16 1 16 17
M  V30 17 2 17 18
M  V30 18 1 18 19
M  V30 19 1 19 20
M  V30 20 2 20 21
M  V30 21 1 21 22
M  V30 22 2 22 23
M  V30 23 1 23 24
M  V30 24 2 24 25
M  V30 25 1 25 26
M  V30 26 1 19 27
M  V30 27 2 27 28
M  V30 28 1 14 2
M  V30 29 1 28 17
M  V30 30 1 12 7
M  V30 31 1 25 20
M  V30 32 1 1 29
M  V30 33 1 1 30
M  V30 34 1 1 31
M  V30 35 1 5 32
M  V30 36 1 5 33
M  V30 37 1 6 34
M  V30 38 1 8 35
M  V30 39 1 9 36
M  V30 40 1 10 37
M  V30 41 1 11 38
M  V30 42 1 12 39
M  V30 43 1 16 40
M  V30 44 1 16 41
M  V30 45 1 18 42
M  V30 46 1 21 43
M  V30 47 1 22 44
M  V30 48 1 23 45
M  V30 49 1 24 46
M  V30 END BOND
M  V30 END CTAB
M  END
>  <Dataset>  (646) 
ChEMBL_Kinases

>  <Ligand_Instance>  (646) 
nan

>  <PDB_ID>  (646) 
nan

>  <Standardized_SMILES>  (646) 
CN1C(=O)CC(c2ccccc2)N=C1SCc1cn(-c2ccccc2F)nn1

>  <Name>  (646) 
nan

>  <Pocket>  (646) 
nan

>  <ATP_Site>  (646) 
nan

>  <Peripheral>  (646) 
nan

>  <Num_H_Atoms_ProtBoundConf>  (646) 
nan

>  <Num_Resolved_Atoms>  (646) 
nan

>  <Num_Not_Resolved_Atoms>  (646) 
nan

$$$$
CHEMBL4647298
     RDKit          3D

  0  0  0  0  0  0  0  0  0  0999 V3000
M  V30 BEGIN CTAB
M  V30 COUNTS 46 49 0 0 0
M  V30 BEGIN ATOM
M  V30 1 O 1.604692 -5.985275 -1.142982 0
M  V30 2 C 0.582385 -5.256718 -1.217255 0
M  V30 3 N -0.650566 -5.803900 -1.668319 0
M  V30 4 C -0.851508 -7.179961 -2.068076 0
M  V30 5 C -1.828918 -7.487239 -3.183593 0
M  V30 6 C -2.230043 -7.792024 -1.789033 0
M  V30 7 C 0.733507 -3.859351 -0.824714 0
M  V30 8 C 1.980541 -3.444136 -0.403370 0
M  V30 9 C 2.192665 -2.114837 -0.012658 0
M  V30 10 C 1.159948 -1.180165 -0.037509 0
M  V30 11 C 1.380581 0.207451 0.369918 0
M  V30 12 C 2.490581 0.947781 -0.046571 0
M  V30 13 N 2.421322 2.192274 0.489665 0
M  V30 14 C 1.295097 2.242316 1.228989 0
M  V30 15 C 0.728233 3.246935 1.988429 0
M  V30 16 N 1.308409 4.525971 2.123143 0
M  V30 17 C 0.697775 5.556476 2.920720 0
M  V30 18 C 0.523790 5.217323 4.363755 0
M  V30 19 C -0.127048 6.356654 5.134428 0
M  V30 20 F -1.376195 6.592928 4.561111 0
M  V30 21 F 0.600418 7.513273 5.043280 0
M  V30 22 F -0.273149 6.042174 6.466296 0
M  V30 23 N -0.427222 2.957396 2.612314 0
M  V30 24 C -1.057121 1.778776 2.548834 0
M  V30 25 C -0.469092 0.793799 1.783633 0
M  V30 26 N 0.687226 1.059396 1.149711 0
M  V30 27 C -0.072953 -1.633722 -0.465004 0
M  V30 28 C -0.294751 -2.941034 -0.852594 0
M  V30 29 H -1.500180 -5.202910 -1.731158 0
M  V30 30 H 0.025293 -7.855725 -2.017224 0
M  V30 31 H -1.626711 -8.398525 -3.799776 0
M  V30 32 H -2.319518 -6.651165 -3.697367 0
M  V30 33 H -2.302577 -8.798974 -1.379304 0
M  V30 34 H -2.946241 -7.085559 -1.283215 0
M  V30 35 H 2.851539 -4.090737 -0.346470 0
M  V30 36 H 3.189482 -1.802320 0.319247 0
M  V30 37 H 3.298277 0.601857 -0.699371 0
M  V30 38 H 2.222141 4.695573 1.606175 0
M  V30 39 H 1.263962 6.485304 2.782349 0
M  V30 40 H -0.336678 5.789298 2.531951 0
M  V30 41 H 1.530721 5.083889 4.827731 0
M  V30 42 H -0.026266 4.292606 4.540468 0
M  V30 43 H -1.976137 1.712035 3.109711 0
M  V30 44 H -0.991033 -0.151772 1.743477 0
M  V30 45 H -0.920538 -0.967323 -0.511161 0
M  V30 46 H -1.275845 -3.254581 -1.180709 0
M  V30 END ATOM
M  V30 BEGIN BOND
M  V30 1 2 1 2
M  V30 2 1 2 3
M  V30 3 1 3 4
M  V30 4 1 4 5
M  V30 5 1 5 6
M  V30 6 1 2 7
M  V30 7 2 7 8
M  V30 8 1 8 9
M  V30 9 2 9 10
M  V30 10 1 10 11
M  V30 11 2 11 12
M  V30 12 1 12 13
M  V30 13 2 13 14
M  V30 14 1 14 15
M  V30 15 1 15 16
M  V30 16 1 16 17
M  V30 17 1 17 18
M  V30 18 1 18 19
M  V30 19 1 19 20
M  V30 20 1 19 21
M  V30 21 1 19 22
M  V30 22 2 15 23
M  V30 23 1 23 24
M  V30 24 2 24 25
M  V30 25 1 25 26
M  V30 26 1 10 27
M  V30 27 2 27 28
M  V30 28 1 6 4
M  V30 29 1 28 7
M  V30 30 1 26 11
M  V30 31 1 26 14
M  V30 32 1 3 29
M  V30 33 1 4 30
M  V30 34 1 5 31
M  V30 35 1 5 32
M  V30 36 1 6 33
M  V30 37 1 6 34
M  V30 38 1 8 35
M  V30 39 1 9 36
M  V30 40 1 12 37
M  V30 41 1 16 38
M  V30 42 1 17 39
M  V30 43 1 17 40
M  V30 44 1 18 41
M  V30 45 1 18 42
M  V30 46 1 24 43
M  V30 47 1 25 44
M  V30 48 1 27 45
M  V30 49 1 28 46
M  V30 END BOND
M  V30 END CTAB
M  END
>  <Dataset>  (647) 
ChEMBL_Kinases

>  <Ligand_Instance>  (647) 
nan

>  <PDB_ID>  (647) 
nan

>  <Standardized_SMILES>  (647) 
O=C(NC1CC1)c1ccc(-c2cnc3c(NCCC(F)(F)F)nccn23)cc1

>  <Name>  (647) 
nan

>  <Pocket>  (647) 
nan

>  <ATP_Site>  (647) 
nan

>  <Peripheral>  (647) 
nan

>  <Num_H_Atoms_ProtBoundConf>  (647) 
nan

>  <Num_Resolved_Atoms>  (647) 
nan

>  <Num_Not_Resolved_Atoms>  (647) 
nan

$$$$
CHEMBL4647027
     RDKit          3D

  0  0  0  0  0  0  0  0  0  0999 V3000
M  V30 BEGIN CTAB
M  V30 COUNTS 58 62 0 0 0
M  V30 BEGIN ATOM
M  V30 1 C 1.590171 -5.378740 3.060169 0
M  V30 2 C 0.801653 -4.663104 1.976473 0 CFG=1
M  V30 3 C 1.180004 -3.208724 1.975575 0
M  V30 4 N 1.579953 -2.699102 0.696502 0
M  V30 5 C 1.313223 -1.344640 0.355378 0
M  V30 6 C 2.443785 -0.611835 0.064243 0
M  V30 7 C 2.287320 0.723455 -0.281199 0
M  V30 8 C 1.021889 1.271554 -0.322710 0
M  V30 9 C 0.889480 2.658940 -0.684201 0
M  V30 10 C 0.769287 3.827234 -0.973502 0
M  V30 11 C 0.639488 5.266244 -1.315886 0
M  V30 12 C -0.135257 5.374734 -2.611301 0
M  V30 13 O 1.916051 5.750036 -1.411134 0
M  V30 14 C -0.150171 5.951480 -0.190090 0
M  V30 15 N -0.957421 5.753336 0.638022 0
M  V30 16 C -1.435994 6.635740 1.488189 0
M  V30 17 C -0.938782 7.926896 1.398188 0
M  V30 18 S 0.261956 7.741694 -0.006008 0
M  V30 19 C -0.070978 0.494073 -0.022722 0
M  V30 20 C 0.023989 -0.854546 0.331425 0
M  V30 21 N -1.098596 -1.668037 0.645728 0
M  V30 22 C -1.603125 -2.840289 0.069257 0
M  V30 23 N -1.005661 -3.392911 -0.981832 0
M  V30 24 C -1.543823 -4.531478 -1.496893 0
M  V30 25 N -2.661786 -5.086116 -0.949391 0
M  V30 26 C -3.264514 -4.525088 0.114111 0
M  V30 27 N -4.353329 -4.842638 0.846099 0
M  V30 28 C -4.541597 -3.937204 1.830532 0
M  V30 29 C -3.522401 -2.994704 1.721704 0
M  V30 30 C -2.734679 -3.361366 0.659407 0
M  V30 31 C 2.258867 -3.542652 -0.264244 0
M  V30 32 C 2.247200 -4.979748 0.153558 0
M  V30 33 N 0.944775 -5.290173 0.699045 0
M  V30 34 H 1.127781 -5.217265 4.065595 0
M  V30 35 H 2.636833 -4.997622 3.137115 0
M  V30 36 H 1.627268 -6.479005 2.893361 0
M  V30 37 H -0.268843 -4.740521 2.262933 0
M  V30 38 H 0.356723 -2.572003 2.360356 0
M  V30 39 H 2.040630 -3.016622 2.676654 0
M  V30 40 H 3.440550 -1.002441 0.085882 0
M  V30 41 H 3.145004 1.339523 -0.518169 0
M  V30 42 H -1.204222 5.621162 -2.454060 0
M  V30 43 H -0.108081 4.397229 -3.129010 0
M  V30 44 H 0.299185 6.165592 -3.272233 0
M  V30 45 H 2.014616 6.650597 -1.008722 0
M  V30 46 H -2.188567 6.195031 2.168187 0
M  V30 47 H -1.448491 8.655131 2.227593 0
M  V30 48 H -1.052320 0.935747 -0.059331 0
M  V30 49 H -1.503482 -1.167059 1.466311 0
M  V30 50 H -1.172891 -5.087190 -2.339513 0
M  V30 51 H -4.990710 -5.662543 0.708135 0
M  V30 52 H -5.299659 -3.883191 2.586063 0
M  V30 53 H -3.346235 -2.113576 2.344495 0
M  V30 54 H 3.314143 -3.180654 -0.368282 0
M  V30 55 H 1.777355 -3.412650 -1.245571 0
M  V30 56 H 3.050694 -5.121029 0.931026 0
M  V30 57 H 2.495521 -5.640836 -0.697994 0
M  V30 58 H 0.850828 -6.325976 0.853957 0
M  V30 END ATOM
M  V30 BEGIN BOND
M  V30 1 1 1 2
M  V30 2 1 2 3
M  V30 3 1 3 4
M  V30 4 1 4 5
M  V30 5 2 5 6
M  V30 6 1 6 7
M  V30 7 2 7 8
M  V30 8 1 8 9
M  V30 9 3 9 10
M  V30 10 1 10 11
M  V30 11 1 11 12
M  V30 12 1 11 13
M  V30 13 1 11 14
M  V30 14 2 14 15
M  V30 15 1 15 16
M  V30 16 2 16 17
M  V30 17 1 17 18
M  V30 18 1 8 19
M  V30 19 2 19 20
M  V30 20 1 20 21
M  V30 21 1 21 22
M  V30 22 2 22 23
M  V30 23 1 23 24
M  V30 24 2 24 25
M  V30 25 1 25 26
M  V30 26 1 26 27
M  V30 27 1 27 28
M  V30 28 2 28 29
M  V30 29 1 29 30
M  V30 30 1 4 31
M  V30 31 1 31 32
M  V30 32 1 32 33
M  V30 33 1 33 2
M  V30 34 1 20 5
M  V30 35 1 30 22
M  V30 36 1 18 14
M  V30 37 2 30 26
M  V30 38 1 1 34
M  V30 39 1 1 35
M  V30 40 1 1 36
M  V30 41 1 2 37 CFG=1
M  V30 42 1 3 38
M  V30 43 1 3 39
M  V30 44 1 6 40
M  V30 45 1 7 41
M  V30 46 1 12 42
M  V30 47 1 12 43
M  V30 48 1 12 44
M  V30 49 1 13 45
M  V30 50 1 16 46
M  V30 51 1 17 47
M  V30 52 1 19 48
M  V30 53 1 21 49
M  V30 54 1 24 50
M  V30 55 1 27 51
M  V30 56 1 28 52
M  V30 57 1 29 53
M  V30 58 1 31 54
M  V30 59 1 31 55
M  V30 60 1 32 56
M  V30 61 1 32 57
M  V30 62 1 33 58
M  V30 END BOND
M  V30 END CTAB
M  END
>  <Dataset>  (648) 
ChEMBL_Kinases

>  <Ligand_Instance>  (648) 
nan

>  <PDB_ID>  (648) 
nan

>  <Standardized_SMILES>  (648) 
C[C@H]1CN(c2ccc(C#CC(C)(O)c3nccs3)cc2Nc2ncnc3[nH]ccc23)CCN1

>  <Name>  (648) 
nan

>  <Pocket>  (648) 
nan

>  <ATP_Site>  (648) 
nan

>  <Peripheral>  (648) 
nan

>  <Num_H_Atoms_ProtBoundConf>  (648) 
nan

>  <Num_Resolved_Atoms>  (648) 
nan

>  <Num_Not_Resolved_Atoms>  (648) 
nan

$$$$
CHEMBL4526242
     RDKit          3D

  0  0  0  0  0  0  0  0  0  0999 V3000
M  V30 BEGIN CTAB
M  V30 COUNTS 58 62 0 0 0
M  V30 BEGIN ATOM
M  V30 1 C 1.571795 1.681035 5.788581 0
M  V30 2 N 2.626405 1.131595 4.961554 0
M  V30 3 N 3.844995 0.670315 5.287469 0
M  V30 4 C 4.495476 0.255190 4.180427 0
M  V30 5 C 3.644180 0.467441 3.117343 0
M  V30 6 C 3.980163 0.158022 1.728953 0
M  V30 7 C 3.985544 1.365296 1.012195 0
M  V30 8 C 4.272442 1.418623 -0.344659 0
M  V30 9 C 4.557988 0.212463 -0.972984 0
M  V30 10 C 4.551521 -0.972925 -0.263874 0
M  V30 11 C 4.263386 -1.002333 1.083965 0
M  V30 12 C 2.463760 1.023289 3.632795 0
M  V30 13 C 1.382983 1.337164 2.710732 0
M  V30 14 C 0.884215 2.412730 2.102922 0
M  V30 15 C -0.179586 2.308627 1.284072 0
M  V30 16 C -0.721675 1.050813 1.106403 0
M  V30 17 C -1.896224 0.660404 0.269912 0
M  V30 18 O -2.535180 1.499950 -0.407402 0
M  V30 19 N -2.204331 -0.707454 0.320300 0
M  V30 20 C -3.333952 -1.194211 -0.457142 0 CFG=2
M  V30 21 C -4.451923 -1.491664 0.543729 0
M  V30 22 N -4.629337 -2.888413 0.795970 0
M  V30 23 C -4.998580 -3.647758 -0.352616 0
M  V30 24 C -4.216619 -3.172773 -1.567259 0
M  V30 25 C -2.961994 -2.493169 -1.071706 0 CFG=1
M  V30 26 C -1.956273 -2.483737 -2.119712 0
M  V30 27 C -0.757076 -3.143840 -1.902573 0
M  V30 28 C 0.307428 -3.232468 -2.806766 0
M  V30 29 C 0.134519 -2.597990 -4.027238 0
M  V30 30 C -1.045705 -1.926174 -4.289654 0
M  V30 31 F -1.138918 -1.334102 -5.502102 0
M  V30 32 C -2.053552 -1.878814 -3.353190 0
M  V30 33 S 0.302000 0.020293 2.119735 0
M  V30 34 H 1.368884 2.737614 5.551786 0
M  V30 35 H 1.924840 1.687011 6.862568 0
M  V30 36 H 0.632687 1.135379 5.719763 0
M  V30 37 H 5.500179 -0.168096 4.123392 0
M  V30 38 H 3.778419 2.384092 1.382351 0
M  V30 39 H 4.295759 2.295185 -0.952537 0
M  V30 40 H 4.793832 0.174794 -2.038384 0
M  V30 41 H 4.767443 -1.957356 -0.695971 0
M  V30 42 H 4.219664 -1.837822 1.760494 0
M  V30 43 H 1.402100 3.339465 2.328498 0
M  V30 44 H -0.638080 3.140519 0.756006 0
M  V30 45 H -1.706023 -1.438520 0.865369 0
M  V30 46 H -3.746159 -0.425507 -1.112571 0
M  V30 47 H -5.400060 -0.994725 0.228289 0
M  V30 48 H -4.159446 -1.025105 1.503053 0
M  V30 49 H -3.816652 -3.245216 1.330261 0
M  V30 50 H -6.095599 -3.546659 -0.569085 0
M  V30 51 H -4.835962 -4.732509 -0.239025 0
M  V30 52 H -4.830421 -2.477871 -2.180583 0
M  V30 53 H -3.945961 -4.017416 -2.242743 0
M  V30 54 H -2.558722 -3.154727 -0.248538 0
M  V30 55 H -0.550267 -3.665149 -0.964400 0
M  V30 56 H 1.214813 -3.762154 -2.573322 0
M  V30 57 H 0.920691 -2.638766 -4.748952 0
M  V30 58 H -2.979223 -1.349736 -3.566632 0
M  V30 END ATOM
M  V30 BEGIN BOND
M  V30 1 1 1 2
M  V30 2 1 2 3
M  V30 3 2 3 4
M  V30 4 1 4 5
M  V30 5 1 5 6
M  V30 6 2 6 7
M  V30 7 1 7 8
M  V30 8 2 8 9
M  V30 9 1 9 10
M  V30 10 2 10 11
M  V30 11 2 5 12
M  V30 12 1 12 13
M  V30 13 2 13 14
M  V30 14 1 14 15
M  V30 15 2 15 16
M  V30 16 1 16 17
M  V30 17 2 17 18
M  V30 18 1 17 19
M  V30 19 1 19 20
M  V30 20 1 20 21
M  V30 21 1 21 22
M  V30 22 1 22 23
M  V30 23 1 23 24
M  V30 24 1 24 25
M  V30 25 1 25 26
M  V30 26 2 26 27
M  V30 27 1 27 28
M  V30 28 2 28 29
M  V30 29 1 29 30
M  V30 30 1 30 31
M  V30 31 2 30 32
M  V30 32 1 16 33
M  V30 33 1 12 2
M  V30 34 1 33 13
M  V30 35 1 11 6
M  V30 36 1 25 20
M  V30 37 1 32 26
M  V30 38 1 1 34
M  V30 39 1 1 35
M  V30 40 1 1 36
M  V30 41 1 4 37
M  V30 42 1 7 38
M  V30 43 1 8 39
M  V30 44 1 9 40
M  V30 45 1 10 41
M  V30 46 1 11 42
M  V30 47 1 14 43
M  V30 48 1 15 44
M  V30 49 1 19 45
M  V30 50 1 20 46 CFG=3
M  V30 51 1 21 47
M  V30 52 1 21 48
M  V30 53 1 22 49
M  V30 54 1 23 50
M  V30 55 1 23 51
M  V30 56 1 24 52
M  V30 57 1 24 53
M  V30 58 1 25 54 CFG=1
M  V30 59 1 27 55
M  V30 60 1 28 56
M  V30 61 1 29 57
M  V30 62 1 32 58
M  V30 END BOND
M  V30 END CTAB
M  END
>  <Dataset>  (649) 
ChEMBL_Kinases

>  <Ligand_Instance>  (649) 
nan

>  <PDB_ID>  (649) 
nan

>  <Standardized_SMILES>  (649) 
Cn1ncc(-c2ccccc2)c1-c1ccc(C(=O)N[C@@H]2CNCC[C@H]2c2cccc(F)c2)s1

>  <Name>  (649) 
nan

>  <Pocket>  (649) 
nan

>  <ATP_Site>  (649) 
nan

>  <Peripheral>  (649) 
nan

>  <Num_H_Atoms_ProtBoundConf>  (649) 
nan

>  <Num_Resolved_Atoms>  (649) 
nan

>  <Num_Not_Resolved_Atoms>  (649) 
nan

$$$$
CHEMBL4526183
     RDKit          3D

  0  0  0  0  0  0  0  0  0  0999 V3000
M  V30 BEGIN CTAB
M  V30 COUNTS 49 52 0 0 0
M  V30 BEGIN ATOM
M  V30 1 N -1.507890 2.782006 4.552515 0
M  V30 2 C -1.749387 3.223603 3.227059 0
M  V30 3 O -2.217359 4.375291 3.044811 0
M  V30 4 C -1.445271 2.323356 2.122200 0
M  V30 5 N -0.942256 1.072816 2.217268 0
M  V30 6 C -0.797318 0.556205 0.987741 0
M  V30 7 C -0.300617 -0.808840 0.777344 0
M  V30 8 C 1.158597 -0.839404 0.443456 0
M  V30 9 C 1.960057 -1.661288 1.429869 0
M  V30 10 C 1.392655 -3.066385 1.370269 0
M  V30 11 C 0.001827 -3.045116 1.874507 0
M  V30 12 C -0.616248 -1.689191 1.982966 0
M  V30 13 C -1.209879 1.481718 0.073749 0
M  V30 14 C -1.287147 1.468927 -1.358583 0
M  V30 15 C -1.919341 2.548198 -1.969732 0
M  V30 16 C -2.038726 2.659993 -3.341148 0
M  V30 17 N -1.536066 1.705253 -4.179163 0
M  V30 18 C -0.904983 0.624123 -3.633281 0
M  V30 19 N -0.367244 -0.391814 -4.467288 0
M  V30 20 C -1.066114 -1.548193 -4.908721 0
M  V30 21 O -2.216895 -2.065943 -4.781914 0
M  V30 22 C -0.478298 -2.582167 -5.773047 0
M  V30 23 C 0.575848 -2.210679 -6.745367 0
M  V30 24 C 0.946752 -3.045100 -5.553976 0
M  V30 25 C -0.820725 0.574460 -2.270986 0
M  V30 26 N -1.594626 2.536053 0.807813 0
M  V30 27 H -0.890802 2.585503 5.383530 0
M  V30 28 H -1.348447 2.455055 5.524705 0
M  V30 29 H -0.868271 -1.277208 -0.041007 0
M  V30 30 H 1.534532 0.204258 0.440354 0
M  V30 31 H 1.376307 -1.273437 -0.560137 0
M  V30 32 H 2.992214 -1.703741 1.052348 0
M  V30 33 H 1.985712 -1.247036 2.439886 0
M  V30 34 H 1.494930 -3.388874 0.315537 0
M  V30 35 H 2.012922 -3.716001 2.006762 0
M  V30 36 H -0.627146 -3.625978 1.146313 0
M  V30 37 H -0.074566 -3.592754 2.822279 0
M  V30 38 H -1.703761 -1.763022 2.148332 0
M  V30 39 H -0.178109 -1.177820 2.859005 0
M  V30 40 H -2.374420 3.394918 -1.439538 0
M  V30 41 H -2.529065 3.495898 -3.807669 0
M  V30 42 H 0.618750 -0.355609 -4.826951 0
M  V30 43 H -1.188637 -3.409156 -6.007475 0
M  V30 44 H 0.519579 -2.691198 -7.759238 0
M  V30 45 H 0.890519 -1.152343 -6.727679 0
M  V30 46 H 1.202829 -4.116462 -5.749367 0
M  V30 47 H 1.578234 -2.549783 -4.780907 0
M  V30 48 H -0.308078 -0.277160 -1.928635 0
M  V30 49 H -1.987068 3.487802 0.541223 0
M  V30 END ATOM
M  V30 BEGIN BOND
M  V30 1 1 1 2
M  V30 2 2 2 3
M  V30 3 1 2 4
M  V30 4 2 4 5
M  V30 5 1 5 6
M  V30 6 1 6 7
M  V30 7 1 7 8
M  V30 8 1 8 9
M  V30 9 1 9 10
M  V30 10 1 10 11
M  V30 11 1 11 12
M  V30 12 2 6 13
M  V30 13 1 13 14
M  V30 14 2 14 15
M  V30 15 1 15 16
M  V30 16 2 16 17
M  V30 17 1 17 18
M  V30 18 1 18 19
M  V30 19 1 19 20
M  V30 20 2 20 21
M  V30 21 1 20 22
M  V30 22 1 22 23
M  V30 23 1 23 24
M  V30 24 2 18 25
M  V30 25 1 13 26
M  V30 26 1 26 4
M  V30 27 1 12 7
M  V30 28 1 25 14
M  V30 29 1 24 22
M  V30 30 1 1 27
M  V30 31 1 1 28
M  V30 32 1 7 29
M  V30 33 1 8 30
M  V30 34 1 8 31
M  V30 35 1 9 32
M  V30 36 1 9 33
M  V30 37 1 10 34
M  V30 38 1 10 35
M  V30 39 1 11 36
M  V30 40 1 11 37
M  V30 41 1 12 38
M  V30 42 1 12 39
M  V30 43 1 15 40
M  V30 44 1 16 41
M  V30 45 1 19 42
M  V30 46 1 22 43
M  V30 47 1 23 44
M  V30 48 1 23 45
M  V30 49 1 24 46
M  V30 50 1 24 47
M  V30 51 1 25 48
M  V30 52 1 26 49
M  V30 END BOND
M  V30 END CTAB
M  END
>  <Dataset>  (650) 
ChEMBL_Kinases

>  <Ligand_Instance>  (650) 
nan

>  <PDB_ID>  (650) 
nan

>  <Standardized_SMILES>  (650) 
NC(=O)c1nc(C2CCCCC2)c(-c2ccnc(NC(=O)C3CC3)c2)[nH]1

>  <Name>  (650) 
nan

>  <Pocket>  (650) 
nan

>  <ATP_Site>  (650) 
nan

>  <Peripheral>  (650) 
nan

>  <Num_H_Atoms_ProtBoundConf>  (650) 
nan

>  <Num_Resolved_Atoms>  (650) 
nan

>  <Num_Not_Resolved_Atoms>  (650) 
nan

$$$$
CHEMBL4526150
     RDKit          3D

  0  0  0  0  0  0  0  0  0  0999 V3000
M  V30 BEGIN CTAB
M  V30 COUNTS 52 55 0 0 0
M  V30 BEGIN ATOM
M  V30 1 C -2.695010 -5.406273 3.985552 0
M  V30 2 C -2.261063 -4.060580 3.541083 0
M  V30 3 C -2.908645 -2.899813 3.926921 0
M  V30 4 C -2.430010 -1.693150 3.461002 0
M  V30 5 C -1.341629 -1.547904 2.629013 0
M  V30 6 C -0.856885 -0.259652 2.151249 0
M  V30 7 C -1.465457 0.911284 2.506934 0
M  V30 8 C -0.926716 2.074118 1.999566 0
M  V30 9 N -1.457363 3.266520 2.292598 0
M  V30 10 C -0.947575 4.418101 1.805640 0
M  V30 11 N 0.143070 4.333959 0.991637 0
M  V30 12 C 0.648167 5.614148 0.496590 0
M  V30 13 C 0.673812 3.144108 0.698365 0
M  V30 14 O 1.654992 3.221932 -0.048195 0
M  V30 15 C 0.173846 1.958814 1.181195 0
M  V30 16 C 0.804863 0.793478 0.808374 0
M  V30 17 N 1.935160 0.647451 -0.008872 0
M  V30 18 C 2.423950 -0.673056 -0.278981 0
M  V30 19 C 1.477017 -1.511242 -1.110583 0 CFG=1
M  V30 20 C 1.240024 -0.828772 -2.453075 0
M  V30 21 C 0.162994 -1.682745 -3.121866 0
M  V30 22 C 0.814775 -2.994490 -3.452295 0
M  V30 23 N 1.850544 -3.418447 -2.617629 0
M  V30 24 C 1.949094 -2.905111 -1.299471 0
M  V30 25 N 0.213077 -0.284157 1.348008 0
M  V30 26 C -0.747868 -2.745157 2.286879 0
M  V30 27 C -1.163082 -3.991429 2.708536 0
M  V30 28 H -3.711169 -5.389209 4.449894 0
M  V30 29 H -2.780987 -6.139898 3.141242 0
M  V30 30 H -1.995121 -5.875866 4.717024 0
M  V30 31 H -3.758141 -2.975703 4.573018 0
M  V30 32 H -2.968999 -0.827772 3.790993 0
M  V30 33 H -2.317366 0.967092 3.143410 0
M  V30 34 H -1.462037 5.316435 2.112835 0
M  V30 35 H -0.228937 6.220667 0.198267 0
M  V30 36 H 1.359092 5.481052 -0.348358 0
M  V30 37 H 1.132928 6.184618 1.326160 0
M  V30 38 H 2.531286 1.334949 -0.493290 0
M  V30 39 H 2.520575 -1.219987 0.691695 0
M  V30 40 H 3.435453 -0.634898 -0.699286 0
M  V30 41 H 0.505020 -1.538672 -0.591649 0
M  V30 42 H 0.907648 0.196658 -2.292842 0
M  V30 43 H 2.144097 -0.919737 -3.070253 0
M  V30 44 H -0.608350 -1.846715 -2.346081 0
M  V30 45 H -0.199765 -1.130448 -4.004120 0
M  V30 46 H 0.012331 -3.766564 -3.590230 0
M  V30 47 H 1.230013 -2.867917 -4.494792 0
M  V30 48 H 2.728742 -3.735149 -3.054301 0
M  V30 49 H 1.402846 -3.623985 -0.621874 0
M  V30 50 H 3.013365 -2.969489 -0.986624 0
M  V30 51 H 0.126507 -2.730851 1.627462 0
M  V30 52 H -0.618776 -4.887084 2.377214 0
M  V30 END ATOM
M  V30 BEGIN BOND
M  V30 1 1 1 2
M  V30 2 2 2 3
M  V30 3 1 3 4
M  V30 4 2 4 5
M  V30 5 1 5 6
M  V30 6 2 6 7
M  V30 7 1 7 8
M  V30 8 1 8 9
M  V30 9 2 9 10
M  V30 10 1 10 11
M  V30 11 1 11 12
M  V30 12 1 11 13
M  V30 13 2 13 14
M  V30 14 1 13 15
M  V30 15 1 15 16
M  V30 16 1 16 17
M  V30 17 1 17 18
M  V30 18 1 18 19
M  V30 19 1 19 20
M  V30 20 1 20 21
M  V30 21 1 21 22
M  V30 22 1 22 23
M  V30 23 1 23 24
M  V30 24 2 16 25
M  V30 25 1 5 26
M  V30 26 2 26 27
M  V30 27 1 27 2
M  V30 28 1 25 6
M  V30 29 2 15 8
M  V30 30 1 24 19
M  V30 31 1 1 28
M  V30 32 1 1 29
M  V30 33 1 1 30
M  V30 34 1 3 31
M  V30 35 1 4 32
M  V30 36 1 7 33
M  V30 37 1 10 34
M  V30 38 1 12 35
M  V30 39 1 12 36
M  V30 40 1 12 37
M  V30 41 1 17 38
M  V30 42 1 18 39
M  V30 43 1 18 40
M  V30 44 1 19 41 CFG=1
M  V30 45 1 20 42
M  V30 46 1 20 43
M  V30 47 1 21 44
M  V30 48 1 21 45
M  V30 49 1 22 46
M  V30 50 1 22 47
M  V30 51 1 23 48
M  V30 52 1 24 49
M  V30 53 1 24 50
M  V30 54 1 26 51
M  V30 55 1 27 52
M  V30 END BOND
M  V30 END CTAB
M  END
>  <Dataset>  (651) 
ChEMBL_Kinases

>  <Ligand_Instance>  (651) 
nan

>  <PDB_ID>  (651) 
nan

>  <Standardized_SMILES>  (651) 
Cc1ccc(-c2cc3ncn(C)c(=O)c3c(NC[C@H]3CCCNC3)n2)cc1

>  <Name>  (651) 
nan

>  <Pocket>  (651) 
nan

>  <ATP_Site>  (651) 
nan

>  <Peripheral>  (651) 
nan

>  <Num_H_Atoms_ProtBoundConf>  (651) 
nan

>  <Num_Resolved_Atoms>  (651) 
nan

>  <Num_Not_Resolved_Atoms>  (651) 
nan

$$$$
CHEMBL452602
     RDKit          3D

  0  0  0  0  0  0  0  0  0  0999 V3000
M  V30 BEGIN CTAB
M  V30 COUNTS 52 54 0 0 0
M  V30 BEGIN ATOM
M  V30 1 C 1.906024 -5.095465 -1.210768 0
M  V30 2 C 2.517259 -3.872096 -0.568548 0 CFG=2
M  V30 3 C 1.607922 -3.206734 0.408265 0
M  V30 4 N 2.390911 -2.230278 1.152579 0
M  V30 5 C 3.612968 -1.861345 0.469773 0
M  V30 6 C 3.380586 -1.585919 -1.001889 0 CFG=2
M  V30 7 C 2.318761 -0.534868 -1.180724 0
M  V30 8 O 1.197373 -0.526026 -1.755159 0
M  V30 9 N 2.719355 0.666565 -0.553577 0
M  V30 10 C 1.918273 1.912196 -0.529251 0
M  V30 11 N 1.700240 2.916705 -1.091993 0
M  V30 12 C 0.839538 3.825821 -0.698808 0
M  V30 13 C 0.119175 3.656969 0.425672 0
M  V30 14 S -1.087196 4.670687 1.201170 0
M  V30 15 C -1.685794 3.836114 2.721782 0
M  V30 16 C -2.430980 2.592806 2.401508 0
M  V30 17 N -3.777860 2.600221 2.189583 0
M  V30 18 C -4.135322 1.331185 1.926434 0
M  V30 19 C -3.006165 0.548312 1.977670 0
M  V30 20 C -3.006976 -0.897955 1.742270 0
M  V30 21 C -2.792291 -1.250594 0.285178 0
M  V30 22 C -4.351519 -1.470784 2.142854 0
M  V30 23 C -1.952371 -1.640371 2.534270 0
M  V30 24 O -2.022444 1.369083 2.266913 0
M  V30 25 S 0.735872 2.039546 0.970461 0
M  V30 26 C 2.909555 -2.848307 -1.637125 0
M  V30 27 H 0.835770 -4.950646 -1.358917 0
M  V30 28 H 2.028770 -5.966754 -0.509591 0
M  V30 29 H 2.454105 -5.372110 -2.128421 0
M  V30 30 H 3.412057 -4.230666 -0.028884 0
M  V30 31 H 1.171352 -3.951563 1.119392 0
M  V30 32 H 0.730719 -2.741151 -0.110621 0
M  V30 33 H 1.790821 -1.394658 1.272681 0
M  V30 34 H 4.431416 -2.567847 0.567165 0
M  V30 35 H 3.953881 -0.902031 0.920999 0
M  V30 36 H 4.311967 -1.166627 -1.412651 0
M  V30 37 H 3.613245 0.876180 -0.019955 0
M  V30 38 H 0.701887 4.742818 -1.295922 0
M  V30 39 H -0.839879 3.599998 3.414028 0
M  V30 40 H -2.330897 4.530146 3.268466 0
M  V30 41 H -5.179726 1.065701 1.717800 0
M  V30 42 H -1.932941 -0.620282 -0.065765 0
M  V30 43 H -2.624111 -2.315843 0.125093 0
M  V30 44 H -3.650468 -0.916102 -0.331753 0
M  V30 45 H -4.315018 -2.550215 1.851604 0
M  V30 46 H -4.430971 -1.433355 3.246182 0
M  V30 47 H -5.197592 -0.970624 1.615324 0
M  V30 48 H -2.321189 -2.695252 2.637937 0
M  V30 49 H -1.756171 -1.155128 3.504503 0
M  V30 50 H -1.028725 -1.699557 1.906465 0
M  V30 51 H 2.104182 -2.738861 -2.376465 0
M  V30 52 H 3.806967 -3.317581 -2.133545 0
M  V30 END ATOM
M  V30 BEGIN BOND
M  V30 1 1 1 2
M  V30 2 1 2 3
M  V30 3 1 3 4
M  V30 4 1 4 5
M  V30 5 1 5 6
M  V30 6 1 6 7
M  V30 7 2 7 8
M  V30 8 1 7 9
M  V30 9 1 9 10
M  V30 10 2 10 11
M  V30 11 1 11 12
M  V30 12 2 12 13
M  V30 13 1 13 14
M  V30 14 1 14 15
M  V30 15 1 15 16
M  V30 16 2 16 17
M  V30 17 1 17 18
M  V30 18 2 18 19
M  V30 19 1 19 20
M  V30 20 1 20 21
M  V30 21 1 20 22
M  V30 22 1 20 23
M  V30 23 1 19 24
M  V30 24 1 13 25
M  V30 25 1 6 26
M  V30 26 1 26 2
M  V30 27 1 25 10
M  V30 28 1 24 16
M  V30 29 1 1 27
M  V30 30 1 1 28
M  V30 31 1 1 29
M  V30 32 1 2 30 CFG=1
M  V30 33 1 3 31
M  V30 34 1 3 32
M  V30 35 1 4 33
M  V30 36 1 5 34
M  V30 37 1 5 35
M  V30 38 1 6 36 CFG=3
M  V30 39 1 9 37
M  V30 40 1 12 38
M  V30 41 1 15 39
M  V30 42 1 15 40
M  V30 43 1 18 41
M  V30 44 1 21 42
M  V30 45 1 21 43
M  V30 46 1 21 44
M  V30 47 1 22 45
M  V30 48 1 22 46
M  V30 49 1 22 47
M  V30 50 1 23 48
M  V30 51 1 23 49
M  V30 52 1 23 50
M  V30 53 1 26 51
M  V30 54 1 26 52
M  V30 END BOND
M  V30 END CTAB
M  END
>  <Dataset>  (652) 
ChEMBL_Kinases

>  <Ligand_Instance>  (652) 
nan

>  <PDB_ID>  (652) 
nan

>  <Standardized_SMILES>  (652) 
C[C@@H]1CNC[C@H](C(=O)Nc2ncc(SCc3ncc(C(C)(C)C)o3)s2)C1

>  <Name>  (652) 
nan

>  <Pocket>  (652) 
nan

>  <ATP_Site>  (652) 
nan

>  <Peripheral>  (652) 
nan

>  <Num_H_Atoms_ProtBoundConf>  (652) 
nan

>  <Num_Resolved_Atoms>  (652) 
nan

>  <Num_Not_Resolved_Atoms>  (652) 
nan

$$$$
CHEMBL452601
     RDKit          3D

  0  0  0  0  0  0  0  0  0  0999 V3000
M  V30 BEGIN CTAB
M  V30 COUNTS 52 54 0 0 0
M  V30 BEGIN ATOM
M  V30 1 C 2.754788 -5.255817 -0.401471 0
M  V30 2 C 2.023563 -4.008102 -0.818934 0 CFG=1
M  V30 3 C 1.420756 -3.339606 0.385780 0
M  V30 4 N 2.336536 -2.598066 1.190031 0
M  V30 5 C 3.513534 -2.147123 0.510780 0
M  V30 6 C 3.274032 -1.846636 -0.953891 0 CFG=2
M  V30 7 C 2.273481 -0.763705 -1.137041 0
M  V30 8 O 1.155366 -0.756251 -1.722082 0
M  V30 9 N 2.743152 0.406242 -0.520462 0
M  V30 10 C 2.000840 1.700362 -0.500395 0
M  V30 11 N 1.863235 2.687127 -1.105448 0
M  V30 12 C 1.076847 3.678296 -0.769841 0
M  V30 13 C 0.332656 3.630486 0.352488 0
M  V30 14 S -0.802135 4.717944 1.119236 0
M  V30 15 C -1.432088 3.968148 2.664714 0
M  V30 16 C -2.244848 2.778232 2.318427 0
M  V30 17 N -3.584660 2.904182 2.095983 0
M  V30 18 C -4.093572 1.707809 1.804386 0
M  V30 19 C -3.026643 0.812712 1.849174 0
M  V30 20 C -3.209506 -0.623005 1.577503 0
M  V30 21 C -3.056450 -0.923808 0.099044 0
M  V30 22 C -4.566795 -1.064802 2.026253 0
M  V30 23 C -2.170214 -1.453186 2.299536 0
M  V30 24 O -1.968688 1.512796 2.157725 0
M  V30 25 S 0.808404 2.013586 0.979541 0
M  V30 26 C 2.840163 -3.083291 -1.677689 0
M  V30 27 H 2.771021 -6.032540 -1.191021 0
M  V30 28 H 3.799775 -5.073968 -0.122136 0
M  V30 29 H 2.243024 -5.688316 0.469271 0
M  V30 30 H 1.161621 -4.355384 -1.442554 0
M  V30 31 H 0.503016 -2.763582 0.113703 0
M  V30 32 H 1.026916 -4.163551 1.040214 0
M  V30 33 H 1.802990 -1.857682 1.692285 0
M  V30 34 H 4.386003 -2.796979 0.598589 0
M  V30 35 H 3.794564 -1.180069 0.978925 0
M  V30 36 H 4.232831 -1.505399 -1.377254 0
M  V30 37 H 3.628126 0.609613 0.008664 0
M  V30 38 H 1.017178 4.572671 -1.412496 0
M  V30 39 H -0.593075 3.692935 3.339522 0
M  V30 40 H -2.025398 4.710517 3.220501 0
M  V30 41 H -5.164829 1.621088 1.595224 0
M  V30 42 H -3.774278 -1.718033 -0.156476 0
M  V30 43 H -2.037068 -1.331508 -0.135493 0
M  V30 44 H -3.314921 -0.047340 -0.528720 0
M  V30 45 H -4.816712 -2.090785 1.653766 0
M  V30 46 H -4.564269 -1.119176 3.137646 0
M  V30 47 H -5.396089 -0.391029 1.735764 0
M  V30 48 H -2.655418 -2.306052 2.811780 0
M  V30 49 H -1.641227 -0.894075 3.099275 0
M  V30 50 H -1.432650 -1.895751 1.592447 0
M  V30 51 H 3.779370 -3.666133 -1.913402 0
M  V30 52 H 2.372088 -2.880541 -2.647681 0
M  V30 END ATOM
M  V30 BEGIN BOND
M  V30 1 1 1 2
M  V30 2 1 2 3
M  V30 3 1 3 4
M  V30 4 1 4 5
M  V30 5 1 5 6
M  V30 6 1 6 7
M  V30 7 2 7 8
M  V30 8 1 7 9
M  V30 9 1 9 10
M  V30 10 2 10 11
M  V30 11 1 11 12
M  V30 12 2 12 13
M  V30 13 1 13 14
M  V30 14 1 14 15
M  V30 15 1 15 16
M  V30 16 2 16 17
M  V30 17 1 17 18
M  V30 18 2 18 19
M  V30 19 1 19 20
M  V30 20 1 20 21
M  V30 21 1 20 22
M  V30 22 1 20 23
M  V30 23 1 19 24
M  V30 24 1 13 25
M  V30 25 1 6 26
M  V30 26 1 26 2
M  V30 27 1 25 10
M  V30 28 1 24 16
M  V30 29 1 1 27
M  V30 30 1 1 28
M  V30 31 1 1 29
M  V30 32 1 2 30 CFG=3
M  V30 33 1 3 31
M  V30 34 1 3 32
M  V30 35 1 4 33
M  V30 36 1 5 34
M  V30 37 1 5 35
M  V30 38 1 6 36 CFG=3
M  V30 39 1 9 37
M  V30 40 1 12 38
M  V30 41 1 15 39
M  V30 42 1 15 40
M  V30 43 1 18 41
M  V30 44 1 21 42
M  V30 45 1 21 43
M  V30 46 1 21 44
M  V30 47 1 22 45
M  V30 48 1 22 46
M  V30 49 1 22 47
M  V30 50 1 23 48
M  V30 51 1 23 49
M  V30 52 1 23 50
M  V30 53 1 26 51
M  V30 54 1 26 52
M  V30 END BOND
M  V30 END CTAB
M  END
>  <Dataset>  (653) 
ChEMBL_Kinases

>  <Ligand_Instance>  (653) 
nan

>  <PDB_ID>  (653) 
nan

>  <Standardized_SMILES>  (653) 
C[C@H]1CNC[C@H](C(=O)Nc2ncc(SCc3ncc(C(C)(C)C)o3)s2)C1

>  <Name>  (653) 
nan

>  <Pocket>  (653) 
nan

>  <ATP_Site>  (653) 
nan

>  <Peripheral>  (653) 
nan

>  <Num_H_Atoms_ProtBoundConf>  (653) 
nan

>  <Num_Resolved_Atoms>  (653) 
nan

>  <Num_Not_Resolved_Atoms>  (653) 
nan

$$$$
CHEMBL4525991
     RDKit          3D

  0  0  0  0  0  0  0  0  0  0999 V3000
M  V30 BEGIN CTAB
M  V30 COUNTS 41 43 0 0 0
M  V30 BEGIN ATOM
M  V30 1 C -0.238583 -4.115658 1.081304 0
M  V30 2 C -0.425228 -3.872359 -0.403753 0
M  V30 3 C -1.455492 -2.827533 -0.631203 0
M  V30 4 N 0.850073 -3.636684 -1.057279 0
M  V30 5 C 1.700719 -2.593568 -0.756882 0
M  V30 6 S 1.184532 -0.908075 -0.521849 0
M  V30 7 C 2.853479 -0.245640 -0.168956 0
M  V30 8 C 2.974600 1.213681 0.032785 0
M  V30 9 O 4.102062 1.728146 -0.078965 0
M  V30 10 C 1.776503 1.990709 0.353993 0
M  V30 11 C 1.220660 3.155811 0.296829 0
M  V30 12 C 0.039465 3.459394 0.894543 0
M  V30 13 C -0.588823 2.439678 1.603257 0
M  V30 14 C -1.764741 2.158595 2.420361 0
M  V30 15 C -2.010245 0.885403 2.855584 0
M  V30 16 C -3.055976 0.572521 3.674630 0
M  V30 17 N -3.874045 1.577240 4.064044 0
M  V30 18 C -3.625065 2.832720 3.629555 0
M  V30 19 C -2.582043 3.190707 2.801991 0
M  V30 20 S 0.629698 1.035086 1.345172 0
M  V30 21 C 3.675601 -1.376498 -0.256217 0
M  V30 22 N 5.044140 -1.112432 0.010753 0
M  V30 23 C 3.043744 -2.547962 -0.558024 0
M  V30 24 C 3.829773 -3.771376 -0.642179 0
M  V30 25 N 4.472372 -4.760089 -0.696941 0
M  V30 26 H -1.140993 -4.596588 1.473003 0
M  V30 27 H 0.614294 -4.832799 1.184729 0
M  V30 28 H -0.055473 -3.173606 1.616235 0
M  V30 29 H -0.841705 -4.822550 -0.857700 0
M  V30 30 H -1.297013 -2.254380 -1.587122 0
M  V30 31 H -2.490055 -3.258373 -0.751166 0
M  V30 32 H -1.518156 -2.053130 0.154347 0
M  V30 33 H 1.223743 -4.251373 -1.832854 0
M  V30 34 H 1.807666 3.853402 -0.286361 0
M  V30 35 H -0.490814 4.392675 0.889571 0
M  V30 36 H -1.393537 0.013846 2.572307 0
M  V30 37 H -3.226023 -0.429441 4.003335 0
M  V30 38 H -4.286404 3.651379 3.950908 0
M  V30 39 H -2.359971 4.182306 2.439584 0
M  V30 40 H 5.362097 -0.613914 0.860022 0
M  V30 41 H 5.868000 -1.375319 -0.566311 0
M  V30 END ATOM
M  V30 BEGIN BOND
M  V30 1 1 1 2
M  V30 2 1 2 3
M  V30 3 1 2 4
M  V30 4 1 4 5
M  V30 5 1 5 6
M  V30 6 1 6 7
M  V30 7 1 7 8
M  V30 8 2 8 9
M  V30 9 1 8 10
M  V30 10 2 10 11
M  V30 11 1 11 12
M  V30 12 2 12 13
M  V30 13 1 13 14
M  V30 14 2 14 15
M  V30 15 1 15 16
M  V30 16 2 16 17
M  V30 17 1 17 18
M  V30 18 2 18 19
M  V30 19 1 13 20
M  V30 20 2 7 21
M  V30 21 1 21 22
M  V30 22 1 21 23
M  V30 23 1 23 24
M  V30 24 3 24 25
M  V30 25 2 23 5
M  V30 26 1 20 10
M  V30 27 1 19 14
M  V30 28 1 1 26
M  V30 29 1 1 27
M  V30 30 1 1 28
M  V30 31 1 2 29
M  V30 32 1 3 30
M  V30 33 1 3 31
M  V30 34 1 3 32
M  V30 35 1 4 33
M  V30 36 1 11 34
M  V30 37 1 12 35
M  V30 38 1 15 36
M  V30 39 1 16 37
M  V30 40 1 18 38
M  V30 41 1 19 39
M  V30 42 1 22 40
M  V30 43 1 22 41
M  V30 END BOND
M  V30 END CTAB
M  END
>  <Dataset>  (654) 
ChEMBL_Kinases

>  <Ligand_Instance>  (654) 
nan

>  <PDB_ID>  (654) 
nan

>  <Standardized_SMILES>  (654) 
CC(C)Nc1sc(C(=O)c2ccc(-c3ccncc3)s2)c(N)c1C#N

>  <Name>  (654) 
nan

>  <Pocket>  (654) 
nan

>  <ATP_Site>  (654) 
nan

>  <Peripheral>  (654) 
nan

>  <Num_H_Atoms_ProtBoundConf>  (654) 
nan

>  <Num_Resolved_Atoms>  (654) 
nan

>  <Num_Not_Resolved_Atoms>  (654) 
nan

$$$$
CHEMBL4525661
     RDKit          3D

  0  0  0  0  0  0  0  0  0  0999 V3000
M  V30 BEGIN CTAB
M  V30 COUNTS 35 37 0 0 0
M  V30 BEGIN ATOM
M  V30 1 C 0.566468 -4.142488 3.155386 0
M  V30 2 C 1.188584 -4.112777 1.776543 0
M  V30 3 C 1.090110 -2.704309 1.240222 0
M  V30 4 N -0.290077 -2.267159 1.146196 0
M  V30 5 C -0.539467 -0.957218 0.655725 0
M  V30 6 N 0.469298 -0.147170 0.289983 0
M  V30 7 C 0.310862 1.102761 -0.182289 0
M  V30 8 C 1.477904 1.900048 -0.551611 0
M  V30 9 C 2.737516 1.354419 -0.409363 0
M  V30 10 C 3.869667 2.095765 -0.755298 0
M  V30 11 N 3.710894 3.344500 -1.227092 0
M  V30 12 C 2.467584 3.842570 -1.351920 0
M  V30 13 C 1.299586 3.180276 -1.034468 0
M  V30 14 Cl -0.278678 3.910370 -1.230553 0
M  V30 15 N -0.929194 1.610805 -0.311128 0
M  V30 16 C -2.029440 0.877643 0.029951 0
M  V30 17 C -3.317172 1.347835 -0.081774 0
M  V30 18 N -4.375615 0.577889 0.271204 0
M  V30 19 C -4.193646 -0.683691 0.746695 0
M  V30 20 C -2.896680 -1.138890 0.852156 0
M  V30 21 C -1.788895 -0.394245 0.506261 0
M  V30 22 H 0.508861 -3.101845 3.582899 0
M  V30 23 H -0.444000 -4.619849 3.155480 0
M  V30 24 H 1.203205 -4.757921 3.826193 0
M  V30 25 H 2.253982 -4.412763 1.823415 0
M  V30 26 H 0.682015 -4.842896 1.119895 0
M  V30 27 H 1.615325 -2.605111 0.255698 0
M  V30 28 H 1.640664 -2.021828 1.920354 0
M  V30 29 H -1.001745 -2.946619 1.445770 0
M  V30 30 H 2.894982 0.347706 -0.030586 0
M  V30 31 H 4.854883 1.670931 -0.644778 0
M  V30 32 H 2.391093 4.865717 -1.741356 0
M  V30 33 H -3.368091 2.351556 -0.465119 0
M  V30 34 H -5.069435 -1.251862 1.012255 0
M  V30 35 H -2.817183 -2.143605 1.234344 0
M  V30 END ATOM
M  V30 BEGIN BOND
M  V30 1 1 1 2
M  V30 2 1 2 3
M  V30 3 1 3 4
M  V30 4 1 4 5
M  V30 5 2 5 6
M  V30 6 1 6 7
M  V30 7 1 7 8
M  V30 8 2 8 9
M  V30 9 1 9 10
M  V30 10 2 10 11
M  V30 11 1 11 12
M  V30 12 2 12 13
M  V30 13 1 13 14
M  V30 14 2 7 15
M  V30 15 1 15 16
M  V30 16 2 16 17
M  V30 17 1 17 18
M  V30 18 2 18 19
M  V30 19 1 19 20
M  V30 20 2 20 21
M  V30 21 1 21 5
M  V30 22 1 13 8
M  V30 23 1 21 16
M  V30 24 1 1 22
M  V30 25 1 1 23
M  V30 26 1 1 24
M  V30 27 1 2 25
M  V30 28 1 2 26
M  V30 29 1 3 27
M  V30 30 1 3 28
M  V30 31 1 4 29
M  V30 32 1 9 30
M  V30 33 1 10 31
M  V30 34 1 12 32
M  V30 35 1 17 33
M  V30 36 1 19 34
M  V30 37 1 20 35
M  V30 END BOND
M  V30 END CTAB
M  END
>  <Dataset>  (655) 
ChEMBL_Kinases

>  <Ligand_Instance>  (655) 
nan

>  <PDB_ID>  (655) 
nan

>  <Standardized_SMILES>  (655) 
CCCNc1nc(-c2ccncc2Cl)nc2cnccc12

>  <Name>  (655) 
nan

>  <Pocket>  (655) 
nan

>  <ATP_Site>  (655) 
nan

>  <Peripheral>  (655) 
nan

>  <Num_H_Atoms_ProtBoundConf>  (655) 
nan

>  <Num_Resolved_Atoms>  (655) 
nan

>  <Num_Not_Resolved_Atoms>  (655) 
nan

$$$$
CHEMBL4525593
     RDKit          3D

  0  0  0  0  0  0  0  0  0  0999 V3000
M  V30 BEGIN CTAB
M  V30 COUNTS 60 65 0 0 0
M  V30 BEGIN ATOM
M  V30 1 C 2.195682 -3.939110 3.254837 0
M  V30 2 N 2.832039 -2.885941 2.477771 0
M  V30 3 C 2.816594 -1.592542 2.801669 0
M  V30 4 C 3.511003 -0.845406 1.857837 0
M  V30 5 C 3.817578 0.589711 1.695098 0
M  V30 6 C 2.961581 1.222750 0.656569 0
M  V30 7 O 2.134023 0.438504 0.124750 0
M  V30 8 N 3.078533 2.596620 0.304382 0
M  V30 9 C 2.098502 2.861230 -0.724484 0
M  V30 10 C 0.839125 3.298266 -0.294165 0
M  V30 11 C -0.153229 3.560992 -1.244505 0
M  V30 12 O -1.350368 3.988353 -0.650392 0
M  V30 13 C -2.286570 3.068053 -0.211050 0
M  V30 14 C -3.505153 3.355046 0.364997 0
M  V30 15 C -4.439512 2.456212 0.805330 0
M  V30 16 C -4.156815 1.110184 0.670262 0
M  V30 17 N -4.859243 0.083242 1.005679 0
M  V30 18 C -4.765013 -1.045199 0.963565 0
M  V30 19 N -4.872025 -2.504483 1.019587 0
M  V30 20 C -5.435918 -3.275219 -0.001386 0
M  V30 21 O -5.937366 -2.897339 -1.113310 0
M  V30 22 C -5.534943 -4.757942 0.077816 0
M  V30 23 C -4.227274 -5.405137 0.482049 0
M  V30 24 C -5.403458 -5.448076 1.371812 0
M  V30 25 S -3.026805 -0.980052 0.139127 0
M  V30 26 C -2.946504 0.758175 0.097871 0
M  V30 27 C -2.008669 1.726219 -0.344415 0
M  V30 28 C 0.145012 3.378705 -2.594699 0
M  V30 29 C 1.395549 2.950692 -2.935249 0
M  V30 30 C 2.402596 2.679706 -2.036643 0
M  V30 31 F 3.630515 2.252576 -2.451716 0
M  V30 32 C 3.941304 -1.800028 0.944868 0
M  V30 33 C 4.682119 -1.694880 -0.220204 0
M  V30 34 C 4.960645 -2.864616 -0.937196 0
M  V30 35 C 4.527185 -4.099697 -0.526232 0
M  V30 36 C 3.781499 -4.207153 0.645687 0
M  V30 37 C 3.518720 -3.054343 1.334088 0
M  V30 38 H 1.073874 -3.823316 3.190694 0
M  V30 39 H 2.496786 -3.834969 4.306210 0
M  V30 40 H 2.493852 -4.936529 2.823725 0
M  V30 41 H 2.365638 -1.060894 3.648408 0
M  V30 42 H 3.516492 1.070207 2.671194 0
M  V30 43 H 4.880429 0.804023 1.543042 0
M  V30 44 H 3.795675 3.183668 0.795055 0
M  V30 45 H 0.682591 3.418294 0.789007 0
M  V30 46 H -3.716929 4.429342 0.465699 0
M  V30 47 H -5.357901 2.873959 1.239856 0
M  V30 48 H -4.527008 -3.048734 1.839126 0
M  V30 49 H -6.011599 -5.253708 -0.812411 0
M  V30 50 H -3.898968 -6.325922 -0.031237 0
M  V30 51 H -3.365371 -4.779194 0.801142 0
M  V30 52 H -5.921801 -6.439111 1.467922 0
M  V30 53 H -5.485562 -4.842418 2.288831 0
M  V30 54 H -1.099872 1.319246 -0.774337 0
M  V30 55 H -0.680909 3.607916 -3.220892 0
M  V30 56 H 1.549214 2.834128 -3.997087 0
M  V30 57 H 5.058602 -0.744167 -0.603000 0
M  V30 58 H 5.534433 -2.761076 -1.834947 0
M  V30 59 H 4.780349 -4.953865 -1.128259 0
M  V30 60 H 3.433724 -5.159913 0.987120 0
M  V30 END ATOM
M  V30 BEGIN BOND
M  V30 1 1 1 2
M  V30 2 1 2 3
M  V30 3 2 3 4
M  V30 4 1 4 5
M  V30 5 1 5 6
M  V30 6 2 6 7
M  V30 7 1 6 8
M  V30 8 1 8 9
M  V30 9 2 9 10
M  V30 10 1 10 11
M  V30 11 1 11 12
M  V30 12 1 12 13
M  V30 13 2 13 14
M  V30 14 1 14 15
M  V30 15 2 15 16
M  V30 16 1 16 17
M  V30 17 2 17 18
M  V30 18 1 18 19
M  V30 19 1 19 20
M  V30 20 2 20 21
M  V30 21 1 20 22
M  V30 22 1 22 23
M  V30 23 1 23 24
M  V30 24 1 18 25
M  V30 25 1 25 26
M  V30 26 2 26 27
M  V30 27 2 11 28
M  V30 28 1 28 29
M  V30 29 2 29 30
M  V30 30 1 30 31
M  V30 31 1 4 32
M  V30 32 2 32 33
M  V30 33 1 33 34
M  V30 34 2 34 35
M  V30 35 1 35 36
M  V30 36 2 36 37
M  V30 37 1 37 2
M  V30 38 1 30 9
M  V30 39 1 37 32
M  V30 40 1 27 13
M  V30 41 1 26 16
M  V30 42 1 24 22
M  V30 43 1 1 38
M  V30 44 1 1 39
M  V30 45 1 1 40
M  V30 46 1 3 41
M  V30 47 1 5 42
M  V30 48 1 5 43
M  V30 49 1 8 44
M  V30 50 1 10 45
M  V30 51 1 14 46
M  V30 52 1 15 47
M  V30 53 1 19 48
M  V30 54 1 22 49
M  V30 55 1 23 50
M  V30 56 1 23 51
M  V30 57 1 24 52
M  V30 58 1 24 53
M  V30 59 1 27 54
M  V30 60 1 28 55
M  V30 61 1 29 56
M  V30 62 1 33 57
M  V30 63 1 34 58
M  V30 64 1 35 59
M  V30 65 1 36 60
M  V30 END BOND
M  V30 END CTAB
M  END
>  <Dataset>  (656) 
ChEMBL_Kinases

>  <Ligand_Instance>  (656) 
nan

>  <PDB_ID>  (656) 
nan

>  <Standardized_SMILES>  (656) 
Cn1cc(CC(=O)Nc2cc(Oc3ccc4nc(NC(=O)C5CC5)sc4c3)ccc2F)c2ccccc21

>  <Name>  (656) 
nan

>  <Pocket>  (656) 
nan

>  <ATP_Site>  (656) 
nan

>  <Peripheral>  (656) 
nan

>  <Num_H_Atoms_ProtBoundConf>  (656) 
nan

>  <Num_Resolved_Atoms>  (656) 
nan

>  <Num_Not_Resolved_Atoms>  (656) 
nan

$$$$
CHEMBL452557
     RDKit          3D

  0  0  0  0  0  0  0  0  0  0999 V3000
M  V30 BEGIN CTAB
M  V30 COUNTS 48 49 0 0 0
M  V30 BEGIN ATOM
M  V30 1 C 1.077002 -5.147773 0.761884 0
M  V30 2 C 1.351196 -3.662209 0.584781 0
M  V30 3 C 0.016958 -2.940875 0.710555 0
M  V30 4 C 1.976302 -3.402568 -0.745948 0
M  V30 5 C 2.297170 -3.247875 1.700741 0
M  V30 6 C 2.620380 -1.785517 1.593972 0
M  V30 7 O 3.740283 -1.283003 1.353822 0
M  V30 8 O 1.519735 -1.021631 1.793095 0
M  V30 9 C 1.319819 0.333739 1.789406 0
M  V30 10 C 1.602604 1.116802 0.558060 0
M  V30 11 C 3.033746 1.485589 0.320203 0
M  V30 12 O 3.681663 1.809077 1.517722 0
M  V30 13 C 0.911394 2.506996 0.797294 0
M  V30 14 C -0.513545 2.057506 0.694010 0
M  V30 15 C -1.653682 2.239792 1.344502 0
M  V30 16 C -2.941246 1.630373 0.986406 0
M  V30 17 C -2.938859 0.256701 0.723152 0
M  V30 18 C -4.076882 -0.422395 0.360955 0
M  V30 19 C -5.260700 0.280539 0.256129 0
M  V30 20 Br -6.894642 -0.605869 -0.243067 0
M  V30 21 C -5.287847 1.639550 0.512377 0
M  V30 22 C -4.133560 2.328320 0.878708 0
M  V30 23 C -0.419809 1.235243 -0.535992 0
M  V30 24 O -1.353532 1.041461 -1.367154 0
M  V30 25 O 0.884866 0.733234 -0.585155 0
M  V30 26 H 0.083343 -5.305200 0.249461 0
M  V30 27 H 1.871979 -5.703725 0.216312 0
M  V30 28 H 0.986957 -5.441974 1.812851 0
M  V30 29 H -0.177264 -2.649406 1.761302 0
M  V30 30 H -0.047185 -2.083723 0.031380 0
M  V30 31 H -0.766819 -3.656010 0.396805 0
M  V30 32 H 2.350345 -4.360055 -1.189900 0
M  V30 33 H 2.773979 -2.622828 -0.704269 0
M  V30 34 H 1.184915 -3.015893 -1.434862 0
M  V30 35 H 3.222670 -3.884221 1.565192 0
M  V30 36 H 1.869865 -3.522916 2.677544 0
M  V30 37 H 0.228753 0.480294 2.067199 0
M  V30 38 H 1.842048 0.804798 2.675694 0
M  V30 39 H 3.100126 2.463373 -0.268781 0
M  V30 40 H 3.600629 0.790747 -0.326519 0
M  V30 41 H 3.560464 2.750670 1.740669 0
M  V30 42 H 1.221141 2.802300 1.793671 0
M  V30 43 H 1.219484 3.167829 -0.008057 0
M  V30 44 H -1.509459 2.918096 2.200595 0
M  V30 45 H -2.058268 -0.402741 0.790356 0
M  V30 46 H -4.077057 -1.502543 0.152609 0
M  V30 47 H -6.202893 2.227911 0.439915 0
M  V30 48 H -4.092538 3.402799 1.095100 0
M  V30 END ATOM
M  V30 BEGIN BOND
M  V30 1 1 1 2
M  V30 2 1 2 3
M  V30 3 1 2 4
M  V30 4 1 2 5
M  V30 5 1 5 6
M  V30 6 2 6 7
M  V30 7 1 6 8
M  V30 8 1 8 9
M  V30 9 1 9 10
M  V30 10 1 10 11
M  V30 11 1 11 12
M  V30 12 1 10 13
M  V30 13 1 13 14
M  V30 14 2 14 15
M  V30 15 1 15 16
M  V30 16 2 16 17
M  V30 17 1 17 18
M  V30 18 2 18 19
M  V30 19 1 19 20
M  V30 20 1 19 21
M  V30 21 2 21 22
M  V30 22 1 14 23
M  V30 23 2 23 24
M  V30 24 1 23 25
M  V30 25 1 25 10
M  V30 26 1 22 16
M  V30 27 1 1 26
M  V30 28 1 1 27
M  V30 29 1 1 28
M  V30 30 1 3 29
M  V30 31 1 3 30
M  V30 32 1 3 31
M  V30 33 1 4 32
M  V30 34 1 4 33
M  V30 35 1 4 34
M  V30 36 1 5 35
M  V30 37 1 5 36
M  V30 38 1 9 37
M  V30 39 1 9 38
M  V30 40 1 11 39
M  V30 41 1 11 40
M  V30 42 1 12 41
M  V30 43 1 13 42
M  V30 44 1 13 43
M  V30 45 1 15 44
M  V30 46 1 17 45
M  V30 47 1 18 46
M  V30 48 1 21 47
M  V30 49 1 22 48
M  V30 END BOND
M  V30 END CTAB
M  END
>  <Dataset>  (657) 
ChEMBL_Kinases

>  <Ligand_Instance>  (657) 
nan

>  <PDB_ID>  (657) 
nan

>  <Standardized_SMILES>  (657) 
CC(C)(C)CC(=O)OCC1(CO)C/C(=C/c2ccc(Br)cc2)C(=O)O1

>  <Name>  (657) 
nan

>  <Pocket>  (657) 
nan

>  <ATP_Site>  (657) 
nan

>  <Peripheral>  (657) 
nan

>  <Num_H_Atoms_ProtBoundConf>  (657) 
nan

>  <Num_Resolved_Atoms>  (657) 
nan

>  <Num_Not_Resolved_Atoms>  (657) 
nan

$$$$
CHEMBL452556
     RDKit          3D

  0  0  0  0  0  0  0  0  0  0999 V3000
M  V30 BEGIN CTAB
M  V30 COUNTS 48 49 0 0 0
M  V30 BEGIN ATOM
M  V30 1 C 2.167831 -5.350748 0.513839 0
M  V30 2 C 1.838069 -3.923565 0.883862 0
M  V30 3 C 1.048032 -3.934878 2.159051 0
M  V30 4 C 1.016394 -3.314610 -0.238912 0
M  V30 5 C 3.138307 -3.165576 1.015207 0
M  V30 6 C 2.882336 -1.727159 1.381646 0
M  V30 7 O 3.885417 -0.989946 1.532978 0
M  V30 8 O 1.645398 -1.216303 1.548531 0
M  V30 9 C 1.165172 0.017436 1.866690 0
M  V30 10 C 1.417702 1.182470 0.992543 0
M  V30 11 C 2.763900 1.824300 1.096480 0
M  V30 12 O 3.128828 1.871487 2.445374 0
M  V30 13 C 0.429991 2.278728 1.477795 0
M  V30 14 C -0.797776 1.890408 0.769738 0
M  V30 15 C -2.073442 2.292613 0.919750 0
M  V30 16 C -3.243030 1.855999 0.165230 0
M  V30 17 C -4.378010 1.447817 0.805725 0
M  V30 18 C -5.586238 1.021257 0.295711 0
M  V30 19 C -5.606933 1.022806 -1.107485 0
M  V30 20 Cl -7.102656 0.500511 -1.866975 0
M  V30 21 C -4.509051 1.418344 -1.832475 0
M  V30 22 C -3.312107 1.840564 -1.228046 0
M  V30 23 C -0.453911 0.846920 -0.220447 0
M  V30 24 O -1.245977 0.027141 -0.770284 0
M  V30 25 O 0.935294 1.055021 -0.333602 0
M  V30 26 H 1.324198 -5.708123 -0.141960 0
M  V30 27 H 3.118001 -5.344031 -0.063867 0
M  V30 28 H 2.177158 -6.004675 1.392490 0
M  V30 29 H 1.716091 -3.842562 3.041051 0
M  V30 30 H 0.252104 -3.153161 2.196691 0
M  V30 31 H 0.498871 -4.896475 2.205888 0
M  V30 32 H 1.062994 -3.905985 -1.162498 0
M  V30 33 H 1.328731 -2.296181 -0.492449 0
M  V30 34 H -0.027266 -3.263385 0.099274 0
M  V30 35 H 3.659804 -3.258772 0.042970 0
M  V30 36 H 3.776053 -3.656400 1.760754 0
M  V30 37 H 0.045509 -0.114206 2.001774 0
M  V30 38 H 1.481045 0.271122 2.928744 0
M  V30 39 H 2.710093 2.930176 0.815413 0
M  V30 40 H 3.536548 1.438425 0.426289 0
M  V30 41 H 3.724285 2.640042 2.623532 0
M  V30 42 H 0.390095 2.170092 2.577062 0
M  V30 43 H 0.825436 3.251552 1.181886 0
M  V30 44 H -2.272317 3.042529 1.703686 0
M  V30 45 H -4.327104 1.457320 1.900054 0
M  V30 46 H -6.397490 0.729685 0.933037 0
M  V30 47 H -4.544382 1.412849 -2.930414 0
M  V30 48 H -2.467974 2.161913 -1.816607 0
M  V30 END ATOM
M  V30 BEGIN BOND
M  V30 1 1 1 2
M  V30 2 1 2 3
M  V30 3 1 2 4
M  V30 4 1 2 5
M  V30 5 1 5 6
M  V30 6 2 6 7
M  V30 7 1 6 8
M  V30 8 1 8 9
M  V30 9 1 9 10
M  V30 10 1 10 11
M  V30 11 1 11 12
M  V30 12 1 10 13
M  V30 13 1 13 14
M  V30 14 2 14 15
M  V30 15 1 15 16
M  V30 16 2 16 17
M  V30 17 1 17 18
M  V30 18 2 18 19
M  V30 19 1 19 20
M  V30 20 1 19 21
M  V30 21 2 21 22
M  V30 22 1 14 23
M  V30 23 2 23 24
M  V30 24 1 23 25
M  V30 25 1 25 10
M  V30 26 1 22 16
M  V30 27 1 1 26
M  V30 28 1 1 27
M  V30 29 1 1 28
M  V30 30 1 3 29
M  V30 31 1 3 30
M  V30 32 1 3 31
M  V30 33 1 4 32
M  V30 34 1 4 33
M  V30 35 1 4 34
M  V30 36 1 5 35
M  V30 37 1 5 36
M  V30 38 1 9 37
M  V30 39 1 9 38
M  V30 40 1 11 39
M  V30 41 1 11 40
M  V30 42 1 12 41
M  V30 43 1 13 42
M  V30 44 1 13 43
M  V30 45 1 15 44
M  V30 46 1 17 45
M  V30 47 1 18 46
M  V30 48 1 21 47
M  V30 49 1 22 48
M  V30 END BOND
M  V30 END CTAB
M  END
>  <Dataset>  (658) 
ChEMBL_Kinases

>  <Ligand_Instance>  (658) 
nan

>  <PDB_ID>  (658) 
nan

>  <Standardized_SMILES>  (658) 
CC(C)(C)CC(=O)OCC1(CO)C/C(=C/c2ccc(Cl)cc2)C(=O)O1

>  <Name>  (658) 
nan

>  <Pocket>  (658) 
nan

>  <ATP_Site>  (658) 
nan

>  <Peripheral>  (658) 
nan

>  <Num_H_Atoms_ProtBoundConf>  (658) 
nan

>  <Num_Resolved_Atoms>  (658) 
nan

>  <Num_Not_Resolved_Atoms>  (658) 
nan

$$$$
CHEMBL4525557
     RDKit          3D

  0  0  0  0  0  0  0  0  0  0999 V3000
M  V30 BEGIN CTAB
M  V30 COUNTS 46 49 0 0 0
M  V30 BEGIN ATOM
M  V30 1 O -4.860206 -0.069258 2.218337 0
M  V30 2 C -3.983738 -0.928304 1.956128 0
M  V30 3 N -4.024086 -2.290757 2.408531 0
M  V30 4 C -2.984313 -3.238087 2.075163 0
M  V30 5 O -3.049672 -4.423005 2.487436 0
M  V30 6 N -1.856764 -2.842519 1.266507 0
M  V30 7 C -0.871980 -3.839966 0.979357 0
M  V30 8 C -1.115113 -4.549472 -0.179840 0
M  V30 9 C -0.243425 -5.544960 -0.578034 0
M  V30 10 C 0.873916 -5.819669 0.199975 0
M  V30 11 Br 2.175963 -7.161976 -0.212836 0
M  V30 12 C 1.127571 -5.110600 1.369252 0
M  V30 13 C 0.251675 -4.124869 1.750931 0
M  V30 14 C -1.762523 -1.507812 0.790128 0
M  V30 15 O -0.796223 -1.187562 0.102979 0
M  V30 16 C -2.822642 -0.615729 1.153274 0
M  V30 17 C -2.667385 0.599544 0.677336 0
M  V30 18 N -1.704090 1.263313 -0.116690 0
M  V30 19 C -0.444952 1.934631 -0.018584 0
M  V30 20 C 0.020534 2.647758 -1.233038 0
M  V30 21 C 0.221970 1.876316 -2.444402 0
M  V30 22 C 0.176739 0.585772 -2.919318 0
M  V30 23 N 0.482966 0.443119 -4.216214 0
M  V30 24 C 0.744630 1.695488 -4.625972 0
M  V30 25 C 1.110473 2.103786 -5.892877 0
M  V30 26 C 1.352572 3.418431 -6.202224 0
M  V30 27 C 1.216195 4.338347 -5.187650 0
M  V30 28 C 0.850580 3.922986 -3.927026 0
M  V30 29 C 0.600308 2.596034 -3.590623 0
M  V30 30 H -4.847539 -2.591004 3.003582 0
M  V30 31 H -1.944129 -4.422318 -0.855531 0
M  V30 32 H -0.367391 -6.153941 -1.486487 0
M  V30 33 H 1.971802 -5.277194 2.008691 0
M  V30 34 H 0.317851 -3.505319 2.614080 0
M  V30 35 H -3.429930 1.340405 0.912100 0
M  V30 36 H -2.055821 1.239749 -1.122414 0
M  V30 37 H -0.501807 2.701310 0.805723 0
M  V30 38 H 0.337541 1.215201 0.270512 0
M  V30 39 H -0.619343 3.544137 -1.465828 0
M  V30 40 H 1.024099 3.093736 -0.965936 0
M  V30 41 H -0.091171 -0.193782 -2.248765 0
M  V30 42 H 0.484803 -0.485359 -4.693857 0
M  V30 43 H 1.218542 1.387169 -6.691988 0
M  V30 44 H 1.640880 3.820642 -7.158728 0
M  V30 45 H 1.385579 5.396170 -5.336976 0
M  V30 46 H 0.748674 4.661467 -3.142739 0
M  V30 END ATOM
M  V30 BEGIN BOND
M  V30 1 2 1 2
M  V30 2 1 2 3
M  V30 3 1 3 4
M  V30 4 2 4 5
M  V30 5 1 4 6
M  V30 6 1 6 7
M  V30 7 2 7 8
M  V30 8 1 8 9
M  V30 9 2 9 10
M  V30 10 1 10 11
M  V30 11 1 10 12
M  V30 12 2 12 13
M  V30 13 1 6 14
M  V30 14 2 14 15
M  V30 15 1 14 16
M  V30 16 2 16 17
M  V30 17 1 17 18
M  V30 18 1 18 19
M  V30 19 1 19 20
M  V30 20 1 20 21
M  V30 21 2 21 22
M  V30 22 1 22 23
M  V30 23 1 23 24
M  V30 24 2 24 25
M  V30 25 1 25 26
M  V30 26 2 26 27
M  V30 27 1 27 28
M  V30 28 2 28 29
M  V30 29 1 16 2
M  V30 30 1 29 21
M  V30 31 1 13 7
M  V30 32 1 29 24
M  V30 33 1 3 30
M  V30 34 1 8 31
M  V30 35 1 9 32
M  V30 36 1 12 33
M  V30 37 1 13 34
M  V30 38 1 17 35
M  V30 39 1 18 36
M  V30 40 1 19 37
M  V30 41 1 19 38
M  V30 42 1 20 39
M  V30 43 1 20 40
M  V30 44 1 22 41
M  V30 45 1 23 42
M  V30 46 1 25 43
M  V30 47 1 26 44
M  V30 48 1 27 45
M  V30 49 1 28 46
M  V30 END BOND
M  V30 END CTAB
M  END
>  <Dataset>  (659) 
ChEMBL_Kinases

>  <Ligand_Instance>  (659) 
nan

>  <PDB_ID>  (659) 
nan

>  <Standardized_SMILES>  (659) 
O=C1NC(=O)N(c2ccc(Br)cc2)C(=O)/C1=C\NCCc1c[nH]c2ccccc12

>  <Name>  (659) 
nan

>  <Pocket>  (659) 
nan

>  <ATP_Site>  (659) 
nan

>  <Peripheral>  (659) 
nan

>  <Num_H_Atoms_ProtBoundConf>  (659) 
nan

>  <Num_Resolved_Atoms>  (659) 
nan

>  <Num_Not_Resolved_Atoms>  (659) 
nan

$$$$
CHEMBL4522289
     RDKit          3D

  0  0  0  0  0  0  0  0  0  0999 V3000
M  V30 BEGIN CTAB
M  V30 COUNTS 43 46 0 0 0
M  V30 BEGIN ATOM
M  V30 1 O -0.384019 -3.986504 4.027342 0
M  V30 2 C -0.328527 -2.904877 3.386437 0
M  V30 3 C 0.676698 -2.630008 2.365203 0
M  V30 4 C 0.785941 -1.527789 1.666448 0
M  V30 5 C 1.799112 -1.275347 0.650624 0
M  V30 6 C 2.773295 -2.160783 0.292208 0
M  V30 7 N 3.702312 -1.898523 -0.656121 0
M  V30 8 C 3.735771 -0.730584 -1.325224 0
M  V30 9 N 4.469867 -0.139483 -2.284982 0
M  V30 10 C 4.012965 1.092432 -2.564470 0
M  V30 11 C 2.932486 1.317209 -1.751891 0
M  V30 12 C 2.201662 2.579987 -1.811019 0
M  V30 13 C 1.860691 3.141511 -3.029502 0
M  V30 14 C 1.165474 4.343769 -3.044292 0
M  V30 15 C 0.817368 4.973663 -1.850082 0
M  V30 16 C 1.147859 4.430122 -0.637900 0
M  V30 17 C 1.837913 3.236503 -0.635554 0
M  V30 18 C 2.759773 0.182814 -0.980561 0
M  V30 19 C 1.813084 -0.071937 -0.021043 0
M  V30 20 N -1.344473 -1.999923 3.770286 0
M  V30 21 C -2.296744 -2.359984 4.792346 0
M  V30 22 C -3.077014 -3.573520 4.413523 0
M  V30 23 C -4.279776 -3.460386 3.705475 0
M  V30 24 C -4.792822 -4.741180 3.486598 0
M  V30 25 C -3.841930 -5.563442 4.092220 0
M  V30 26 O -2.885687 -4.859116 4.605457 0
M  V30 27 H 1.391317 -3.421338 2.180055 0
M  V30 28 H 0.050996 -0.767415 1.886179 0
M  V30 29 H 2.825434 -3.120409 0.773001 0
M  V30 30 H 5.293671 -0.619848 -2.735172 0
M  V30 31 H 4.457183 1.728423 -3.297778 0
M  V30 32 H 2.128618 2.656152 -3.972640 0
M  V30 33 H 0.894250 4.790788 -3.997920 0
M  V30 34 H 0.270685 5.917433 -1.931632 0
M  V30 35 H 0.879419 4.915924 0.285387 0
M  V30 36 H 2.088063 2.826475 0.341521 0
M  V30 37 H 1.048255 0.665136 0.237373 0
M  V30 38 H -1.392986 -1.051085 3.292247 0
M  V30 39 H -1.791292 -2.586116 5.766598 0
M  V30 40 H -2.959234 -1.514422 4.994622 0
M  V30 41 H -4.798324 -2.565466 3.347275 0
M  V30 42 H -5.718965 -5.005612 2.963382 0
M  V30 43 H -3.953401 -6.642627 4.094769 0
M  V30 END ATOM
M  V30 BEGIN BOND
M  V30 1 2 1 2
M  V30 2 1 2 3
M  V30 3 2 3 4
M  V30 4 1 4 5
M  V30 5 2 5 6
M  V30 6 1 6 7
M  V30 7 2 7 8
M  V30 8 1 8 9
M  V30 9 1 9 10
M  V30 10 2 10 11
M  V30 11 1 11 12
M  V30 12 2 12 13
M  V30 13 1 13 14
M  V30 14 2 14 15
M  V30 15 1 15 16
M  V30 16 2 16 17
M  V30 17 1 11 18
M  V30 18 2 18 19
M  V30 19 1 2 20
M  V30 20 1 20 21
M  V30 21 1 21 22
M  V30 22 2 22 23
M  V30 23 1 23 24
M  V30 24 2 24 25
M  V30 25 1 25 26
M  V30 26 1 19 5
M  V30 27 1 26 22
M  V30 28 1 18 8
M  V30 29 1 17 12
M  V30 30 1 3 27
M  V30 31 1 4 28
M  V30 32 1 6 29
M  V30 33 1 9 30
M  V30 34 1 10 31
M  V30 35 1 13 32
M  V30 36 1 14 33
M  V30 37 1 15 34
M  V30 38 1 16 35
M  V30 39 1 17 36
M  V30 40 1 19 37
M  V30 41 1 20 38
M  V30 42 1 21 39
M  V30 43 1 21 40
M  V30 44 1 23 41
M  V30 45 1 24 42
M  V30 46 1 25 43
M  V30 END BOND
M  V30 END CTAB
M  END
>  <Dataset>  (660) 
ChEMBL_Kinases

>  <Ligand_Instance>  (660) 
nan

>  <PDB_ID>  (660) 
nan

>  <Standardized_SMILES>  (660) 
O=C(/C=C/c1cnc2[nH]cc(-c3ccccc3)c2c1)NCc1ccco1

>  <Name>  (660) 
nan

>  <Pocket>  (660) 
nan

>  <ATP_Site>  (660) 
nan

>  <Peripheral>  (660) 
nan

>  <Num_H_Atoms_ProtBoundConf>  (660) 
nan

>  <Num_Resolved_Atoms>  (660) 
nan

>  <Num_Not_Resolved_Atoms>  (660) 
nan

$$$$
CHEMBL4525214
     RDKit          3D

  0  0  0  0  0  0  0  0  0  0999 V3000
M  V30 BEGIN CTAB
M  V30 COUNTS 44 47 0 0 0
M  V30 BEGIN ATOM
M  V30 1 C -0.095647 -6.345758 -0.958330 0
M  V30 2 C 1.058969 -5.451800 -0.611151 0
M  V30 3 C 1.612942 -5.885907 0.733101 0
M  V30 4 C 0.648758 -3.994226 -0.587845 0
M  V30 5 C 1.808381 -3.107598 -0.239800 0 CFG=1
M  V30 6 N 2.884886 -3.243484 -1.202393 0
M  V30 7 C 1.410646 -1.684818 -0.100785 0
M  V30 8 N 1.172468 -0.995476 1.028928 0
M  V30 9 C 0.834097 0.278057 0.740616 0
M  V30 10 C 0.507982 1.333107 1.573180 0
M  V30 11 C 0.192846 2.562162 1.029213 0
M  V30 12 C -0.174869 3.785171 1.740351 0
M  V30 13 N 0.437334 4.925198 1.303095 0
M  V30 14 C 0.153467 6.113004 1.908980 0
M  V30 15 N -0.707339 6.251066 2.932730 0
M  V30 16 C -1.316377 5.125504 3.369702 0
M  V30 17 N -2.220969 4.872372 4.351612 0
M  V30 18 C -2.513510 3.550325 4.377724 0
M  V30 19 C -1.789930 2.888071 3.389112 0
M  V30 20 C -1.064640 3.899041 2.791733 0
M  V30 21 C 0.224304 2.665073 -0.368033 0
M  V30 22 C 0.551690 1.603782 -1.190200 0
M  V30 23 C 0.866955 0.372690 -0.636145 0
M  V30 24 N 1.222226 -0.840479 -1.131275 0
M  V30 25 H -0.070151 -7.248057 -0.318486 0
M  V30 26 H -1.080470 -5.850881 -0.769209 0
M  V30 27 H -0.041203 -6.721622 -2.001332 0
M  V30 28 H 1.819841 -5.556610 -1.413475 0
M  V30 29 H 2.705523 -5.697309 0.748874 0
M  V30 30 H 1.465344 -6.984314 0.872908 0
M  V30 31 H 1.042078 -5.385418 1.511484 0
M  V30 32 H -0.232800 -3.853069 0.022942 0
M  V30 33 H 0.361975 -3.738604 -1.640202 0
M  V30 34 H 2.218263 -3.516099 0.718121 0
M  V30 35 H 3.555473 -2.460113 -1.076224 0
M  V30 36 H 2.564465 -3.422621 -2.161449 0
M  V30 37 H 0.474622 1.290056 2.637939 0
M  V30 38 H 0.641898 7.016623 1.558737 0
M  V30 39 H -2.599188 5.633286 4.965804 0
M  V30 40 H -3.218026 3.083674 5.079108 0
M  V30 41 H -1.802261 1.836703 3.155978 0
M  V30 42 H -0.011236 3.597916 -0.864140 0
M  V30 43 H 0.568357 1.711046 -2.271968 0
M  V30 44 H 1.330710 -1.080487 -2.121941 0
M  V30 END ATOM
M  V30 BEGIN BOND
M  V30 1 1 1 2
M  V30 2 1 2 3
M  V30 3 1 2 4
M  V30 4 1 4 5
M  V30 5 1 5 6
M  V30 6 1 5 7
M  V30 7 2 7 8
M  V30 8 1 8 9
M  V30 9 2 9 10
M  V30 10 1 10 11
M  V30 11 1 11 12
M  V30 12 2 12 13
M  V30 13 1 13 14
M  V30 14 2 14 15
M  V30 15 1 15 16
M  V30 16 1 16 17
M  V30 17 1 17 18
M  V30 18 2 18 19
M  V30 19 1 19 20
M  V30 20 2 11 21
M  V30 21 1 21 22
M  V30 22 2 22 23
M  V30 23 1 23 24
M  V30 24 1 24 7
M  V30 25 1 23 9
M  V30 26 1 20 12
M  V30 27 2 20 16
M  V30 28 1 1 25
M  V30 29 1 1 26
M  V30 30 1 1 27
M  V30 31 1 2 28
M  V30 32 1 3 29
M  V30 33 1 3 30
M  V30 34 1 3 31
M  V30 35 1 4 32
M  V30 36 1 4 33
M  V30 37 1 5 34 CFG=1
M  V30 38 1 6 35
M  V30 39 1 6 36
M  V30 40 1 10 37
M  V30 41 1 14 38
M  V30 42 1 17 39
M  V30 43 1 18 40
M  V30 44 1 19 41
M  V30 45 1 21 42
M  V30 46 1 22 43
M  V30 47 1 24 44
M  V30 END BOND
M  V30 END CTAB
M  END
>  <Dataset>  (661) 
ChEMBL_Kinases

>  <Ligand_Instance>  (661) 
nan

>  <PDB_ID>  (661) 
nan

>  <Standardized_SMILES>  (661) 
CC(C)C[C@@H](N)c1nc2cc(-c3ncnc4[nH]ccc34)ccc2[nH]1

>  <Name>  (661) 
nan

>  <Pocket>  (661) 
nan

>  <ATP_Site>  (661) 
nan

>  <Peripheral>  (661) 
nan

>  <Num_H_Atoms_ProtBoundConf>  (661) 
nan

>  <Num_Resolved_Atoms>  (661) 
nan

>  <Num_Not_Resolved_Atoms>  (661) 
nan

$$$$
CHEMBL4525206
     RDKit          3D

  0  0  0  0  0  0  0  0  0  0999 V3000
M  V30 BEGIN CTAB
M  V30 COUNTS 35 36 0 0 0
M  V30 BEGIN ATOM
M  V30 1 C 0.309242 -3.424498 4.231156 0
M  V30 2 C -0.189742 -3.243480 2.789305 0
M  V30 3 C 0.531338 -4.327841 1.973294 0
M  V30 4 N 0.160019 -1.939033 2.340653 0
M  V30 5 C 0.011318 -1.030388 1.255494 0
M  V30 6 S 0.715675 0.586867 1.022487 0
M  V30 7 C -0.015084 0.942308 -0.538513 0
M  V30 8 C 0.219190 2.182679 -1.222331 0
M  V30 9 O -0.327082 2.439029 -2.323950 0
M  V30 10 C 1.140838 3.184798 -0.592016 0
M  V30 11 C 1.442119 4.386880 -1.048199 0
M  V30 12 C 2.297506 5.158644 -0.356558 0
M  V30 13 C 2.817409 4.610933 0.828761 0
M  V30 14 Cl 4.049890 5.605887 1.913026 0
M  V30 15 S 1.984449 2.906224 0.872728 0
M  V30 16 C -0.758587 -0.161270 -0.827573 0
M  V30 17 N -1.436735 -0.050359 -2.082240 0
M  V30 18 C -0.730005 -1.155575 0.103123 0
M  V30 19 C -1.553657 -2.277124 -0.281619 0
M  V30 20 N -2.354081 -2.539040 -1.423562 0
M  V30 21 O -1.888890 -3.374059 0.156290 0
M  V30 22 H 1.122617 -2.714576 4.479779 0
M  V30 23 H -0.541169 -3.154764 4.911429 0
M  V30 24 H 0.626532 -4.453145 4.410828 0
M  V30 25 H -1.256669 -3.479603 2.759174 0
M  V30 26 H -0.182748 -5.108552 1.645821 0
M  V30 27 H 0.900097 -3.819357 1.045512 0
M  V30 28 H 1.362580 -4.776746 2.548267 0
M  V30 29 H 0.757353 -1.434764 3.072696 0
M  V30 30 H 0.995300 4.753114 -1.989121 0
M  V30 31 H 2.605103 6.155427 -0.639397 0
M  V30 32 H -1.063892 -0.416644 -2.996102 0
M  V30 33 H -2.365916 0.442866 -2.007634 0
M  V30 34 H -2.109121 -2.980591 -2.360330 0
M  V30 35 H -3.381034 -2.365701 -1.641385 0
M  V30 END ATOM
M  V30 BEGIN BOND
M  V30 1 1 1 2
M  V30 2 1 2 3
M  V30 3 1 2 4
M  V30 4 1 4 5
M  V30 5 1 5 6
M  V30 6 1 6 7
M  V30 7 1 7 8
M  V30 8 2 8 9
M  V30 9 1 8 10
M  V30 10 2 10 11
M  V30 11 1 11 12
M  V30 12 2 12 13
M  V30 13 1 13 14
M  V30 14 1 13 15
M  V30 15 2 7 16
M  V30 16 1 16 17
M  V30 17 1 16 18
M  V30 18 1 18 19
M  V30 19 1 19 20
M  V30 20 2 19 21
M  V30 21 2 18 5
M  V30 22 1 15 10
M  V30 23 1 1 22
M  V30 24 1 1 23
M  V30 25 1 1 24
M  V30 26 1 2 25
M  V30 27 1 3 26
M  V30 28 1 3 27
M  V30 29 1 3 28
M  V30 30 1 4 29
M  V30 31 1 11 30
M  V30 32 1 12 31
M  V30 33 1 17 32
M  V30 34 1 17 33
M  V30 35 1 20 34
M  V30 36 1 20 35
M  V30 END BOND
M  V30 END CTAB
M  END
>  <Dataset>  (662) 
ChEMBL_Kinases

>  <Ligand_Instance>  (662) 
nan

>  <PDB_ID>  (662) 
nan

>  <Standardized_SMILES>  (662) 
CC(C)Nc1sc(C(=O)c2ccc(Cl)s2)c(N)c1C(N)=O

>  <Name>  (662) 
nan

>  <Pocket>  (662) 
nan

>  <ATP_Site>  (662) 
nan

>  <Peripheral>  (662) 
nan

>  <Num_H_Atoms_ProtBoundConf>  (662) 
nan

>  <Num_Resolved_Atoms>  (662) 
nan

>  <Num_Not_Resolved_Atoms>  (662) 
nan

$$$$
CHEMBL4525186
     RDKit          3D

  0  0  0  0  0  0  0  0  0  0999 V3000
M  V30 BEGIN CTAB
M  V30 COUNTS 105 108 0 0 0
M  V30 BEGIN ATOM
M  V30 1 C 0.016518 -3.320116 4.513018 0
M  V30 2 C 0.739850 -2.075540 4.944853 0
M  V30 3 C -0.301238 -1.011033 5.285935 0
M  V30 4 C 0.397567 0.254369 5.728543 0
M  V30 5 C 1.288911 0.817114 4.676019 0
M  V30 6 C 0.500276 1.146413 3.452428 0
M  V30 7 C -0.582189 2.147255 3.662868 0
M  V30 8 C -1.359011 2.486232 2.440433 0
M  V30 9 O -2.276690 3.322438 2.747742 0
M  V30 10 O -1.215458 2.041438 1.132946 0
M  V30 11 C -2.062140 2.476671 0.085409 0 CFG=1
M  V30 12 C -1.113923 3.115029 -0.911763 0
M  V30 13 C -0.718203 4.337240 -0.703868 0
M  V30 14 C 0.179591 5.142502 -1.517793 0
M  V30 15 O 0.577033 6.320708 -1.341566 0
M  V30 16 O 0.842551 4.856741 -2.694105 0
M  V30 17 C 1.683556 5.774016 -3.351612 0
M  V30 18 C -0.573156 2.459268 -2.149837 0
M  V30 19 C -1.217366 1.116663 -2.415943 0 CFG=1
M  V30 20 C -0.241358 0.256529 -3.126946 0
M  V30 21 C -0.675999 -0.368687 -4.414886 0 CFG=2
M  V30 22 C -0.959503 0.601353 -5.529616 0
M  V30 23 O -2.055717 1.399110 -5.364084 0
M  V30 24 O -1.785863 -1.232532 -4.250333 0
M  V30 25 C -1.669753 -2.597401 -4.440378 0
M  V30 26 O -0.527347 -3.017504 -4.759002 0
M  V30 27 C -2.929751 -3.328400 -4.231507 0
M  V30 28 C -3.284728 -3.656482 -2.826481 0
M  V30 29 O -2.431704 -4.446318 -2.096727 0
M  V30 30 C -1.142627 -4.303841 -1.715128 0
M  V30 31 C -0.126469 -5.035307 -2.291464 0
M  V30 32 C 1.211340 -4.987374 -1.997210 0
M  V30 33 C 1.602156 -4.105970 -1.007440 0
M  V30 34 C 2.994917 -3.978401 -0.617998 0
M  V30 35 C 4.032512 -4.161421 -1.510889 0
M  V30 36 C 5.336616 -4.015278 -1.030792 0
M  V30 37 C 5.606383 -3.697646 0.291927 0
M  V30 38 O 6.895125 -3.556121 0.753229 0
M  V30 39 C 7.238910 -3.238082 2.069856 0
M  V30 40 C 4.541883 -3.516985 1.177363 0
M  V30 41 C 3.255714 -3.661404 0.703134 0
M  V30 42 C 0.605063 -3.337109 -0.388671 0
M  V30 43 C -0.757280 -3.412259 -0.716206 0
M  V30 44 C -1.546283 -2.497685 0.093022 0
M  V30 45 O -1.472534 -2.869507 1.294189 0
M  V30 46 O -2.294508 -1.380477 -0.245623 0
M  V30 47 C -2.986514 -0.646550 0.771665 0
M  V30 48 C -3.669640 0.510454 0.064841 0
M  V30 49 C -4.637388 -0.045617 -0.966006 0
M  V30 50 C -4.453128 1.347120 1.010497 0
M  V30 51 C -2.661320 1.335992 -0.700228 0 CFG=1
M  V30 52 O -3.335346 1.897329 -1.780032 0
M  V30 53 O -1.660634 0.518352 -1.219619 0
M  V30 54 H 0.482005 -4.229347 4.993241 0
M  V30 55 H 0.139473 -3.480582 3.431964 0
M  V30 56 H -1.065740 -3.249288 4.751714 0
M  V30 57 H 1.326630 -2.238245 5.881103 0
M  V30 58 H 1.404209 -1.758446 4.119922 0
M  V30 59 H -0.920323 -0.850007 4.395574 0
M  V30 60 H -0.924356 -1.403328 6.099580 0
M  V30 61 H -0.383735 0.998247 5.973800 0
M  V30 62 H 0.976116 0.024895 6.656581 0
M  V30 63 H 1.687822 1.796234 5.073982 0
M  V30 64 H 2.189859 0.217148 4.477975 0
M  V30 65 H 1.238826 1.580825 2.714711 0
M  V30 66 H 0.126695 0.237320 2.948693 0
M  V30 67 H -1.345622 1.676213 4.350920 0
M  V30 68 H -0.205316 3.030741 4.209101 0
M  V30 69 H -2.841207 3.172156 0.381171 0
M  V30 70 H -1.050837 4.904668 0.162524 0
M  V30 71 H 1.017969 6.653566 -3.594329 0
M  V30 72 H 1.941554 5.331119 -4.328660 0
M  V30 73 H 2.567495 6.072353 -2.770984 0
M  V30 74 H 0.520414 2.282034 -2.043695 0
M  V30 75 H -0.760031 3.109397 -3.042798 0
M  V30 76 H -2.086585 1.308350 -3.090947 0
M  V30 77 H 0.100085 -0.540460 -2.432628 0
M  V30 78 H 0.666332 0.849089 -3.359087 0
M  V30 79 H 0.176322 -1.005820 -4.736512 0
M  V30 80 H -1.074481 -0.013158 -6.472128 0
M  V30 81 H -0.058522 1.220663 -5.736165 0
M  V30 82 H -1.964956 2.236315 -5.882315 0
M  V30 83 H -3.789216 -2.717726 -4.641285 0
M  V30 84 H -2.975928 -4.251476 -4.892390 0
M  V30 85 H -4.268536 -4.226096 -2.887519 0
M  V30 86 H -3.611714 -2.732130 -2.250227 0
M  V30 87 H -0.442524 -5.736123 -3.079495 0
M  V30 88 H 1.923181 -5.612257 -2.518390 0
M  V30 89 H 3.829523 -4.410394 -2.547891 0
M  V30 90 H 6.136338 -4.159421 -1.733662 0
M  V30 91 H 8.342358 -3.047493 2.085985 0
M  V30 92 H 7.045517 -4.039072 2.807934 0
M  V30 93 H 6.792644 -2.259472 2.395146 0
M  V30 94 H 4.795693 -3.270133 2.201396 0
M  V30 95 H 2.497913 -3.498667 1.477428 0
M  V30 96 H 0.972018 -2.663981 0.388286 0
M  V30 97 H -3.785784 -1.302064 1.188600 0
M  V30 98 H -2.341727 -0.323950 1.587167 0
M  V30 99 H -4.031917 -0.415930 -1.814805 0
M  V30 100 H -5.201381 0.850087 -1.361205 0
M  V30 101 H -5.359883 -0.741979 -0.548116 0
M  V30 102 H -4.046590 1.360536 2.040773 0
M  V30 103 H -5.479109 0.884480 1.146373 0
M  V30 104 H -4.684648 2.347313 0.594220 0
M  V30 105 H -3.093908 2.841709 -1.945541 0
M  V30 END ATOM
M  V30 BEGIN BOND
M  V30 1 1 1 2
M  V30 2 1 2 3
M  V30 3 1 3 4
M  V30 4 1 4 5
M  V30 5 1 5 6
M  V30 6 1 6 7
M  V30 7 1 7 8
M  V30 8 2 8 9
M  V30 9 1 8 10
M  V30 10 1 10 11
M  V30 11 1 11 12
M  V30 12 2 12 13
M  V30 13 1 13 14
M  V30 14 2 14 15
M  V30 15 1 14 16
M  V30 16 1 16 17
M  V30 17 1 12 18
M  V30 18 1 18 19
M  V30 19 1 19 20
M  V30 20 1 20 21
M  V30 21 1 21 22
M  V30 22 1 22 23
M  V30 23 1 21 24
M  V30 24 1 24 25
M  V30 25 2 25 26
M  V30 26 1 25 27
M  V30 27 1 27 28
M  V30 28 1 28 29
M  V30 29 1 29 30
M  V30 30 2 30 31
M  V30 31 1 31 32
M  V30 32 2 32 33
M  V30 33 1 33 34
M  V30 34 2 34 35
M  V30 35 1 35 36
M  V30 36 2 36 37
M  V30 37 1 37 38
M  V30 38 1 38 39
M  V30 39 1 37 40
M  V30 40 2 40 41
M  V30 41 1 33 42
M  V30 42 2 42 43
M  V30 43 1 43 44
M  V30 44 2 44 45
M  V30 45 1 44 46
M  V30 46 1 46 47
M  V30 47 1 47 48
M  V30 48 1 48 49
M  V30 49 1 48 50
M  V30 50 1 48 51
M  V30 51 1 51 52 CFG=3
M  V30 52 1 51 53
M  V30 53 1 51 11
M  V30 54 1 53 19
M  V30 55 1 43 30
M  V30 56 1 41 34
M  V30 57 1 1 54
M  V30 58 1 1 55
M  V30 59 1 1 56
M  V30 60 1 2 57
M  V30 61 1 2 58
M  V30 62 1 3 59
M  V30 63 1 3 60
M  V30 64 1 4 61
M  V30 65 1 4 62
M  V30 66 1 5 63
M  V30 67 1 5 64
M  V30 68 1 6 65
M  V30 69 1 6 66
M  V30 70 1 7 67
M  V30 71 1 7 68
M  V30 72 1 11 69 CFG=1
M  V30 73 1 13 70
M  V30 74 1 17 71
M  V30 75 1 17 72
M  V30 76 1 17 73
M  V30 77 1 18 74
M  V30 78 1 18 75
M  V30 79 1 19 76 CFG=3
M  V30 80 1 20 77
M  V30 81 1 20 78
M  V30 82 1 21 79 CFG=3
M  V30 83 1 22 80
M  V30 84 1 22 81
M  V30 85 1 23 82
M  V30 86 1 27 83
M  V30 87 1 27 84
M  V30 88 1 28 85
M  V30 89 1 28 86
M  V30 90 1 31 87
M  V30 91 1 32 88
M  V30 92 1 35 89
M  V30 93 1 36 90
M  V30 94 1 39 91
M  V30 95 1 39 92
M  V30 96 1 39 93
M  V30 97 1 40 94
M  V30 98 1 41 95
M  V30 99 1 42 96
M  V30 100 1 47 97
M  V30 101 1 47 98
M  V30 102 1 49 99
M  V30 103 1 49 100
M  V30 104 1 49 101
M  V30 105 1 50 102
M  V30 106 1 50 103
M  V30 107 1 50 104
M  V30 108 1 52 105
M  V30 END BOND
M  V30 END CTAB
M  END
>  <Dataset>  (663) 
ChEMBL_Kinases

>  <Ligand_Instance>  (663) 
nan

>  <PDB_ID>  (663) 
nan

>  <Standardized_SMILES>  (663) 
CCCCCCCC(=O)O[C@H]1/C(=C/C(=O)OC)C[C@H]2C[C@H](CO)OC(=O)CCOc3ccc(-c4ccc(OC)cc4)cc3C(=O)OCC(C)(C)[C@]1(O)O2

>  <Name>  (663) 
nan

>  <Pocket>  (663) 
nan

>  <ATP_Site>  (663) 
nan

>  <Peripheral>  (663) 
nan

>  <Num_H_Atoms_ProtBoundConf>  (663) 
nan

>  <Num_Resolved_Atoms>  (663) 
nan

>  <Num_Not_Resolved_Atoms>  (663) 
nan

$$$$
CHEMBL4525078
     RDKit          3D

  0  0  0  0  0  0  0  0  0  0999 V3000
M  V30 BEGIN CTAB
M  V30 COUNTS 50 52 0 0 0
M  V30 BEGIN ATOM
M  V30 1 C 2.170084 -5.479403 1.188211 0
M  V30 2 C 2.556680 -4.174120 1.772352 0
M  V30 3 N 3.480552 -4.090280 2.776958 0
M  V30 4 N 3.652642 -2.814182 3.120270 0
M  V30 5 C 2.829500 -2.060724 2.327174 0
M  V30 6 C 2.136810 -2.898761 1.478031 0
M  V30 7 C 1.154262 -2.523579 0.466161 0
M  V30 8 N 0.863432 -1.230732 0.249260 0
M  V30 9 C -0.041961 -0.787144 -0.650340 0
M  V30 10 N -0.338730 0.583637 -0.840928 0
M  V30 11 C 0.311114 1.655573 -0.134905 0
M  V30 12 C -0.336959 2.957970 -0.476304 0
M  V30 13 C 1.705977 1.734811 -0.864912 0
M  V30 14 C 0.644841 1.446371 1.270951 0
M  V30 15 C -0.341465 1.149942 2.306646 0
M  V30 16 N -1.377525 2.079536 2.612149 0
M  V30 17 C -2.057020 1.653960 3.880684 0
M  V30 18 C -2.478050 2.051861 1.653050 0
M  V30 19 C -0.650938 -1.813478 -1.338332 0
M  V30 20 C -1.592909 -1.538642 -2.289681 0
M  V30 21 C -2.290426 -2.455509 -3.066517 0
M  V30 22 N -1.997032 -3.770464 -2.848322 0
M  V30 23 C -1.078516 -4.094093 -1.923294 0
M  V30 24 C -0.408590 -3.160062 -1.174565 0
M  V30 25 N 0.526992 -3.480245 -0.236819 0
M  V30 26 H 1.125935 -5.486543 0.824633 0
M  V30 27 H 2.811911 -5.719457 0.293143 0
M  V30 28 H 2.286600 -6.283249 1.947804 0
M  V30 29 H 4.294066 -2.436388 3.857747 0
M  V30 30 H 2.778003 -0.982604 2.406531 0
M  V30 31 H -1.060573 0.888568 -1.521875 0
M  V30 32 H -1.355335 2.735625 -0.894989 0
M  V30 33 H 0.226646 3.490848 -1.268940 0
M  V30 34 H -0.386244 3.610115 0.421466 0
M  V30 35 H 2.312451 2.536047 -0.430482 0
M  V30 36 H 2.181227 0.734497 -0.857490 0
M  V30 37 H 1.431512 1.952387 -1.917990 0
M  V30 38 H 1.145330 2.433889 1.601638 0
M  V30 39 H 1.549908 0.753967 1.324430 0
M  V30 40 H -0.821660 0.135525 2.198849 0
M  V30 41 H 0.236001 1.020169 3.280920 0
M  V30 42 H -2.208449 0.565102 3.854123 0
M  V30 43 H -1.449191 1.996785 4.734536 0
M  V30 44 H -3.042575 2.144789 3.903033 0
M  V30 45 H -3.478066 1.874075 2.163139 0
M  V30 46 H -2.634089 3.063724 1.187421 0
M  V30 47 H -2.307453 1.259353 0.909022 0
M  V30 48 H -1.880922 -0.530165 -2.520248 0
M  V30 49 H -3.027286 -2.190749 -3.806886 0
M  V30 50 H -0.868991 -5.149989 -1.777249 0
M  V30 END ATOM
M  V30 BEGIN BOND
M  V30 1 1 1 2
M  V30 2 2 2 3
M  V30 3 1 3 4
M  V30 4 1 4 5
M  V30 5 2 5 6
M  V30 6 1 6 7
M  V30 7 2 7 8
M  V30 8 1 8 9
M  V30 9 1 9 10
M  V30 10 1 10 11
M  V30 11 1 11 12
M  V30 12 1 11 13
M  V30 13 1 11 14
M  V30 14 1 14 15
M  V30 15 1 15 16
M  V30 16 1 16 17
M  V30 17 1 16 18
M  V30 18 2 9 19
M  V30 19 1 19 20
M  V30 20 2 20 21
M  V30 21 1 21 22
M  V30 22 2 22 23
M  V30 23 1 23 24
M  V30 24 2 24 25
M  V30 25 1 6 2
M  V30 26 1 25 7
M  V30 27 1 24 19
M  V30 28 1 1 26
M  V30 29 1 1 27
M  V30 30 1 1 28
M  V30 31 1 4 29
M  V30 32 1 5 30
M  V30 33 1 10 31
M  V30 34 1 12 32
M  V30 35 1 12 33
M  V30 36 1 12 34
M  V30 37 1 13 35
M  V30 38 1 13 36
M  V30 39 1 13 37
M  V30 40 1 14 38
M  V30 41 1 14 39
M  V30 42 1 15 40
M  V30 43 1 15 41
M  V30 44 1 17 42
M  V30 45 1 17 43
M  V30 46 1 17 44
M  V30 47 1 18 45
M  V30 48 1 18 46
M  V30 49 1 18 47
M  V30 50 1 20 48
M  V30 51 1 21 49
M  V30 52 1 23 50
M  V30 END BOND
M  V30 END CTAB
M  END
>  <Dataset>  (664) 
ChEMBL_Kinases

>  <Ligand_Instance>  (664) 
nan

>  <PDB_ID>  (664) 
nan

>  <Standardized_SMILES>  (664) 
Cc1n[nH]cc1-c1nc(NC(C)(C)CCN(C)C)c2ccncc2n1

>  <Name>  (664) 
nan

>  <Pocket>  (664) 
nan

>  <ATP_Site>  (664) 
nan

>  <Peripheral>  (664) 
nan

>  <Num_H_Atoms_ProtBoundConf>  (664) 
nan

>  <Num_Resolved_Atoms>  (664) 
nan

>  <Num_Not_Resolved_Atoms>  (664) 
nan

$$$$
CHEMBL4524977
     RDKit          3D

  0  0  0  0  0  0  0  0  0  0999 V3000
M  V30 BEGIN CTAB
M  V30 COUNTS 83 88 0 0 0
M  V30 BEGIN ATOM
M  V30 1 C 4.387498 1.184003 7.075468 0
M  V30 2 C 4.920575 0.130922 6.151721 0
M  V30 3 S 4.384484 0.498189 4.460005 0
M  V30 4 C 4.995699 -0.726473 3.316545 0
M  V30 5 N 5.758096 -1.781027 3.680370 0
M  V30 6 C 6.210277 -2.692876 2.821504 0
M  V30 7 C 5.947570 -2.656653 1.461869 0
M  V30 8 C 5.159912 -1.562661 1.100754 0
M  V30 9 C 4.679047 -0.602750 1.981274 0
M  V30 10 C 3.851181 0.496307 1.423448 0
M  V30 11 N 2.444652 0.319265 1.692339 0
M  V30 12 C 1.549822 1.301606 1.180225 0
M  V30 13 N 2.041006 2.338233 0.501778 0
M  V30 14 C 1.306631 3.311379 -0.032202 0
M  V30 15 C -0.045913 3.257324 0.116088 0
M  V30 16 C -0.983414 4.218264 -0.393304 0
M  V30 17 N -1.750272 4.977416 -0.800258 0
M  V30 18 C -0.611183 2.195601 0.815791 0
M  V30 19 N -1.967870 1.892270 1.113181 0
M  V30 20 C -3.161181 1.284891 1.583132 0
M  V30 21 C -3.351213 -0.081067 0.965951 0
M  V30 22 C -4.708496 -0.672521 1.446281 0
M  V30 23 C -4.902097 -1.966421 0.720097 0
M  V30 24 C -4.848331 -1.864975 -0.775144 0
M  V30 25 C -3.514683 -1.264192 -1.213051 0
M  V30 26 C -3.461208 0.090818 -0.499932 0
M  V30 27 C -2.319944 -2.021095 -0.758173 0
M  V30 28 N -1.783143 -3.019107 -1.557384 0
M  V30 29 C -0.796229 -2.845210 -2.525010 0
M  V30 30 C -1.004089 -2.104798 -3.784783 0 CFG=1
M  V30 31 C -1.343698 -0.659137 -3.729039 0
M  V30 32 C -0.409552 0.193890 -4.615212 0
M  V30 33 C 0.972195 0.073890 -4.037334 0 CFG=2
M  V30 34 O 1.881742 0.927347 -4.627077 0
M  V30 35 C 1.376672 -1.376171 -4.162390 0
M  V30 36 C 0.239636 -2.214450 -4.694659 0
M  V30 37 C -2.494003 -2.396081 0.703014 0
M  V30 38 C -3.811816 -2.978426 1.059648 0
M  V30 39 C -2.374413 -1.075827 1.478893 0
M  V30 40 N 0.225127 1.278042 1.308341 0
M  V30 41 H 4.907920 1.158875 8.071556 0
M  V30 42 H 4.558709 2.195352 6.653714 0
M  V30 43 H 3.312646 1.064570 7.245376 0
M  V30 44 H 6.021958 0.062160 6.227725 0
M  V30 45 H 4.536119 -0.868665 6.479681 0
M  V30 46 H 6.821024 -3.512771 3.200673 0
M  V30 47 H 6.288154 -3.359383 0.740951 0
M  V30 48 H 4.911120 -1.469454 0.036560 0
M  V30 49 H 4.064726 0.682374 0.357584 0
M  V30 50 H 4.201190 1.423141 1.953132 0
M  V30 51 H 2.063022 -0.483937 2.238323 0
M  V30 52 H 1.591292 4.186783 -0.593015 0
M  V30 53 H -2.410392 2.736435 0.633261 0
M  V30 54 H -4.055734 1.882113 1.338647 0
M  V30 55 H -3.166233 1.202763 2.714198 0
M  V30 56 H -5.536844 0.000335 1.179596 0
M  V30 57 H -4.625877 -0.865536 2.513473 0
M  V30 58 H -5.844759 -2.404280 1.073369 0
M  V30 59 H -5.632285 -1.236464 -1.218043 0
M  V30 60 H -4.919740 -2.901042 -1.167926 0
M  V30 61 H -3.637190 -1.109104 -2.281611 0
M  V30 62 H -4.452454 0.559497 -0.708678 0
M  V30 63 H -2.705515 0.759405 -0.960865 0
M  V30 64 H -1.495654 -1.220332 -0.683518 0
M  V30 65 H -1.781886 -3.988151 -1.171403 0
M  V30 66 H 0.046769 -2.249463 -1.986905 0
M  V30 67 H -0.227777 -3.823975 -2.729433 0
M  V30 68 H -1.797155 -2.631438 -4.411751 0
M  V30 69 H -2.350349 -0.426372 -4.165315 0
M  V30 70 H -1.329492 -0.180331 -2.755413 0
M  V30 71 H -0.761088 1.249973 -4.509817 0
M  V30 72 H -0.507593 -0.048246 -5.672278 0
M  V30 73 H 0.888672 0.325192 -2.954188 0
M  V30 74 H 2.016095 1.758217 -4.091209 0
M  V30 75 H 1.718952 -1.816445 -3.193708 0
M  V30 76 H 2.203338 -1.482033 -4.898032 0
M  V30 77 H 0.547917 -3.282969 -4.625730 0
M  V30 78 H -0.006981 -2.016978 -5.737406 0
M  V30 79 H -1.697969 -3.084502 1.053130 0
M  V30 80 H -3.825460 -3.140695 2.145769 0
M  V30 81 H -4.092574 -3.900269 0.506726 0
M  V30 82 H -1.343695 -0.802820 1.583616 0
M  V30 83 H -2.707543 -1.367936 2.525819 0
M  V30 END ATOM
M  V30 BEGIN BOND
M  V30 1 1 1 2
M  V30 2 1 2 3
M  V30 3 1 3 4
M  V30 4 2 4 5
M  V30 5 1 5 6
M  V30 6 2 6 7
M  V30 7 1 7 8
M  V30 8 2 8 9
M  V30 9 1 9 10
M  V30 10 1 10 11
M  V30 11 1 11 12
M  V30 12 2 12 13
M  V30 13 1 13 14
M  V30 14 2 14 15
M  V30 15 1 15 16
M  V30 16 3 16 17
M  V30 17 1 15 18
M  V30 18 1 18 19
M  V30 19 1 19 20
M  V30 20 1 20 21
M  V30 21 1 21 22
M  V30 22 1 22 23
M  V30 23 1 23 24
M  V30 24 1 24 25
M  V30 25 1 25 26
M  V30 26 1 25 27
M  V30 27 1 27 28
M  V30 28 1 28 29
M  V30 29 1 29 30
M  V30 30 1 30 31
M  V30 31 1 31 32
M  V30 32 1 32 33
M  V30 33 1 33 34
M  V30 34 1 33 35
M  V30 35 1 35 36
M  V30 36 1 27 37
M  V30 37 1 37 38
M  V30 38 1 37 39
M  V30 39 2 18 40
M  V30 40 1 9 4
M  V30 41 1 40 12
M  V30 42 1 26 21
M  V30 43 1 36 30
M  V30 44 1 39 21
M  V30 45 1 38 23
M  V30 46 1 1 41
M  V30 47 1 1 42
M  V30 48 1 1 43
M  V30 49 1 2 44
M  V30 50 1 2 45
M  V30 51 1 6 46
M  V30 52 1 7 47
M  V30 53 1 8 48
M  V30 54 1 10 49
M  V30 55 1 10 50
M  V30 56 1 11 51
M  V30 57 1 14 52
M  V30 58 1 19 53
M  V30 59 1 20 54
M  V30 60 1 20 55
M  V30 61 1 22 56
M  V30 62 1 22 57
M  V30 63 1 23 58
M  V30 64 1 24 59
M  V30 65 1 24 60
M  V30 66 1 25 61
M  V30 67 1 26 62
M  V30 68 1 26 63
M  V30 69 1 27 64
M  V30 70 1 28 65
M  V30 71 1 29 66
M  V30 72 1 29 67
M  V30 73 1 30 68 CFG=3
M  V30 74 1 31 69
M  V30 75 1 31 70
M  V30 76 1 32 71
M  V30 77 1 32 72
M  V30 78 1 33 73 CFG=1
M  V30 79 1 34 74
M  V30 80 1 35 75
M  V30 81 1 35 76
M  V30 82 1 36 77
M  V30 83 1 36 78
M  V30 84 1 37 79
M  V30 85 1 38 80
M  V30 86 1 38 81
M  V30 87 1 39 82
M  V30 88 1 39 83
M  V30 END BOND
M  V30 END CTAB
M  END
>  <Dataset>  (665) 
ChEMBL_Kinases

>  <Ligand_Instance>  (665) 
nan

>  <PDB_ID>  (665) 
nan

>  <Standardized_SMILES>  (665) 
CCSc1ncccc1CNc1ncc(C#N)c(NCC23CC4CC(C2)C(NC[C@H]2CC[C@H](O)CC2)C(C4)C3)n1

>  <Name>  (665) 
nan

>  <Pocket>  (665) 
nan

>  <ATP_Site>  (665) 
nan

>  <Peripheral>  (665) 
nan

>  <Num_H_Atoms_ProtBoundConf>  (665) 
nan

>  <Num_Resolved_Atoms>  (665) 
nan

>  <Num_Not_Resolved_Atoms>  (665) 
nan

$$$$
CHEMBL4524940
     RDKit          3D

  0  0  0  0  0  0  0  0  0  0999 V3000
M  V30 BEGIN CTAB
M  V30 COUNTS 69 73 0 0 0
M  V30 BEGIN ATOM
M  V30 1 C 4.803200 -3.483857 5.972051 0
M  V30 2 N 4.502771 -3.583017 4.560256 0
M  V30 3 N 5.070092 -4.539058 3.819871 0
M  V30 4 C 4.607311 -4.386168 2.543345 0
M  V30 5 C 3.761809 -3.302392 2.622666 0
M  V30 6 Cl 3.080591 -2.988112 1.015254 0
M  V30 7 C 3.687577 -2.785848 3.893215 0
M  V30 8 C 2.855399 -1.656969 4.147788 0
M  V30 9 C 2.092370 -1.023537 3.192029 0
M  V30 10 C 1.381823 0.047195 3.706618 0
M  V30 11 C 0.463900 0.989269 3.084853 0
M  V30 12 O -0.066310 1.912385 3.708751 0
M  V30 13 N 0.153309 0.862790 1.722738 0
M  V30 14 C -0.695693 1.618717 0.844613 0 CFG=2
M  V30 15 C -1.863852 0.720488 0.508086 0
M  V30 16 N -1.487595 -0.302715 -0.446802 0
M  V30 17 C -0.982736 0.260077 -1.681012 0 CFG=2
M  V30 18 C -0.594141 -0.896713 -2.579295 0
M  V30 19 C -1.774846 -1.784787 -2.887307 0
M  V30 20 N -2.408072 -2.391106 -1.785666 0
M  V30 21 C -1.725640 -3.390098 -1.061663 0
M  V30 22 C -2.233304 -4.761587 -1.524097 0
M  V30 23 C -3.703297 -4.833630 -1.218833 0
M  V30 24 C -4.441985 -3.721427 -1.888970 0
M  V30 25 C -3.822243 -2.372927 -1.747801 0
M  V30 26 C 0.216067 1.096430 -1.436338 0
M  V30 27 C 0.081939 2.103696 -0.325715 0 CFG=1
M  V30 28 C -0.306438 3.458767 -0.796886 0
M  V30 29 C -1.588730 3.738330 -1.280442 0
M  V30 30 C -1.964225 4.969497 -1.715016 0
M  V30 31 C -1.070106 6.031020 -1.698269 0
M  V30 32 Cl -1.608651 7.601181 -2.271399 0
M  V30 33 C 0.212796 5.815972 -1.231227 0
M  V30 34 Cl 1.355914 7.142487 -1.202104 0
M  V30 35 C 0.540514 4.548706 -0.802722 0
M  V30 36 O 1.705112 0.080559 4.993221 0
M  V30 37 C 2.547883 -0.897060 5.237093 0
M  V30 38 Cl 3.080779 -1.010351 6.865993 0
M  V30 39 H 5.499750 -4.326080 6.269391 0
M  V30 40 H 3.936331 -3.654155 6.633551 0
M  V30 41 H 5.316875 -2.559089 6.255640 0
M  V30 42 H 5.014190 -5.118945 1.870305 0
M  V30 43 H 1.913389 -1.163145 2.126340 0
M  V30 44 H 0.598369 0.080067 1.183025 0
M  V30 45 H -1.162878 2.510530 1.355064 0
M  V30 46 H -2.103820 0.158143 1.448667 0
M  V30 47 H -2.785637 1.233345 0.243016 0
M  V30 48 H -0.728377 -0.892683 -0.023384 0
M  V30 49 H -1.811376 0.814291 -2.181473 0
M  V30 50 H -0.233470 -0.527607 -3.577023 0
M  V30 51 H 0.267597 -1.456726 -2.157285 0
M  V30 52 H -2.526226 -1.129230 -3.399929 0
M  V30 53 H -1.510369 -2.578403 -3.622070 0
M  V30 54 H -0.656978 -3.365680 -1.363320 0
M  V30 55 H -1.871604 -3.381498 0.041932 0
M  V30 56 H -2.115828 -4.791453 -2.617805 0
M  V30 57 H -1.716692 -5.575783 -0.980285 0
M  V30 58 H -4.073723 -5.804288 -1.617331 0
M  V30 59 H -3.882775 -4.781250 -0.128384 0
M  V30 60 H -4.690879 -3.964330 -2.962081 0
M  V30 61 H -5.458719 -3.676897 -1.398236 0
M  V30 62 H -4.253611 -1.853822 -0.867003 0
M  V30 63 H -4.164214 -1.775976 -2.640569 0
M  V30 64 H 1.071818 0.411538 -1.263160 0
M  V30 65 H 0.475504 1.686756 -2.357832 0
M  V30 66 H 1.149030 2.231353 0.035160 0
M  V30 67 H -2.328818 2.983988 -1.325660 0
M  V30 68 H -2.974181 5.166086 -2.089712 0
M  V30 69 H 1.552868 4.408956 -0.442098 0
M  V30 END ATOM
M  V30 BEGIN BOND
M  V30 1 1 1 2
M  V30 2 1 2 3
M  V30 3 2 3 4
M  V30 4 1 4 5
M  V30 5 1 5 6
M  V30 6 2 5 7
M  V30 7 1 7 8
M  V30 8 1 8 9
M  V30 9 2 9 10
M  V30 10 1 10 11
M  V30 11 2 11 12
M  V30 12 1 11 13
M  V30 13 1 13 14
M  V30 14 1 14 15
M  V30 15 1 15 16
M  V30 16 1 16 17
M  V30 17 1 17 18
M  V30 18 1 18 19
M  V30 19 1 19 20
M  V30 20 1 20 21
M  V30 21 1 21 22
M  V30 22 1 22 23
M  V30 23 1 23 24
M  V30 24 1 24 25
M  V30 25 1 17 26
M  V30 26 1 26 27
M  V30 27 1 27 28
M  V30 28 2 28 29
M  V30 29 1 29 30
M  V30 30 2 30 31
M  V30 31 1 31 32
M  V30 32 1 31 33
M  V30 33 1 33 34
M  V30 34 2 33 35
M  V30 35 1 10 36
M  V30 36 1 36 37
M  V30 37 1 37 38
M  V30 38 1 7 2
M  V30 39 2 37 8
M  V30 40 1 27 14
M  V30 41 1 35 28
M  V30 42 1 25 20
M  V30 43 1 1 39
M  V30 44 1 1 40
M  V30 45 1 1 41
M  V30 46 1 4 42
M  V30 47 1 9 43
M  V30 48 1 13 44
M  V30 49 1 14 45 CFG=1
M  V30 50 1 15 46
M  V30 51 1 15 47
M  V30 52 1 16 48
M  V30 53 1 17 49 CFG=3
M  V30 54 1 18 50
M  V30 55 1 18 51
M  V30 56 1 19 52
M  V30 57 1 19 53
M  V30 58 1 21 54
M  V30 59 1 21 55
M  V30 60 1 22 56
M  V30 61 1 22 57
M  V30 62 1 23 58
M  V30 63 1 23 59
M  V30 64 1 24 60
M  V30 65 1 24 61
M  V30 66 1 25 62
M  V30 67 1 25 63
M  V30 68 1 26 64
M  V30 69 1 26 65
M  V30 70 1 27 66 CFG=1
M  V30 71 1 29 67
M  V30 72 1 30 68
M  V30 73 1 35 69
M  V30 END BOND
M  V30 END CTAB
M  END
>  <Dataset>  (666) 
ChEMBL_Kinases

>  <Ligand_Instance>  (666) 
nan

>  <PDB_ID>  (666) 
nan

>  <Standardized_SMILES>  (666) 
Cn1ncc(Cl)c1-c1cc(C(=O)N[C@@H]2CN[C@H](CCN3CCCCC3)C[C@H]2c2ccc(Cl)c(Cl)c2)oc1Cl

>  <Name>  (666) 
nan

>  <Pocket>  (666) 
nan

>  <ATP_Site>  (666) 
nan

>  <Peripheral>  (666) 
nan

>  <Num_H_Atoms_ProtBoundConf>  (666) 
nan

>  <Num_Resolved_Atoms>  (666) 
nan

>  <Num_Not_Resolved_Atoms>  (666) 
nan

$$$$
CHEMBL4644586
     RDKit          3D

  0  0  0  0  0  0  0  0  0  0999 V3000
M  V30 BEGIN CTAB
M  V30 COUNTS 66 69 0 0 0
M  V30 BEGIN ATOM
M  V30 1 C 2.580961 0.601146 -5.846993 0
M  V30 2 C 1.138028 0.722337 -6.266988 0
M  V30 3 O 0.376866 1.301904 -5.235618 0
M  V30 4 C 0.241881 0.784484 -3.980671 0
M  V30 5 O 0.984251 -0.149302 -4.352908 0
M  V30 6 C -0.566431 1.428368 -2.928943 0
M  V30 7 C -1.188281 2.567615 -3.292854 0
M  V30 8 N -1.898191 3.103580 -2.332571 0
M  V30 9 C -2.032544 2.624987 -1.107905 0
M  V30 10 C -2.856647 3.400976 -0.300680 0
M  V30 11 C -3.048603 2.943173 1.005527 0
M  V30 12 C -2.417757 1.777582 1.386522 0
M  V30 13 C -2.661376 1.312925 2.741433 0
M  V30 14 C -2.159851 0.154908 3.299574 0
M  V30 15 C -2.375217 -0.285683 4.584391 0
M  V30 16 N -3.144594 0.465220 5.392193 0
M  V30 17 C -3.680276 1.614627 4.936805 0
M  V30 18 C -4.507467 2.376899 5.881644 0
M  V30 19 C -3.432201 2.009329 3.641281 0
M  V30 20 N -1.636711 1.090647 0.539262 0
M  V30 21 C -1.404368 1.466700 -0.727285 0
M  V30 22 C -0.628032 0.818588 -1.663836 0
M  V30 23 N 0.027842 -0.368146 -1.286008 0
M  V30 24 C 0.619528 -1.528847 -0.761520 0 CFG=1
M  V30 25 C 2.109857 -1.377514 -0.480807 0
M  V30 26 C 2.516064 -2.689234 0.227012 0
M  V30 27 C 2.120720 -2.486443 1.687870 0 CFG=2
M  V30 28 C 2.589869 -3.627995 2.486212 0
M  V30 29 N 2.116911 -4.931265 2.156619 0
M  V30 30 C 2.881021 -5.952282 2.912330 0
M  V30 31 C 0.728145 -5.182902 2.535088 0
M  V30 32 C 0.714136 -2.044124 1.738550 0
M  V30 33 C -0.077444 -2.099261 0.477291 0
M  V30 34 H 2.872785 -0.457665 -5.649330 0
M  V30 35 H 2.794882 1.177411 -4.924550 0
M  V30 36 H 3.273703 0.915054 -6.680746 0
M  V30 37 H 1.030407 1.329331 -7.199520 0
M  V30 38 H 0.757549 -0.316694 -6.432816 0
M  V30 39 H -1.088475 2.972797 -4.288366 0
M  V30 40 H -3.342213 4.323533 -0.644017 0
M  V30 41 H -3.701618 3.588857 1.590759 0
M  V30 42 H -1.555151 -0.481764 2.701623 0
M  V30 43 H -1.962314 -1.192167 4.979871 0
M  V30 44 H -4.521317 3.470008 5.617785 0
M  V30 45 H -5.537444 1.953873 5.883376 0
M  V30 46 H -4.085092 2.303027 6.902931 0
M  V30 47 H -3.908803 2.935255 3.394783 0
M  V30 48 H 0.550217 -0.602972 -2.179341 0
M  V30 49 H 0.550938 -2.395219 -1.489736 0
M  V30 50 H 2.684760 -1.385175 -1.430345 0
M  V30 51 H 2.350189 -0.583664 0.221434 0
M  V30 52 H 3.599630 -2.834230 0.154264 0
M  V30 53 H 1.952842 -3.484960 -0.248941 0
M  V30 54 H 2.731560 -1.536978 1.958970 0
M  V30 55 H 3.719168 -3.678766 2.337211 0
M  V30 56 H 2.527364 -3.434537 3.603916 0
M  V30 57 H 3.172811 -6.716013 2.170735 0
M  V30 58 H 3.803187 -5.528346 3.341528 0
M  V30 59 H 2.269463 -6.423343 3.692273 0
M  V30 60 H 0.056377 -4.918428 1.721821 0
M  V30 61 H 0.620940 -6.311669 2.629436 0
M  V30 62 H 0.547428 -4.725356 3.510812 0
M  V30 63 H 0.627841 -0.981876 2.151510 0
M  V30 64 H 0.157487 -2.647336 2.487821 0
M  V30 65 H -0.380969 -3.173604 0.311170 0
M  V30 66 H -1.041442 -1.575680 0.656899 0
M  V30 END ATOM
M  V30 BEGIN BOND
M  V30 1 1 1 2
M  V30 2 1 2 3
M  V30 3 1 3 4
M  V30 4 2 4 5
M  V30 5 1 4 6
M  V30 6 2 6 7
M  V30 7 1 7 8
M  V30 8 2 8 9
M  V30 9 1 9 10
M  V30 10 2 10 11
M  V30 11 1 11 12
M  V30 12 1 12 13
M  V30 13 2 13 14
M  V30 14 1 14 15
M  V30 15 2 15 16
M  V30 16 1 16 17
M  V30 17 1 17 18
M  V30 18 2 17 19
M  V30 19 2 12 20
M  V30 20 1 20 21
M  V30 21 2 21 22
M  V30 22 1 22 23
M  V30 23 1 23 24
M  V30 24 1 24 25
M  V30 25 1 25 26
M  V30 26 1 26 27
M  V30 27 1 27 28
M  V30 28 1 28 29
M  V30 29 1 29 30
M  V30 30 1 29 31
M  V30 31 1 27 32
M  V30 32 1 32 33
M  V30 33 1 22 6
M  V30 34 1 33 24
M  V30 35 1 21 9
M  V30 36 1 19 13
M  V30 37 1 1 34
M  V30 38 1 1 35
M  V30 39 1 1 36
M  V30 40 1 2 37
M  V30 41 1 2 38
M  V30 42 1 7 39
M  V30 43 1 10 40
M  V30 44 1 11 41
M  V30 45 1 14 42
M  V30 46 1 15 43
M  V30 47 1 18 44
M  V30 48 1 18 45
M  V30 49 1 18 46
M  V30 50 1 19 47
M  V30 51 1 23 48
M  V30 52 1 24 49 CFG=3
M  V30 53 1 25 50
M  V30 54 1 25 51
M  V30 55 1 26 52
M  V30 56 1 26 53
M  V30 57 1 27 54 CFG=1
M  V30 58 1 28 55
M  V30 59 1 28 56
M  V30 60 1 30 57
M  V30 61 1 30 58
M  V30 62 1 30 59
M  V30 63 1 31 60
M  V30 64 1 31 61
M  V30 65 1 31 62
M  V30 66 1 32 63
M  V30 67 1 32 64
M  V30 68 1 33 65
M  V30 69 1 33 66
M  V30 END BOND
M  V30 END CTAB
M  END
>  <Dataset>  (667) 
ChEMBL_Kinases

>  <Ligand_Instance>  (667) 
nan

>  <PDB_ID>  (667) 
nan

>  <Standardized_SMILES>  (667) 
CCOC(=O)c1cnc2ccc(-c3ccnc(C)c3)nc2c1N[C@H]1CC[C@H](CN(C)C)CC1

>  <Name>  (667) 
nan

>  <Pocket>  (667) 
nan

>  <ATP_Site>  (667) 
nan

>  <Peripheral>  (667) 
nan

>  <Num_H_Atoms_ProtBoundConf>  (667) 
nan

>  <Num_Resolved_Atoms>  (667) 
nan

>  <Num_Not_Resolved_Atoms>  (667) 
nan

$$$$
CHEMBL4524869
     RDKit          3D

  0  0  0  0  0  0  0  0  0  0999 V3000
M  V30 BEGIN CTAB
M  V30 COUNTS 76 80 0 0 0
M  V30 BEGIN ATOM
M  V30 1 C 7.009992 0.558173 1.679042 0
M  V30 2 C 6.858216 0.482628 0.200696 0
M  V30 3 C 5.548442 0.016744 -0.220687 0 CFG=2
M  V30 4 C 5.431834 -0.062410 -1.739935 0
M  V30 5 O 6.263079 0.477008 -2.554042 0
M  V30 6 N 4.332462 -0.779465 -2.352103 0
M  V30 7 C 4.452495 -1.469244 -3.629585 0
M  V30 8 O 4.840758 -2.783647 -3.522249 0
M  V30 9 C 6.063154 -2.969406 -2.921767 0
M  V30 10 C 3.131831 -0.708834 -1.551825 0
M  V30 11 C 2.009351 -1.357661 -2.009986 0
M  V30 12 N 0.915446 -1.273379 -1.236099 0
M  V30 13 C 0.860786 -0.611396 -0.077374 0
M  V30 14 N -0.259268 -0.481591 0.786605 0
M  V30 15 C -1.559334 -1.027010 0.627328 0
M  V30 16 C -1.953279 -1.818505 -0.432469 0
M  V30 17 C -3.208319 -2.362182 -0.606313 0
M  V30 18 C -4.173768 -2.110010 0.345230 0
M  V30 19 C -5.501415 -2.682373 0.172471 0
M  V30 20 O -5.714921 -3.401465 -0.831806 0
M  V30 21 N -6.575311 -2.474980 1.077645 0
M  V30 22 C -7.879354 -3.041070 0.905321 0
M  V30 23 C -8.342708 -3.838101 2.096750 0
M  V30 24 C -9.849846 -3.740358 2.117876 0
M  V30 25 C -10.264171 -2.638495 1.196567 0
M  V30 26 C -8.982766 -2.039681 0.720272 0
M  V30 27 C -3.827199 -1.324236 1.422194 0
M  V30 28 C -2.562309 -0.802555 1.555277 0
M  V30 29 O -2.288728 -0.021311 2.665865 0
M  V30 30 C -3.246948 0.248862 3.642512 0
M  V30 31 N 1.983397 -0.018854 0.285390 0
M  V30 32 C 3.153329 -0.004235 -0.363531 0
M  V30 33 N 4.329742 0.689765 0.146234 0
M  V30 34 C 4.229388 1.855216 0.883925 0
M  V30 35 C 2.893216 2.520032 1.097404 0
M  V30 36 C 2.700733 3.172959 -0.280504 0
M  V30 37 C 4.122610 3.554702 -0.710881 0
M  V30 38 C 4.932266 3.093126 0.452721 0
M  V30 39 H 8.018853 0.226442 2.032430 0
M  V30 40 H 6.950433 1.624095 1.990513 0
M  V30 41 H 6.270357 -0.004640 2.246982 0
M  V30 42 H 7.311450 1.324471 -0.353356 0
M  V30 43 H 7.582494 -0.350360 -0.091527 0
M  V30 44 H 5.522582 -1.053737 0.079050 0
M  V30 45 H 5.225192 -0.902193 -4.210648 0
M  V30 46 H 3.476657 -1.425073 -4.143202 0
M  V30 47 H 6.118479 -2.587060 -1.897394 0
M  V30 48 H 6.265580 -4.066718 -2.948485 0
M  V30 49 H 6.858992 -2.511052 -3.579010 0
M  V30 50 H 1.998359 -1.907259 -2.931593 0
M  V30 51 H -0.145007 0.089479 1.674983 0
M  V30 52 H -1.264036 -2.060418 -1.210633 0
M  V30 53 H -3.460034 -2.977726 -1.461681 0
M  V30 54 H -6.427263 -1.879198 1.922376 0
M  V30 55 H -7.852127 -3.656141 -0.024420 0
M  V30 56 H -8.081005 -4.900381 1.916502 0
M  V30 57 H -7.861932 -3.531791 3.035494 0
M  V30 58 H -10.239055 -3.626927 3.166682 0
M  V30 59 H -10.339594 -4.683368 1.751527 0
M  V30 60 H -10.850866 -3.015474 0.324156 0
M  V30 61 H -10.931946 -1.893670 1.678845 0
M  V30 62 H -8.763901 -1.049812 1.172596 0
M  V30 63 H -9.093348 -1.814741 -0.380869 0
M  V30 64 H -4.562007 -1.107875 2.185956 0
M  V30 65 H -3.467523 -0.726390 4.145724 0
M  V30 66 H -2.879592 1.014496 4.349841 0
M  V30 67 H -4.194462 0.617265 3.209937 0
M  V30 68 H 4.594141 1.638776 1.938065 0
M  V30 69 H 2.033880 1.931174 1.301872 0
M  V30 70 H 3.042115 3.343218 1.863314 0
M  V30 71 H 2.281876 2.429872 -0.982916 0
M  V30 72 H 2.029601 4.043667 -0.222566 0
M  V30 73 H 4.346861 3.036281 -1.658962 0
M  V30 74 H 4.146833 4.640469 -0.899277 0
M  V30 75 H 5.994095 3.119260 0.388281 0
M  V30 76 H 4.704587 3.846444 1.272700 0
M  V30 END ATOM
M  V30 BEGIN BOND
M  V30 1 1 1 2
M  V30 2 1 2 3
M  V30 3 1 3 4
M  V30 4 2 4 5
M  V30 5 1 4 6
M  V30 6 1 6 7
M  V30 7 1 7 8
M  V30 8 1 8 9
M  V30 9 1 6 10
M  V30 10 2 10 11
M  V30 11 1 11 12
M  V30 12 2 12 13
M  V30 13 1 13 14
M  V30 14 1 14 15
M  V30 15 2 15 16
M  V30 16 1 16 17
M  V30 17 2 17 18
M  V30 18 1 18 19
M  V30 19 2 19 20
M  V30 20 1 19 21
M  V30 21 1 21 22
M  V30 22 1 22 23
M  V30 23 1 23 24
M  V30 24 1 24 25
M  V30 25 1 25 26
M  V30 26 1 18 27
M  V30 27 2 27 28
M  V30 28 1 28 29
M  V30 29 1 29 30
M  V30 30 1 13 31
M  V30 31 2 31 32
M  V30 32 1 32 33
M  V30 33 1 33 34
M  V30 34 1 34 35
M  V30 35 1 35 36
M  V30 36 1 36 37
M  V30 37 1 37 38
M  V30 38 1 33 3
M  V30 39 1 38 34
M  V30 40 1 32 10
M  V30 41 1 28 15
M  V30 42 1 26 22
M  V30 43 1 1 39
M  V30 44 1 1 40
M  V30 45 1 1 41
M  V30 46 1 2 42
M  V30 47 1 2 43
M  V30 48 1 3 44 CFG=1
M  V30 49 1 7 45
M  V30 50 1 7 46
M  V30 51 1 9 47
M  V30 52 1 9 48
M  V30 53 1 9 49
M  V30 54 1 11 50
M  V30 55 1 14 51
M  V30 56 1 16 52
M  V30 57 1 17 53
M  V30 58 1 21 54
M  V30 59 1 22 55
M  V30 60 1 23 56
M  V30 61 1 23 57
M  V30 62 1 24 58
M  V30 63 1 24 59
M  V30 64 1 25 60
M  V30 65 1 25 61
M  V30 66 1 26 62
M  V30 67 1 26 63
M  V30 68 1 27 64
M  V30 69 1 30 65
M  V30 70 1 30 66
M  V30 71 1 30 67
M  V30 72 1 34 68
M  V30 73 1 35 69
M  V30 74 1 35 70
M  V30 75 1 36 71
M  V30 76 1 36 72
M  V30 77 1 37 73
M  V30 78 1 37 74
M  V30 79 1 38 75
M  V30 80 1 38 76
M  V30 END BOND
M  V30 END CTAB
M  END
>  <Dataset>  (668) 
ChEMBL_Kinases

>  <Ligand_Instance>  (668) 
nan

>  <PDB_ID>  (668) 
nan

>  <Standardized_SMILES>  (668) 
CC[C@@H]1C(=O)N(COC)c2cnc(Nc3ccc(C(=O)NC4CCCC4)cc3OC)nc2N1C1CCCC1

>  <Name>  (668) 
nan

>  <Pocket>  (668) 
nan

>  <ATP_Site>  (668) 
nan

>  <Peripheral>  (668) 
nan

>  <Num_H_Atoms_ProtBoundConf>  (668) 
nan

>  <Num_Resolved_Atoms>  (668) 
nan

>  <Num_Not_Resolved_Atoms>  (668) 
nan

$$$$
CHEMBL4524736
     RDKit          3D

  0  0  0  0  0  0  0  0  0  0999 V3000
M  V30 BEGIN CTAB
M  V30 COUNTS 44 47 0 0 0
M  V30 BEGIN ATOM
M  V30 1 N 2.940098 -2.667739 3.834323 0
M  V30 2 C 2.142534 -3.690473 3.286723 0
M  V30 3 N 1.851468 -4.869427 3.900677 0
M  V30 4 C 1.066275 -5.793355 3.277794 0
M  V30 5 C 0.540426 -5.574335 2.014465 0
M  V30 6 C -0.259103 -6.329123 1.192318 0
M  V30 7 C -0.432017 -5.538367 0.050940 0
M  V30 8 N 0.246973 -4.385269 0.231889 0
M  V30 9 C 0.349174 -3.276181 -0.685858 0
M  V30 10 C 0.566823 -3.637723 -2.002087 0
M  V30 11 C 0.680800 -2.656223 -2.965710 0
M  V30 12 N 0.574320 -1.371778 -2.581309 0
M  V30 13 C 0.362770 -0.996852 -1.307487 0
M  V30 14 C 0.249015 0.377441 -0.897442 0
M  V30 15 C 0.133099 1.531941 -0.558089 0
M  V30 16 C -0.010205 2.954571 -0.165060 0
M  V30 17 O -0.100798 3.711686 -1.307670 0
M  V30 18 C -1.341530 3.097186 0.584464 0
M  V30 19 C -1.574961 4.512916 0.978389 0
M  V30 20 C -0.423356 5.087544 1.768133 0
M  V30 21 C 0.902040 4.826677 1.087241 0
M  V30 22 C 1.079158 3.364229 0.779928 0
M  V30 23 C 0.240277 -1.938345 -0.298423 0
M  V30 24 C 0.857777 -4.368331 1.425283 0
M  V30 25 N 1.640389 -3.451335 2.050051 0
M  V30 26 H 2.674390 -1.958862 4.561448 0
M  V30 27 H 3.938425 -2.409306 3.634347 0
M  V30 28 H 0.858124 -6.731773 3.813106 0
M  V30 29 H -0.662961 -7.317745 1.390485 0
M  V30 30 H -1.011789 -5.822316 -0.811250 0
M  V30 31 H 0.655064 -4.666496 -2.328948 0
M  V30 32 H 0.852846 -2.898374 -4.016251 0
M  V30 33 H -1.039943 3.711195 -1.651543 0
M  V30 34 H -1.351068 2.422460 1.468541 0
M  V30 35 H -2.186891 2.767782 -0.053976 0
M  V30 36 H -1.867574 5.129249 0.105035 0
M  V30 37 H -2.462432 4.498671 1.677197 0
M  V30 38 H -0.590661 6.187798 1.803144 0
M  V30 39 H -0.436077 4.681010 2.779407 0
M  V30 40 H 0.977377 5.438657 0.163506 0
M  V30 41 H 1.695238 5.131478 1.810188 0
M  V30 42 H 2.084507 3.206294 0.358184 0
M  V30 43 H 0.919666 2.802116 1.726389 0
M  V30 44 H 0.070196 -1.761994 0.755097 0
M  V30 END ATOM
M  V30 BEGIN BOND
M  V30 1 1 1 2
M  V30 2 2 2 3
M  V30 3 1 3 4
M  V30 4 2 4 5
M  V30 5 1 5 6
M  V30 6 2 6 7
M  V30 7 1 7 8
M  V30 8 1 8 9
M  V30 9 2 9 10
M  V30 10 1 10 11
M  V30 11 2 11 12
M  V30 12 1 12 13
M  V30 13 1 13 14
M  V30 14 3 14 15
M  V30 15 1 15 16
M  V30 16 1 16 17
M  V30 17 1 16 18
M  V30 18 1 18 19
M  V30 19 1 19 20
M  V30 20 1 20 21
M  V30 21 1 21 22
M  V30 22 2 13 23
M  V30 23 1 8 24
M  V30 24 2 24 25
M  V30 25 1 25 2
M  V30 26 1 24 5
M  V30 27 1 23 9
M  V30 28 1 22 16
M  V30 29 1 1 26
M  V30 30 1 1 27
M  V30 31 1 4 28
M  V30 32 1 6 29
M  V30 33 1 7 30
M  V30 34 1 10 31
M  V30 35 1 11 32
M  V30 36 1 17 33
M  V30 37 1 18 34
M  V30 38 1 18 35
M  V30 39 1 19 36
M  V30 40 1 19 37
M  V30 41 1 20 38
M  V30 42 1 20 39
M  V30 43 1 21 40
M  V30 44 1 21 41
M  V30 45 1 22 42
M  V30 46 1 22 43
M  V30 47 1 23 44
M  V30 END BOND
M  V30 END CTAB
M  END
>  <Dataset>  (669) 
ChEMBL_Kinases

>  <Ligand_Instance>  (669) 
nan

>  <PDB_ID>  (669) 
nan

>  <Standardized_SMILES>  (669) 
Nc1ncc2ccn(-c3ccnc(C#CC4(O)CCCCC4)c3)c2n1

>  <Name>  (669) 
nan

>  <Pocket>  (669) 
nan

>  <ATP_Site>  (669) 
nan

>  <Peripheral>  (669) 
nan

>  <Num_H_Atoms_ProtBoundConf>  (669) 
nan

>  <Num_Resolved_Atoms>  (669) 
nan

>  <Num_Not_Resolved_Atoms>  (669) 
nan

$$$$
CHEMBL4524629
     RDKit          3D

  0  0  0  0  0  0  0  0  0  0999 V3000
M  V30 BEGIN CTAB
M  V30 COUNTS 34 36 0 0 0
M  V30 BEGIN ATOM
M  V30 1 C -0.975977 -1.060886 3.058805 0
M  V30 2 C 0.458908 -1.492916 3.104574 0
M  V30 3 N 1.068887 -2.039527 4.171577 0
M  V30 4 N 2.334258 -2.307549 3.885893 0
M  V30 5 C 2.571432 -1.931676 2.602515 0
M  V30 6 C 3.725476 -1.997305 1.825873 0
M  V30 7 C 3.598807 -1.514355 0.538012 0
M  V30 8 N 2.455313 -1.009639 0.038527 0
M  V30 9 C 1.319670 -0.939188 0.785853 0
M  V30 10 O 0.112282 -0.433417 0.336818 0
M  V30 11 C -0.087743 0.074191 -0.960766 0
M  V30 12 C -1.064901 -0.794939 -1.680215 0
M  V30 13 C -2.491148 -0.578425 -1.293323 0
M  V30 14 C -2.694346 0.645352 -0.432560 0
M  V30 15 C -1.916428 1.765846 -1.058599 0
M  V30 16 C -0.426951 1.527863 -0.985558 0
M  V30 17 C 1.383010 -1.406723 2.082235 0
M  V30 18 H -1.401717 -1.133924 2.049091 0
M  V30 19 H -1.589081 -1.777768 3.679662 0
M  V30 20 H -1.122153 -0.048943 3.471267 0
M  V30 21 H 3.020119 -2.734258 4.543327 0
M  V30 22 H 4.661666 -2.395650 2.191906 0
M  V30 23 H 4.500256 -1.566397 -0.066401 0
M  V30 24 H 0.898778 -0.031356 -1.481995 0
M  V30 25 H -0.788417 -1.856415 -1.422198 0
M  V30 26 H -0.886946 -0.739438 -2.789950 0
M  V30 27 H -3.049520 -0.373741 -2.249573 0
M  V30 28 H -2.958455 -1.482634 -0.881311 0
M  V30 29 H -3.773845 0.920707 -0.481921 0
M  V30 30 H -2.472801 0.478690 0.623885 0
M  V30 31 H -2.242917 1.822207 -2.123167 0
M  V30 32 H -2.148980 2.755977 -0.606398 0
M  V30 33 H 0.000539 2.028553 -1.900614 0
M  V30 34 H -0.018682 2.084200 -0.117030 0
M  V30 END ATOM
M  V30 BEGIN BOND
M  V30 1 1 1 2
M  V30 2 2 2 3
M  V30 3 1 3 4
M  V30 4 1 4 5
M  V30 5 2 5 6
M  V30 6 1 6 7
M  V30 7 2 7 8
M  V30 8 1 8 9
M  V30 9 1 9 10
M  V30 10 1 10 11
M  V30 11 1 11 12
M  V30 12 1 12 13
M  V30 13 1 13 14
M  V30 14 1 14 15
M  V30 15 1 15 16
M  V30 16 2 9 17
M  V30 17 1 17 2
M  V30 18 1 17 5
M  V30 19 1 16 11
M  V30 20 1 1 18
M  V30 21 1 1 19
M  V30 22 1 1 20
M  V30 23 1 4 21
M  V30 24 1 6 22
M  V30 25 1 7 23
M  V30 26 1 11 24
M  V30 27 1 12 25
M  V30 28 1 12 26
M  V30 29 1 13 27
M  V30 30 1 13 28
M  V30 31 1 14 29
M  V30 32 1 14 30
M  V30 33 1 15 31
M  V30 34 1 15 32
M  V30 35 1 16 33
M  V30 36 1 16 34
M  V30 END BOND
M  V30 END CTAB
M  END
>  <Dataset>  (670) 
ChEMBL_Kinases

>  <Ligand_Instance>  (670) 
nan

>  <PDB_ID>  (670) 
nan

>  <Standardized_SMILES>  (670) 
Cc1n[nH]c2ccnc(OC3CCCCC3)c12

>  <Name>  (670) 
nan

>  <Pocket>  (670) 
nan

>  <ATP_Site>  (670) 
nan

>  <Peripheral>  (670) 
nan

>  <Num_H_Atoms_ProtBoundConf>  (670) 
nan

>  <Num_Resolved_Atoms>  (670) 
nan

>  <Num_Not_Resolved_Atoms>  (670) 
nan

$$$$
CHEMBL4644763
     RDKit          3D

  0  0  0  0  0  0  0  0  0  0999 V3000
M  V30 BEGIN CTAB
M  V30 COUNTS 43 47 0 0 0
M  V30 BEGIN ATOM
M  V30 1 C 0.702668 -5.518642 3.747577 0
M  V30 2 C 1.798565 -4.756358 3.410081 0
M  V30 3 C 1.500205 -3.958963 2.327985 0
M  V30 4 C 2.152675 -3.018863 1.559352 0
M  V30 5 C 1.534671 -2.367265 0.486398 0
M  V30 6 C 2.382196 -1.430449 -0.203725 0
M  V30 7 C 3.605851 -1.962966 -0.630389 0
M  V30 8 N 4.496867 -1.192946 -1.320006 0
M  V30 9 C 4.235881 0.109085 -1.617807 0
M  V30 10 C 3.051790 0.674571 -1.220638 0
M  V30 11 C 2.670748 1.990981 -1.455939 0
M  V30 12 C 1.437669 2.471783 -0.998643 0
M  V30 13 C 0.549023 1.648177 -0.291543 0
M  V30 14 O -0.570343 2.383362 0.027690 0
M  V30 15 C -1.612132 1.828886 0.723852 0 CFG=1
M  V30 16 C -1.871648 2.523462 2.068792 0
M  V30 17 C -3.143882 1.772640 2.436602 0
M  V30 18 N -3.907414 1.767551 1.217861 0
M  V30 19 C -2.966469 1.943672 0.104396 0
M  V30 20 C 0.944619 0.359348 -0.072643 0
M  V30 21 C 2.157817 -0.107792 -0.525326 0
M  V30 22 C 0.233360 -2.722357 0.243490 0
M  V30 23 N -0.431284 -3.634695 0.974055 0
M  V30 24 C 0.190272 -4.241570 1.997085 0
M  V30 25 N -0.273610 -5.179221 2.858393 0
M  V30 26 H 0.613897 -6.250362 4.557593 0
M  V30 27 H 2.767133 -4.758850 3.901755 0
M  V30 28 H 3.175493 -2.826671 1.851148 0
M  V30 29 H 3.914882 -2.998913 -0.443092 0
M  V30 30 H 4.930372 0.732347 -2.163288 0
M  V30 31 H 3.387646 2.579300 -2.001673 0
M  V30 32 H 1.312596 3.525883 -1.276632 0
M  V30 33 H -1.432859 0.779724 0.972482 0
M  V30 34 H -1.048301 2.361412 2.765451 0
M  V30 35 H -2.072994 3.597418 1.878340 0
M  V30 36 H -3.618293 2.322877 3.267304 0
M  V30 37 H -2.800378 0.747486 2.743846 0
M  V30 38 H -4.510006 2.604026 1.206112 0
M  V30 39 H -3.125412 1.058242 -0.553335 0
M  V30 40 H -3.149354 2.845393 -0.479076 0
M  V30 41 H 0.224570 -0.202323 0.476413 0
M  V30 42 H -0.238229 -2.236119 -0.580625 0
M  V30 43 H -1.223892 -5.641682 2.919119 0
M  V30 END ATOM
M  V30 BEGIN BOND
M  V30 1 2 1 2
M  V30 2 1 2 3
M  V30 3 2 3 4
M  V30 4 1 4 5
M  V30 5 1 5 6
M  V30 6 2 6 7
M  V30 7 1 7 8
M  V30 8 2 8 9
M  V30 9 1 9 10
M  V30 10 2 10 11
M  V30 11 1 11 12
M  V30 12 2 12 13
M  V30 13 1 13 14
M  V30 14 1 14 15
M  V30 15 1 15 16
M  V30 16 1 16 17
M  V30 17 1 17 18
M  V30 18 1 18 19
M  V30 19 1 13 20
M  V30 20 2 20 21
M  V30 21 2 5 22
M  V30 22 1 22 23
M  V30 23 2 23 24
M  V30 24 1 24 25
M  V30 25 1 25 1
M  V30 26 1 24 3
M  V30 27 1 21 6
M  V30 28 1 21 10
M  V30 29 1 19 15
M  V30 30 1 1 26
M  V30 31 1 2 27
M  V30 32 1 4 28
M  V30 33 1 7 29
M  V30 34 1 9 30
M  V30 35 1 11 31
M  V30 36 1 12 32
M  V30 37 1 15 33 CFG=1
M  V30 38 1 16 34
M  V30 39 1 16 35
M  V30 40 1 17 36
M  V30 41 1 17 37
M  V30 42 1 18 38
M  V30 43 1 19 39
M  V30 44 1 19 40
M  V30 45 1 20 41
M  V30 46 1 22 42
M  V30 47 1 25 43
M  V30 END BOND
M  V30 END CTAB
M  END
>  <Dataset>  (671) 
ChEMBL_Kinases

>  <Ligand_Instance>  (671) 
nan

>  <PDB_ID>  (671) 
nan

>  <Standardized_SMILES>  (671) 
c1cc2cc(-c3cncc4ccc(O[C@H]5CCNC5)cc34)cnc2[nH]1

>  <Name>  (671) 
nan

>  <Pocket>  (671) 
nan

>  <ATP_Site>  (671) 
nan

>  <Peripheral>  (671) 
nan

>  <Num_H_Atoms_ProtBoundConf>  (671) 
nan

>  <Num_Resolved_Atoms>  (671) 
nan

>  <Num_Not_Resolved_Atoms>  (671) 
nan

$$$$
CHEMBL4525511
     RDKit          3D

  0  0  0  0  0  0  0  0  0  0999 V3000
M  V30 BEGIN CTAB
M  V30 COUNTS 47 50 0 0 0
M  V30 BEGIN ATOM
M  V30 1 C -2.571732 -7.193585 1.975179 0
M  V30 2 O -3.334284 -6.084061 1.544889 0
M  V30 3 C -2.675031 -4.901118 1.241353 0
M  V30 4 C -1.303516 -4.731799 1.332729 0
M  V30 5 C -0.683891 -3.537625 1.020995 0
M  V30 6 C -1.437556 -2.456190 0.599881 0
M  V30 7 C -0.744077 -1.204813 0.278635 0
M  V30 8 C 0.528852 -1.349350 -0.234595 0
M  V30 9 N 1.210020 -0.233994 -0.546156 0
M  V30 10 C 0.735789 1.008901 -0.391640 0
M  V30 11 C 1.393721 2.177721 -0.694332 0
M  V30 12 C 2.762673 2.335450 -1.255588 0
M  V30 13 C 3.838525 2.104315 -0.244318 0
M  V30 14 C 3.814439 3.000386 0.914011 0
M  V30 15 C 3.090264 2.634649 2.008956 0
M  V30 16 C 2.967461 3.359368 3.172379 0
M  V30 17 C 3.668018 4.562908 3.168809 0
M  V30 18 C 4.424831 5.032857 2.133159 0
M  V30 19 C 4.476337 4.211054 1.002104 0
M  V30 20 S 0.341476 3.488560 -0.306570 0
M  V30 21 N -1.063613 2.433585 0.296289 0
M  V30 22 C -0.527439 1.185655 0.116330 0
M  V30 23 C -1.258179 0.064045 0.448258 0
M  V30 24 C -2.810475 -2.590179 0.497380 0
M  V30 25 C -3.411175 -3.791851 0.813448 0
M  V30 26 O -4.788487 -3.957880 0.720101 0
M  V30 27 C -5.577351 -2.863599 0.290860 0
M  V30 28 H -2.022241 -7.664370 1.112525 0
M  V30 29 H -3.213619 -7.953886 2.473716 0
M  V30 30 H -1.787875 -6.934223 2.715307 0
M  V30 31 H -0.697004 -5.572450 1.661843 0
M  V30 32 H 0.396292 -3.493445 1.121046 0
M  V30 33 H 1.036376 -2.310471 -0.411623 0
M  V30 34 H 2.943727 1.588135 -2.078344 0
M  V30 35 H 2.821083 3.313156 -1.743572 0
M  V30 36 H 4.813350 2.242618 -0.773070 0
M  V30 37 H 3.768518 1.056890 0.106651 0
M  V30 38 H 2.541907 1.682643 1.998319 0
M  V30 39 H 2.384031 3.020755 4.000068 0
M  V30 40 H 3.624021 5.200295 4.057251 0
M  V30 41 H 4.951476 5.973592 2.174908 0
M  V30 42 H 5.062749 4.528210 0.143240 0
M  V30 43 H -2.256945 0.047222 0.854716 0
M  V30 44 H -3.403895 -1.764170 0.173500 0
M  V30 45 H -6.643215 -3.174432 0.183590 0
M  V30 46 H -5.183474 -2.387372 -0.613621 0
M  V30 47 H -5.610770 -2.046376 1.062603 0
M  V30 END ATOM
M  V30 BEGIN BOND
M  V30 1 1 1 2
M  V30 2 1 2 3
M  V30 3 2 3 4
M  V30 4 1 4 5
M  V30 5 2 5 6
M  V30 6 1 6 7
M  V30 7 1 7 8
M  V30 8 2 8 9
M  V30 9 1 9 10
M  V30 10 2 10 11
M  V30 11 1 11 12
M  V30 12 1 12 13
M  V30 13 1 13 14
M  V30 14 2 14 15
M  V30 15 1 15 16
M  V30 16 2 16 17
M  V30 17 1 17 18
M  V30 18 2 18 19
M  V30 19 1 11 20
M  V30 20 1 20 21
M  V30 21 2 21 22
M  V30 22 1 22 23
M  V30 23 1 6 24
M  V30 24 2 24 25
M  V30 25 1 25 26
M  V30 26 1 26 27
M  V30 27 1 25 3
M  V30 28 2 23 7
M  V30 29 1 22 10
M  V30 30 1 19 14
M  V30 31 1 1 28
M  V30 32 1 1 29
M  V30 33 1 1 30
M  V30 34 1 4 31
M  V30 35 1 5 32
M  V30 36 1 8 33
M  V30 37 1 12 34
M  V30 38 1 12 35
M  V30 39 1 13 36
M  V30 40 1 13 37
M  V30 41 1 15 38
M  V30 42 1 16 39
M  V30 43 1 17 40
M  V30 44 1 18 41
M  V30 45 1 19 42
M  V30 46 1 23 43
M  V30 47 1 24 44
M  V30 48 1 27 45
M  V30 49 1 27 46
M  V30 50 1 27 47
M  V30 END BOND
M  V30 END CTAB
M  END
>  <Dataset>  (672) 
ChEMBL_Kinases

>  <Ligand_Instance>  (672) 
nan

>  <PDB_ID>  (672) 
nan

>  <Standardized_SMILES>  (672) 
COc1ccc(-c2cnc3c(CCc4ccccc4)snc3c2)cc1OC

>  <Name>  (672) 
nan

>  <Pocket>  (672) 
nan

>  <ATP_Site>  (672) 
nan

>  <Peripheral>  (672) 
nan

>  <Num_H_Atoms_ProtBoundConf>  (672) 
nan

>  <Num_Resolved_Atoms>  (672) 
nan

>  <Num_Not_Resolved_Atoms>  (672) 
nan

$$$$
CHEMBL4527608
     RDKit          3D

  0  0  0  0  0  0  0  0  0  0999 V3000
M  V30 BEGIN CTAB
M  V30 COUNTS 45 47 0 0 0
M  V30 BEGIN ATOM
M  V30 1 C -0.068394 -3.006830 4.694719 0
M  V30 2 C -0.258256 -2.419380 3.326465 0
M  V30 3 C -0.038820 -1.091565 2.978598 0
M  V30 4 C -0.262690 -0.673097 1.676461 0
M  V30 5 N -0.028786 0.714813 1.489248 0
M  V30 6 S 1.097077 1.827475 2.192266 0
M  V30 7 O 0.908159 1.918989 3.681933 0
M  V30 8 O 0.868435 3.153190 1.509276 0
M  V30 9 C 2.721813 1.303609 1.794988 0
M  V30 10 C 3.514742 0.433031 2.494271 0
M  V30 11 C 4.786247 0.114990 2.059320 0
M  V30 12 C 5.310291 0.658018 0.907783 0
M  V30 13 C 4.580637 1.548930 0.135547 0
M  V30 14 C 3.306249 1.821761 0.636201 0
M  V30 15 C -0.701767 -1.599012 0.753125 0
M  V30 16 N -0.886425 -1.133177 -0.543018 0
M  V30 17 C -1.646567 -0.321674 -1.379786 0
M  V30 18 C -0.975693 0.697366 -2.077245 0
M  V30 19 C -1.651126 1.552183 -2.909217 0
M  V30 20 C -3.013158 1.393434 -3.049524 0
M  V30 21 I -4.018031 2.715277 -4.330567 0
M  V30 22 C -3.705099 0.393135 -2.371626 0
M  V30 23 C -3.007926 -0.453389 -1.543162 0
M  V30 24 F -3.701707 -1.422158 -0.884823 0
M  V30 25 N -0.897699 -2.865428 1.140069 0
M  V30 26 C -1.353920 -3.774728 0.103147 0
M  V30 27 C -0.704230 -3.346210 2.378459 0
M  V30 28 O -0.918735 -4.563686 2.645818 0
M  V30 29 H 0.226190 -2.194571 5.392338 0
M  V30 30 H 0.699521 -3.799260 4.717034 0
M  V30 31 H -1.028324 -3.474395 5.068062 0
M  V30 32 H 0.302299 -0.566852 3.860881 0
M  V30 33 H -0.724613 1.014992 0.771883 0
M  V30 34 H 3.085181 0.009067 3.403476 0
M  V30 35 H 5.405662 -0.575908 2.622221 0
M  V30 36 H 6.309248 0.457642 0.496454 0
M  V30 37 H 4.872401 2.052884 -0.795533 0
M  V30 38 H 2.696480 2.525073 0.046453 0
M  V30 39 H -0.123858 -1.605088 -1.101494 0
M  V30 40 H 0.108722 0.833078 -1.974953 0
M  V30 41 H -1.114606 2.346873 -3.450049 0
M  V30 42 H -4.792722 0.263612 -2.478919 0
M  V30 43 H -0.869765 -4.769378 0.349948 0
M  V30 44 H -1.038666 -3.474353 -0.912901 0
M  V30 45 H -2.438935 -3.992286 0.196519 0
M  V30 END ATOM
M  V30 BEGIN BOND
M  V30 1 1 1 2
M  V30 2 2 2 3
M  V30 3 1 3 4
M  V30 4 1 4 5
M  V30 5 1 5 6
M  V30 6 2 6 7
M  V30 7 2 6 8
M  V30 8 1 6 9
M  V30 9 2 9 10
M  V30 10 1 10 11
M  V30 11 2 11 12
M  V30 12 1 12 13
M  V30 13 2 13 14
M  V30 14 2 4 15
M  V30 15 1 15 16
M  V30 16 1 16 17
M  V30 17 2 17 18
M  V30 18 1 18 19
M  V30 19 2 19 20
M  V30 20 1 20 21
M  V30 21 1 20 22
M  V30 22 2 22 23
M  V30 23 1 23 24
M  V30 24 1 15 25
M  V30 25 1 25 26
M  V30 26 1 25 27
M  V30 27 2 27 28
M  V30 28 1 27 2
M  V30 29 1 14 9
M  V30 30 1 23 17
M  V30 31 1 1 29
M  V30 32 1 1 30
M  V30 33 1 1 31
M  V30 34 1 3 32
M  V30 35 1 5 33
M  V30 36 1 10 34
M  V30 37 1 11 35
M  V30 38 1 12 36
M  V30 39 1 13 37
M  V30 40 1 14 38
M  V30 41 1 16 39
M  V30 42 1 18 40
M  V30 43 1 19 41
M  V30 44 1 22 42
M  V30 45 1 26 43
M  V30 46 1 26 44
M  V30 47 1 26 45
M  V30 END BOND
M  V30 END CTAB
M  END
>  <Dataset>  (673) 
ChEMBL_Kinases

>  <Ligand_Instance>  (673) 
nan

>  <PDB_ID>  (673) 
nan

>  <Standardized_SMILES>  (673) 
Cc1cc(NS(=O)(=O)c2ccccc2)c(Nc2ccc(I)cc2F)n(C)c1=O

>  <Name>  (673) 
nan

>  <Pocket>  (673) 
nan

>  <ATP_Site>  (673) 
nan

>  <Peripheral>  (673) 
nan

>  <Num_H_Atoms_ProtBoundConf>  (673) 
nan

>  <Num_Resolved_Atoms>  (673) 
nan

>  <Num_Not_Resolved_Atoms>  (673) 
nan

$$$$
CHEMBL4527483
     RDKit          3D

  0  0  0  0  0  0  0  0  0  0999 V3000
M  V30 BEGIN CTAB
M  V30 COUNTS 35 37 0 0 0
M  V30 BEGIN ATOM
M  V30 1 O 2.652630 -0.875628 3.248598 0
M  V30 2 C 1.890800 -0.887068 2.247627 0
M  V30 3 N 1.619964 -2.136025 1.668452 0
M  V30 4 C 2.041945 -3.429589 1.988605 0
M  V30 5 C 1.621832 -4.516967 1.254823 0
M  V30 6 C 2.028763 -5.795798 1.554053 0
M  V30 7 N 2.857911 -6.075929 2.573879 0
M  V30 8 C 3.304304 -5.057068 3.329295 0
M  V30 9 C 2.885509 -3.783883 3.013871 0
M  V30 10 C 1.338611 0.365416 1.748337 0
M  V30 11 C 0.490781 0.562676 0.679092 0
M  V30 12 C 0.222300 1.932788 0.566870 0
M  V30 13 C -0.646595 2.574809 -0.392867 0
M  V30 14 O -0.263423 3.767455 -0.672640 0
M  V30 15 C -1.843240 2.199336 -1.116893 0
M  V30 16 C -2.089178 2.841974 -2.307477 0
M  V30 17 F -1.243715 3.787254 -2.830555 0
M  V30 18 C -3.212269 2.601499 -3.096347 0
M  V30 19 C -4.109708 1.668858 -2.642555 0
M  V30 20 C -3.897608 1.012224 -1.463126 0
M  V30 21 C -2.772546 1.268424 -0.693899 0
M  V30 22 Br -2.592172 0.363110 0.949529 0
M  V30 23 C 0.924089 2.535792 1.582413 0
M  V30 24 N 1.566262 1.585178 2.254163 0
M  V30 25 H 0.968571 -2.044802 0.831935 0
M  V30 26 H 0.940744 -4.374016 0.401780 0
M  V30 27 H 1.658987 -6.601887 0.933394 0
M  V30 28 H 3.976615 -5.260355 4.159108 0
M  V30 29 H 3.285810 -3.020520 3.663058 0
M  V30 30 H 0.174362 -0.279588 0.094126 0
M  V30 31 H -3.385435 3.119357 -4.030698 0
M  V30 32 H -5.007287 1.441214 -3.221369 0
M  V30 33 H -4.619375 0.276250 -1.120808 0
M  V30 34 H 0.939199 3.603016 1.784029 0
M  V30 35 H 2.186727 1.761039 3.091488 0
M  V30 END ATOM
M  V30 BEGIN BOND
M  V30 1 2 1 2
M  V30 2 1 2 3
M  V30 3 1 3 4
M  V30 4 2 4 5
M  V30 5 1 5 6
M  V30 6 2 6 7
M  V30 7 1 7 8
M  V30 8 2 8 9
M  V30 9 1 2 10
M  V30 10 2 10 11
M  V30 11 1 11 12
M  V30 12 1 12 13
M  V30 13 2 13 14
M  V30 14 1 13 15
M  V30 15 2 15 16
M  V30 16 1 16 17
M  V30 17 1 16 18
M  V30 18 2 18 19
M  V30 19 1 19 20
M  V30 20 2 20 21
M  V30 21 1 21 22
M  V30 22 2 12 23
M  V30 23 1 23 24
M  V30 24 1 9 4
M  V30 25 1 24 10
M  V30 26 1 21 15
M  V30 27 1 3 25
M  V30 28 1 5 26
M  V30 29 1 6 27
M  V30 30 1 8 28
M  V30 31 1 9 29
M  V30 32 1 11 30
M  V30 33 1 18 31
M  V30 34 1 19 32
M  V30 35 1 20 33
M  V30 36 1 23 34
M  V30 37 1 24 35
M  V30 END BOND
M  V30 END CTAB
M  END
>  <Dataset>  (674) 
ChEMBL_Kinases

>  <Ligand_Instance>  (674) 
nan

>  <PDB_ID>  (674) 
nan

>  <Standardized_SMILES>  (674) 
O=C(Nc1ccncc1)c1cc(C(=O)c2c(F)cccc2Br)c[nH]1

>  <Name>  (674) 
nan

>  <Pocket>  (674) 
nan

>  <ATP_Site>  (674) 
nan

>  <Peripheral>  (674) 
nan

>  <Num_H_Atoms_ProtBoundConf>  (674) 
nan

>  <Num_Resolved_Atoms>  (674) 
nan

>  <Num_Not_Resolved_Atoms>  (674) 
nan

$$$$
CHEMBL4527314
     RDKit          3D

  0  0  0  0  0  0  0  0  0  0999 V3000
M  V30 BEGIN CTAB
M  V30 COUNTS 41 44 0 0 0
M  V30 BEGIN ATOM
M  V30 1 F 4.572542 -4.929548 0.337904 0
M  V30 2 C 3.606434 -5.198171 1.288868 0
M  V30 3 F 4.105968 -5.097010 2.578512 0
M  V30 4 F 3.071462 -6.454774 1.145799 0
M  V30 5 C 2.540047 -4.198687 1.141666 0
M  V30 6 C 2.692274 -2.887974 0.765601 0
M  V30 7 C 1.741735 -1.905550 0.609382 0
M  V30 8 C 2.317587 -0.640047 0.195815 0
M  V30 9 N 3.630772 -0.332619 -0.042653 0
M  V30 10 N 3.768968 0.900992 -0.394664 0
M  V30 11 C 2.568619 1.487219 -0.412722 0
M  V30 12 C 2.267189 2.786117 -0.730216 0
M  V30 13 C 0.948681 3.164469 -0.677339 0
M  V30 14 N 0.049662 2.222693 -0.315198 0
M  V30 15 C 0.364187 0.960758 -0.009354 0
M  V30 16 N -0.692360 0.110416 0.345190 0
M  V30 17 C -1.979875 0.759874 0.351218 0
M  V30 18 C -3.145364 -0.170302 0.558069 0
M  V30 19 C -3.016366 -0.836531 1.901018 0
M  V30 20 O -2.789096 -0.003183 2.960671 0
M  V30 21 C -1.904892 1.018834 2.772861 0
M  V30 22 C -2.105153 1.776833 1.502178 0
M  V30 23 C 1.656885 0.529300 -0.044616 0
M  V30 24 N 0.607133 -2.465499 0.896275 0
M  V30 25 C 0.275616 -3.657009 1.260931 0
M  V30 26 N 1.253957 -4.579912 1.397609 0
M  V30 27 H 3.773562 -2.714270 0.590568 0
M  V30 28 H 4.751063 1.185897 -0.587953 0
M  V30 29 H 3.035245 3.485916 -1.011183 0
M  V30 30 H 0.656740 4.182149 -0.919463 0
M  V30 31 H -1.042625 -0.790188 0.618923 0
M  V30 32 H -2.097487 1.338240 -0.600772 0
M  V30 33 H -4.083750 0.410292 0.507345 0
M  V30 34 H -3.142612 -0.977133 -0.207537 0
M  V30 35 H -2.313687 -1.695597 1.873677 0
M  V30 36 H -4.046727 -1.282421 2.089388 0
M  V30 37 H -2.099257 1.758246 3.604432 0
M  V30 38 H -0.840472 0.762185 2.876012 0
M  V30 39 H -3.180754 2.072600 1.477396 0
M  V30 40 H -1.418997 2.604602 1.434770 0
M  V30 41 H -0.804017 -3.797256 1.426672 0
M  V30 END ATOM
M  V30 BEGIN BOND
M  V30 1 1 1 2
M  V30 2 1 2 3
M  V30 3 1 2 4
M  V30 4 1 2 5
M  V30 5 2 5 6
M  V30 6 1 6 7
M  V30 7 1 7 8
M  V30 8 2 8 9
M  V30 9 1 9 10
M  V30 10 1 10 11
M  V30 11 2 11 12
M  V30 12 1 12 13
M  V30 13 2 13 14
M  V30 14 1 14 15
M  V30 15 1 15 16
M  V30 16 1 16 17
M  V30 17 1 17 18
M  V30 18 1 18 19
M  V30 19 1 19 20
M  V30 20 1 20 21
M  V30 21 1 21 22
M  V30 22 2 15 23
M  V30 23 2 7 24
M  V30 24 1 24 25
M  V30 25 2 25 26
M  V30 26 1 26 5
M  V30 27 1 23 8
M  V30 28 1 23 11
M  V30 29 1 22 17
M  V30 30 1 6 27
M  V30 31 1 10 28
M  V30 32 1 12 29
M  V30 33 1 13 30
M  V30 34 1 16 31
M  V30 35 1 17 32
M  V30 36 1 18 33
M  V30 37 1 18 34
M  V30 38 1 19 35
M  V30 39 1 19 36
M  V30 40 1 21 37
M  V30 41 1 21 38
M  V30 42 1 22 39
M  V30 43 1 22 40
M  V30 44 1 25 41
M  V30 END BOND
M  V30 END CTAB
M  END
>  <Dataset>  (675) 
ChEMBL_Kinases

>  <Ligand_Instance>  (675) 
nan

>  <PDB_ID>  (675) 
nan

>  <Standardized_SMILES>  (675) 
FC(F)(F)c1cc(-c2n[nH]c3ccnc(NC4CCOCC4)c23)ncn1

>  <Name>  (675) 
nan

>  <Pocket>  (675) 
nan

>  <ATP_Site>  (675) 
nan

>  <Peripheral>  (675) 
nan

>  <Num_H_Atoms_ProtBoundConf>  (675) 
nan

>  <Num_Resolved_Atoms>  (675) 
nan

>  <Num_Not_Resolved_Atoms>  (675) 
nan

$$$$
CHEMBL4527232
     RDKit          3D

  0  0  0  0  0  0  0  0  0  0999 V3000
M  V30 BEGIN CTAB
M  V30 COUNTS 45 48 0 0 0
M  V30 BEGIN ATOM
M  V30 1 C -0.060611 -9.581427 -1.997406 0
M  V30 2 O -0.038569 -8.550934 -2.955372 0
M  V30 3 C 0.142121 -7.227903 -2.680429 0
M  V30 4 C 0.174709 -6.167441 -3.571545 0
M  V30 5 C 0.359746 -4.857546 -3.239168 0
M  V30 6 C 0.535482 -4.489039 -1.921552 0
M  V30 7 N 0.727604 -3.304511 -1.377925 0
M  V30 8 C 0.874094 -2.990736 -0.289196 0
M  V30 9 N 1.085526 -1.610646 0.221030 0
M  V30 10 C -0.039899 -0.840470 0.574604 0
M  V30 11 O -1.174995 -1.407837 0.422427 0
M  V30 12 C 0.070139 0.523933 1.085046 0
M  V30 13 C 1.250023 1.209470 1.282559 0
M  V30 14 C 1.283547 2.500450 1.770001 0
M  V30 15 C 0.113964 3.153830 2.079291 0
M  V30 16 N 0.142299 4.478063 2.582688 0
M  V30 17 C 1.312605 5.281075 2.857376 0
M  V30 18 C 1.368824 5.786043 4.284360 0
M  V30 19 O 0.217833 6.478417 4.617142 0
M  V30 20 C -0.879586 5.670171 4.420410 0
M  V30 21 C -0.968088 5.325500 2.934422 0
M  V30 22 C -1.073875 2.488587 1.889896 0
M  V30 23 C -1.102086 1.198480 1.402548 0
M  V30 24 S 0.761087 -4.711892 0.562867 0
M  V30 25 C 0.505794 -5.522681 -1.032187 0
M  V30 26 C 0.315754 -6.881761 -1.358200 0
M  V30 27 H 0.698094 -9.392126 -1.216182 0
M  V30 28 H 0.156055 -10.576120 -2.447079 0
M  V30 29 H -1.068781 -9.632045 -1.564038 0
M  V30 30 H 0.033979 -6.461293 -4.626170 0
M  V30 31 H 0.357070 -4.146221 -4.080475 0
M  V30 32 H 2.049186 -1.232769 0.310582 0
M  V30 33 H 2.169684 0.671472 1.029994 0
M  V30 34 H 2.264000 2.914434 1.874698 0
M  V30 35 H 2.273594 4.758000 2.688864 0
M  V30 36 H 1.357807 6.159016 2.148836 0
M  V30 37 H 2.212138 6.511271 4.321264 0
M  V30 38 H 1.600374 4.929760 4.929984 0
M  V30 39 H -1.779505 6.230270 4.732661 0
M  V30 40 H -0.734706 4.734073 5.023040 0
M  V30 41 H -1.950592 4.821172 2.762966 0
M  V30 42 H -0.953182 6.320391 2.399980 0
M  V30 43 H -2.040575 2.918059 2.103946 0
M  V30 44 H -2.048119 0.675769 1.254331 0
M  V30 45 H 0.328869 -7.525314 -0.490747 0
M  V30 END ATOM
M  V30 BEGIN BOND
M  V30 1 1 1 2
M  V30 2 1 2 3
M  V30 3 2 3 4
M  V30 4 1 4 5
M  V30 5 2 5 6
M  V30 6 1 6 7
M  V30 7 2 7 8
M  V30 8 1 8 9
M  V30 9 1 9 10
M  V30 10 2 10 11
M  V30 11 1 10 12
M  V30 12 2 12 13
M  V30 13 1 13 14
M  V30 14 2 14 15
M  V30 15 1 15 16
M  V30 16 1 16 17
M  V30 17 1 17 18
M  V30 18 1 18 19
M  V30 19 1 19 20
M  V30 20 1 20 21
M  V30 21 1 15 22
M  V30 22 2 22 23
M  V30 23 1 8 24
M  V30 24 1 24 25
M  V30 25 2 25 26
M  V30 26 1 26 3
M  V30 27 1 25 6
M  V30 28 1 23 12
M  V30 29 1 21 16
M  V30 30 1 1 27
M  V30 31 1 1 28
M  V30 32 1 1 29
M  V30 33 1 4 30
M  V30 34 1 5 31
M  V30 35 1 9 32
M  V30 36 1 13 33
M  V30 37 1 14 34
M  V30 38 1 17 35
M  V30 39 1 17 36
M  V30 40 1 18 37
M  V30 41 1 18 38
M  V30 42 1 20 39
M  V30 43 1 20 40
M  V30 44 1 21 41
M  V30 45 1 21 42
M  V30 46 1 22 43
M  V30 47 1 23 44
M  V30 48 1 26 45
M  V30 END BOND
M  V30 END CTAB
M  END
>  <Dataset>  (676) 
ChEMBL_Kinases

>  <Ligand_Instance>  (676) 
nan

>  <PDB_ID>  (676) 
nan

>  <Standardized_SMILES>  (676) 
COc1ccc2nc(NC(=O)c3ccc(N4CCOCC4)cc3)sc2c1

>  <Name>  (676) 
nan

>  <Pocket>  (676) 
nan

>  <ATP_Site>  (676) 
nan

>  <Peripheral>  (676) 
nan

>  <Num_H_Atoms_ProtBoundConf>  (676) 
nan

>  <Num_Resolved_Atoms>  (676) 
nan

>  <Num_Not_Resolved_Atoms>  (676) 
nan

$$$$
CHEMBL4644042
     RDKit          3D

  0  0  0  0  0  0  0  0  0  0999 V3000
M  V30 BEGIN CTAB
M  V30 COUNTS 45 48 0 0 0
M  V30 BEGIN ATOM
M  V30 1 C 2.517817 -5.532854 0.694543 0
M  V30 2 C 2.954469 -4.980332 2.055105 0
M  V30 3 C 3.886184 -6.030604 2.622931 0
M  V30 4 C 1.696553 -4.890923 2.897958 0
M  V30 5 N 0.710465 -4.022295 2.310911 0
M  V30 6 C 0.991044 -2.647505 2.081381 0
M  V30 7 N 2.164926 -2.066131 2.387079 0
M  V30 8 C 2.413633 -0.752388 2.161839 0
M  V30 9 C 1.422138 0.050926 1.588392 0
M  V30 10 N 0.254152 -0.492641 1.275757 0
M  V30 11 C -0.855433 0.033367 0.724808 0
M  V30 12 C -1.124567 1.400410 0.289450 0
M  V30 13 C -0.795609 2.511659 1.043559 0
M  V30 14 C -1.050051 3.810027 0.632457 0
M  V30 15 C -1.662339 3.972281 -0.593124 0
M  V30 16 C -1.951484 5.214327 -1.078495 0
M  V30 17 N -1.646349 6.404679 -0.364193 0
M  V30 18 N -2.550864 5.481261 -2.269304 0
M  V30 19 C -2.894015 4.433716 -3.047040 0
M  V30 20 C -2.610795 3.162695 -2.575880 0
M  V30 21 C -2.003341 2.882974 -1.369822 0
M  V30 22 C -1.745053 1.593901 -0.950214 0
M  V30 23 C -1.782455 -1.005462 0.624523 0
M  V30 24 N -1.201170 -2.115008 1.116293 0
M  V30 25 C 0.044888 -1.800443 1.514541 0
M  V30 26 H 1.641576 -4.940388 0.353965 0
M  V30 27 H 3.318747 -5.433014 -0.060944 0
M  V30 28 H 2.215759 -6.590445 0.823646 0
M  V30 29 H 3.456056 -4.014671 1.963590 0
M  V30 30 H 4.340471 -6.677930 1.844529 0
M  V30 31 H 3.284175 -6.718082 3.261624 0
M  V30 32 H 4.631439 -5.519184 3.264278 0
M  V30 33 H 1.308977 -5.878035 3.161478 0
M  V30 34 H 2.009356 -4.395137 3.855549 0
M  V30 35 H -0.218831 -4.381538 2.045469 0
M  V30 36 H 3.397735 -0.351534 2.439267 0
M  V30 37 H 1.616406 1.093751 1.408259 0
M  V30 38 H -0.315942 2.383890 2.004191 0
M  V30 39 H -0.804371 4.681722 1.199087 0
M  V30 40 H -1.572244 6.966667 0.505004 0
M  V30 41 H -1.568971 6.975244 0.501879 0
M  V30 42 H -3.374836 4.590599 -4.006949 0
M  V30 43 H -2.908663 2.359263 -3.242311 0
M  V30 44 H -2.029447 0.756834 -1.592146 0
M  V30 45 H -2.781302 -0.896649 0.217226 0
M  V30 END ATOM
M  V30 BEGIN BOND
M  V30 1 1 1 2
M  V30 2 1 2 3
M  V30 3 1 2 4
M  V30 4 1 4 5
M  V30 5 1 5 6
M  V30 6 2 6 7
M  V30 7 1 7 8
M  V30 8 2 8 9
M  V30 9 1 9 10
M  V30 10 1 10 11
M  V30 11 1 11 12
M  V30 12 2 12 13
M  V30 13 1 13 14
M  V30 14 2 14 15
M  V30 15 1 15 16
M  V30 16 1 16 17
M  V30 17 2 16 18
M  V30 18 1 18 19
M  V30 19 2 19 20
M  V30 20 1 20 21
M  V30 21 2 21 22
M  V30 22 2 11 23
M  V30 23 1 23 24
M  V30 24 2 24 25
M  V30 25 1 25 6
M  V30 26 1 25 10
M  V30 27 1 22 12
M  V30 28 1 21 15
M  V30 29 1 1 26
M  V30 30 1 1 27
M  V30 31 1 1 28
M  V30 32 1 2 29
M  V30 33 1 3 30
M  V30 34 1 3 31
M  V30 35 1 3 32
M  V30 36 1 4 33
M  V30 37 1 4 34
M  V30 38 1 5 35
M  V30 39 1 8 36
M  V30 40 1 9 37
M  V30 41 1 13 38
M  V30 42 1 14 39
M  V30 43 1 17 40
M  V30 44 1 17 41
M  V30 45 1 19 42
M  V30 46 1 20 43
M  V30 47 1 22 44
M  V30 48 1 23 45
M  V30 END BOND
M  V30 END CTAB
M  END
>  <Dataset>  (677) 
ChEMBL_Kinases

>  <Ligand_Instance>  (677) 
nan

>  <PDB_ID>  (677) 
nan

>  <Standardized_SMILES>  (677) 
CC(C)CNc1nccn2c(-c3ccc4c(N)nccc4c3)cnc12

>  <Name>  (677) 
nan

>  <Pocket>  (677) 
nan

>  <ATP_Site>  (677) 
nan

>  <Peripheral>  (677) 
nan

>  <Num_H_Atoms_ProtBoundConf>  (677) 
nan

>  <Num_Resolved_Atoms>  (677) 
nan

>  <Num_Not_Resolved_Atoms>  (677) 
nan

$$$$
CHEMBL4644064
     RDKit          3D

  0  0  0  0  0  0  0  0  0  0999 V3000
M  V30 BEGIN CTAB
M  V30 COUNTS 75 78 0 0 0
M  V30 BEGIN ATOM
M  V30 1 C 3.578905 -5.831063 2.922424 0
M  V30 2 C 3.192632 -6.456596 1.591710 0
M  V30 3 C 1.847329 -7.089048 1.656446 0
M  V30 4 C 3.469730 -5.576567 0.436435 0
M  V30 5 C 2.810031 -4.238226 0.404319 0
M  V30 6 N 1.379444 -4.321790 0.330278 0
M  V30 7 C 0.696892 -3.048924 0.336232 0
M  V30 8 O 1.685485 -2.307839 0.410509 0
M  V30 9 C -0.748540 -2.919848 0.267409 0
M  V30 10 C -1.424458 -4.108482 0.172803 0
M  V30 11 N -2.756607 -4.073400 0.106895 0
M  V30 12 C -3.509615 -2.970912 0.124493 0
M  V30 13 C -4.885139 -2.942557 0.054859 0
M  V30 14 C -5.641441 -1.794197 0.073323 0
M  V30 15 C -4.912781 -0.626354 0.169315 0
M  V30 16 C -5.547738 0.684675 0.200998 0
M  V30 17 C -4.759255 1.812609 0.296618 0
M  V30 18 C -5.294649 3.083141 0.330789 0
M  V30 19 Cl -4.252259 4.504494 0.453424 0
M  V30 20 C -6.660394 3.285856 0.270069 0
M  V30 21 O -7.235899 4.550329 0.302102 0
M  V30 22 C -7.478600 2.154666 0.172757 0
M  V30 23 Cl -9.223998 2.330968 0.090804 0
M  V30 24 C -6.898735 0.903219 0.141867 0
M  V30 25 N -3.575147 -0.668146 0.236460 0
M  V30 26 C -2.828027 -1.787067 0.219141 0
M  V30 27 C -1.429173 -1.726076 0.293286 0
M  V30 28 N -0.767452 -0.497300 0.387320 0
M  V30 29 C 0.293929 0.430835 0.476364 0 CFG=1
M  V30 30 C 1.125591 0.548692 -0.787995 0
M  V30 31 C 1.095584 1.957195 -1.312801 0
M  V30 32 C 1.800757 2.858427 -0.337599 0 CFG=2
M  V30 33 C 3.275477 2.534703 -0.316320 0
M  V30 34 N 3.877019 2.714575 -1.624003 0
M  V30 35 C 5.291601 2.397941 -1.612919 0
M  V30 36 C 3.788197 4.128980 -2.017796 0
M  V30 37 C 1.212777 2.589758 1.053118 0
M  V30 38 C -0.083680 1.832641 0.942015 0
M  V30 39 H 3.337482 -6.572463 3.710915 0
M  V30 40 H 2.946944 -4.931976 3.135178 0
M  V30 41 H 4.652191 -5.574560 2.948806 0
M  V30 42 H 3.945740 -7.323683 1.498597 0
M  V30 43 H 1.060470 -6.489599 2.163280 0
M  V30 44 H 1.462916 -7.396904 0.664995 0
M  V30 45 H 1.908803 -8.020090 2.328280 0
M  V30 46 H 3.188248 -6.180636 -0.487590 0
M  V30 47 H 4.567369 -5.398439 0.275953 0
M  V30 48 H 3.226481 -3.595437 -0.407772 0
M  V30 49 H 3.053970 -3.703075 1.368156 0
M  V30 50 H 0.810197 -5.216835 0.257915 0
M  V30 51 H -1.129099 -5.140222 0.134833 0
M  V30 52 H -5.354746 -3.916693 -0.017978 0
M  V30 53 H -6.713400 -1.786996 0.018061 0
M  V30 54 H -3.683990 1.732106 0.348804 0
M  V30 55 H -8.145955 4.715288 0.743477 0
M  V30 56 H -7.552965 0.063804 0.066830 0
M  V30 57 H -1.477144 0.260791 0.378698 0
M  V30 58 H 0.976339 0.062902 1.322819 0
M  V30 59 H 0.724269 -0.101727 -1.597663 0
M  V30 60 H 2.143627 0.206266 -0.599273 0
M  V30 61 H 1.630066 2.000501 -2.302507 0
M  V30 62 H 0.067888 2.287334 -1.542666 0
M  V30 63 H 1.613075 3.931218 -0.561994 0
M  V30 64 H 3.461587 1.552533 0.122300 0
M  V30 65 H 3.769808 3.286233 0.365485 0
M  V30 66 H 5.877473 3.021997 -2.324411 0
M  V30 67 H 5.772294 2.521459 -0.627383 0
M  V30 68 H 5.490482 1.340514 -1.904976 0
M  V30 69 H 3.735444 4.787284 -1.114874 0
M  V30 70 H 4.673077 4.424940 -2.607314 0
M  V30 71 H 2.893845 4.207062 -2.667277 0
M  V30 72 H 1.117445 3.508598 1.632920 0
M  V30 73 H 1.927613 1.912327 1.608715 0
M  V30 74 H -0.814758 2.327812 0.288140 0
M  V30 75 H -0.514765 1.797935 1.966220 0
M  V30 END ATOM
M  V30 BEGIN BOND
M  V30 1 1 1 2
M  V30 2 1 2 3
M  V30 3 1 2 4
M  V30 4 1 4 5
M  V30 5 1 5 6
M  V30 6 1 6 7
M  V30 7 2 7 8
M  V30 8 1 7 9
M  V30 9 2 9 10
M  V30 10 1 10 11
M  V30 11 2 11 12
M  V30 12 1 12 13
M  V30 13 2 13 14
M  V30 14 1 14 15
M  V30 15 1 15 16
M  V30 16 2 16 17
M  V30 17 1 17 18
M  V30 18 1 18 19
M  V30 19 2 18 20
M  V30 20 1 20 21
M  V30 21 1 20 22
M  V30 22 1 22 23
M  V30 23 2 22 24
M  V30 24 2 15 25
M  V30 25 1 25 26
M  V30 26 2 26 27
M  V30 27 1 27 28
M  V30 28 1 28 29
M  V30 29 1 29 30
M  V30 30 1 30 31
M  V30 31 1 31 32
M  V30 32 1 32 33
M  V30 33 1 33 34
M  V30 34 1 34 35
M  V30 35 1 34 36
M  V30 36 1 32 37
M  V30 37 1 37 38
M  V30 38 1 27 9
M  V30 39 1 38 29
M  V30 40 1 26 12
M  V30 41 1 24 16
M  V30 42 1 1 39
M  V30 43 1 1 40
M  V30 44 1 1 41
M  V30 45 1 2 42
M  V30 46 1 3 43
M  V30 47 1 3 44
M  V30 48 1 3 45
M  V30 49 1 4 46
M  V30 50 1 4 47
M  V30 51 1 5 48
M  V30 52 1 5 49
M  V30 53 1 6 50
M  V30 54 1 10 51
M  V30 55 1 13 52
M  V30 56 1 14 53
M  V30 57 1 17 54
M  V30 58 1 21 55
M  V30 59 1 24 56
M  V30 60 1 28 57
M  V30 61 1 29 58 CFG=1
M  V30 62 1 30 59
M  V30 63 1 30 60
M  V30 64 1 31 61
M  V30 65 1 31 62
M  V30 66 1 32 63 CFG=3
M  V30 67 1 33 64
M  V30 68 1 33 65
M  V30 69 1 35 66
M  V30 70 1 35 67
M  V30 71 1 35 68
M  V30 72 1 36 69
M  V30 73 1 36 70
M  V30 74 1 36 71
M  V30 75 1 37 72
M  V30 76 1 37 73
M  V30 77 1 38 74
M  V30 78 1 38 75
M  V30 END BOND
M  V30 END CTAB
M  END
>  <Dataset>  (678) 
ChEMBL_Kinases

>  <Ligand_Instance>  (678) 
nan

>  <PDB_ID>  (678) 
nan

>  <Standardized_SMILES>  (678) 
CC(C)CCNC(=O)c1cnc2ccc(-c3cc(Cl)c(O)c(Cl)c3)nc2c1N[C@H]1CC[C@H](CN(C)C)CC1

>  <Name>  (678) 
nan

>  <Pocket>  (678) 
nan

>  <ATP_Site>  (678) 
nan

>  <Peripheral>  (678) 
nan

>  <Num_H_Atoms_ProtBoundConf>  (678) 
nan

>  <Num_Resolved_Atoms>  (678) 
nan

>  <Num_Not_Resolved_Atoms>  (678) 
nan

$$$$
CHEMBL452699
     RDKit          3D

  0  0  0  0  0  0  0  0  0  0999 V3000
M  V30 BEGIN CTAB
M  V30 COUNTS 44 46 0 0 0
M  V30 BEGIN ATOM
M  V30 1 C 0.565238 -5.854836 -1.959477 0
M  V30 2 C 0.026210 -4.503374 -2.195153 0
M  V30 3 O -0.950312 -4.458121 -2.969025 0
M  V30 4 N 0.522302 -3.304296 -1.625588 0
M  V30 5 C 0.060901 -1.984407 -1.803770 0
M  V30 6 C -0.977956 -1.558898 -2.572528 0
M  V30 7 C -1.377789 -0.256859 -2.704038 0
M  V30 8 C -0.698866 0.728817 -2.019140 0
M  V30 9 C 0.362679 0.336255 -1.227481 0
M  V30 10 C 1.101971 1.366313 -0.488618 0
M  V30 11 C 2.118051 0.816227 0.463494 0
M  V30 12 N 0.303976 2.343817 0.186221 0
M  V30 13 C -0.643150 2.069266 1.196086 0
M  V30 14 C -0.900155 1.917955 2.543432 0
M  V30 15 N 0.025441 2.038337 3.616707 0
M  V30 16 C 0.810888 1.013428 4.213227 0
M  V30 17 C 1.696840 1.241096 5.245317 0
M  V30 18 C 2.413924 0.182725 5.760366 0
M  V30 19 N 2.272402 -1.073457 5.281049 0
M  V30 20 C 1.435257 -1.373193 4.283996 0
M  V30 21 C 0.734042 -0.297362 3.790898 0
M  V30 22 C -2.242385 1.646971 2.320818 0
M  V30 23 O -3.099651 1.398846 3.227781 0
M  V30 24 C -1.983448 1.798661 0.974282 0
M  V30 25 O -2.932817 1.654892 0.147839 0
M  V30 26 C 0.728495 -0.989286 -1.126569 0
M  V30 27 H 0.533037 -6.503357 -2.838156 0
M  V30 28 H 1.617521 -5.835761 -1.575439 0
M  V30 29 H -0.064153 -6.322841 -1.173347 0
M  V30 30 H 1.334642 -3.512003 -1.006385 0
M  V30 31 H -1.543722 -2.270947 -3.127471 0
M  V30 32 H -2.212636 0.025671 -3.330428 0
M  V30 33 H -0.970243 1.772263 -2.085342 0
M  V30 34 H 1.702240 1.924880 -1.268278 0
M  V30 35 H 2.441050 1.666776 1.132924 0
M  V30 36 H 3.061068 0.548624 -0.096550 0
M  V30 37 H 1.785001 0.008591 1.110671 0
M  V30 38 H 0.361500 3.386199 -0.024241 0
M  V30 39 H 0.149386 3.011403 4.027303 0
M  V30 40 H 1.804138 2.262547 5.626516 0
M  V30 41 H 3.113448 0.349841 6.572008 0
M  V30 42 H 1.314070 -2.364203 3.895391 0
M  V30 43 H 0.027995 -0.484337 2.966972 0
M  V30 44 H 1.571458 -1.233686 -0.488686 0
M  V30 END ATOM
M  V30 BEGIN BOND
M  V30 1 1 1 2
M  V30 2 2 2 3
M  V30 3 1 2 4
M  V30 4 1 4 5
M  V30 5 2 5 6
M  V30 6 1 6 7
M  V30 7 2 7 8
M  V30 8 1 8 9
M  V30 9 1 9 10
M  V30 10 1 10 11
M  V30 11 1 10 12
M  V30 12 1 12 13
M  V30 13 2 13 14
M  V30 14 1 14 15
M  V30 15 1 15 16
M  V30 16 2 16 17
M  V30 17 1 17 18
M  V30 18 2 18 19
M  V30 19 1 19 20
M  V30 20 2 20 21
M  V30 21 1 14 22
M  V30 22 2 22 23
M  V30 23 1 22 24
M  V30 24 2 24 25
M  V30 25 2 9 26
M  V30 26 1 26 5
M  V30 27 1 24 13
M  V30 28 1 21 16
M  V30 29 1 1 27
M  V30 30 1 1 28
M  V30 31 1 1 29
M  V30 32 1 4 30
M  V30 33 1 6 31
M  V30 34 1 7 32
M  V30 35 1 8 33
M  V30 36 1 10 34
M  V30 37 1 11 35
M  V30 38 1 11 36
M  V30 39 1 11 37
M  V30 40 1 12 38
M  V30 41 1 15 39
M  V30 42 1 17 40
M  V30 43 1 18 41
M  V30 44 1 20 42
M  V30 45 1 21 43
M  V30 46 1 26 44
M  V30 END BOND
M  V30 END CTAB
M  END
>  <Dataset>  (679) 
ChEMBL_Kinases

>  <Ligand_Instance>  (679) 
nan

>  <PDB_ID>  (679) 
nan

>  <Standardized_SMILES>  (679) 
CC(=O)Nc1cccc(C(C)Nc2c(Nc3ccncc3)c(=O)c2=O)c1

>  <Name>  (679) 
nan

>  <Pocket>  (679) 
nan

>  <ATP_Site>  (679) 
nan

>  <Peripheral>  (679) 
nan

>  <Num_H_Atoms_ProtBoundConf>  (679) 
nan

>  <Num_Resolved_Atoms>  (679) 
nan

>  <Num_Not_Resolved_Atoms>  (679) 
nan

$$$$
CHEMBL4526828
     RDKit          3D

  0  0  0  0  0  0  0  0  0  0999 V3000
M  V30 BEGIN CTAB
M  V30 COUNTS 69 72 0 0 0
M  V30 BEGIN ATOM
M  V30 1 C 3.275447 -0.623160 8.271858 0
M  V30 2 O 2.817368 -0.405315 7.084067 0
M  V30 3 C 2.700570 0.028764 5.859302 0
M  V30 4 C 3.021309 0.664754 4.793514 0
M  V30 5 C 2.294184 0.647441 3.661046 0
M  V30 6 C 2.650376 1.418796 2.455658 0
M  V30 7 C 2.941786 2.710751 2.344037 0
M  V30 8 N 3.019725 3.424469 1.186272 0
M  V30 9 C 2.759715 2.704037 0.021322 0
M  V30 10 C 2.462278 1.387598 0.113955 0
M  V30 11 C 1.854368 0.769970 -1.051361 0
M  V30 12 C 0.470274 0.883459 -0.633471 0
M  V30 13 C -0.510289 0.354754 -1.476660 0
M  V30 14 C -0.368005 -0.213490 -2.546755 0
M  V30 15 N -1.388503 -0.836031 -3.370296 0
M  V30 16 C -2.619030 -0.781102 -2.578571 0
M  V30 17 C -3.667280 -1.691330 -3.111366 0 CFG=1
M  V30 18 C -5.018914 -1.249466 -2.682460 0
M  V30 19 N -3.589267 -1.855169 -4.563769 0
M  V30 20 C -3.978232 -0.696263 -5.302930 0
M  V30 21 C -2.298975 -2.389968 -4.900242 0 CFG=1
M  V30 22 C -2.377650 -3.148312 -6.165453 0
M  V30 23 C -1.197851 -1.404378 -4.725029 0
M  V30 24 C 0.963942 -0.456847 -3.222346 0
M  V30 25 C 1.844916 0.130525 -2.254263 0
M  V30 26 C 2.395017 0.628663 1.329428 0
M  V30 27 C 2.217176 -0.818696 1.085005 0
M  V30 28 C 1.109207 -0.113493 3.663622 0
M  V30 29 C 0.738647 -0.833311 4.847304 0
M  V30 30 O -0.504885 -1.545558 4.599239 0
M  V30 31 C -1.102374 -1.484033 3.334513 0
M  V30 32 C 1.637170 -0.784193 6.170515 0
M  V30 33 C 0.474731 -1.664422 6.454851 0
M  V30 34 N -0.599970 -2.483583 6.677386 0
M  V30 35 O 0.732392 -1.295354 7.668534 0
M  V30 36 H 3.094954 -1.723790 8.671915 0
M  V30 37 H 2.672346 -0.054906 9.121077 0
M  V30 38 H 4.315490 -0.403527 8.618210 0
M  V30 39 H 3.913127 1.181065 5.003461 0
M  V30 40 H 3.128108 3.284231 3.219652 0
M  V30 41 H 2.825090 3.327241 -0.836114 0
M  V30 42 H 0.028645 1.335965 0.260305 0
M  V30 43 H -1.556373 0.514425 -1.081044 0
M  V30 44 H -2.379652 -1.126350 -1.531500 0
M  V30 45 H -2.951928 0.289926 -2.520239 0
M  V30 46 H -3.476130 -2.727298 -2.700679 0
M  V30 47 H -5.826065 -1.820758 -3.198210 0
M  V30 48 H -5.170150 -1.488110 -1.592879 0
M  V30 49 H -5.148652 -0.139474 -2.753392 0
M  V30 50 H -3.231889 0.100304 -5.087695 0
M  V30 51 H -4.970525 -0.303366 -4.979316 0
M  V30 52 H -4.050450 -0.905524 -6.382957 0
M  V30 53 H -2.116194 -3.154945 -4.056425 0
M  V30 54 H -1.429473 -3.216259 -6.722424 0
M  V30 55 H -2.659419 -4.227578 -5.923320 0
M  V30 56 H -3.224965 -2.729836 -6.767664 0
M  V30 57 H -0.240415 -1.961594 -4.751201 0
M  V30 58 H -1.169297 -0.630762 -5.509142 0
M  V30 59 H 1.339493 -0.874678 -4.069426 0
M  V30 60 H 2.946511 0.137928 -2.415502 0
M  V30 61 H 3.114174 -1.107203 0.418212 0
M  V30 62 H 2.382237 -1.378468 2.025509 0
M  V30 63 H 1.288973 -1.088450 0.624542 0
M  V30 64 H 0.643433 0.070214 2.682654 0
M  V30 65 H -1.808334 -2.387123 3.234532 0
M  V30 66 H -1.656438 -0.530229 3.288733 0
M  V30 67 H -0.365534 -1.671770 2.546109 0
M  V30 68 H -1.486258 -1.883719 6.630711 0
M  V30 69 H -0.324978 -3.491864 6.801376 0
M  V30 END ATOM
M  V30 BEGIN BOND
M  V30 1 1 1 2
M  V30 2 1 2 3
M  V30 3 2 3 4
M  V30 4 1 4 5
M  V30 5 1 5 6
M  V30 6 2 6 7
M  V30 7 1 7 8
M  V30 8 2 8 9
M  V30 9 1 9 10
M  V30 10 1 10 11
M  V30 11 2 11 12
M  V30 12 1 12 13
M  V30 13 2 13 14
M  V30 14 1 14 15
M  V30 15 1 15 16
M  V30 16 1 16 17
M  V30 17 1 17 18
M  V30 18 1 17 19
M  V30 19 1 19 20
M  V30 20 1 19 21
M  V30 21 1 21 22
M  V30 22 1 21 23
M  V30 23 1 14 24
M  V30 24 2 24 25
M  V30 25 2 10 26
M  V30 26 1 26 27
M  V30 27 2 5 28
M  V30 28 1 28 29
M  V30 29 1 29 30
M  V30 30 1 30 31
M  V30 31 2 29 32
M  V30 32 1 32 33
M  V30 33 1 33 34
M  V30 34 2 33 35
M  V30 35 1 32 3
M  V30 36 1 26 6
M  V30 37 1 25 11
M  V30 38 1 23 15
M  V30 39 1 1 36
M  V30 40 1 1 37
M  V30 41 1 1 38
M  V30 42 1 4 39
M  V30 43 1 7 40
M  V30 44 1 9 41
M  V30 45 1 12 42
M  V30 46 1 13 43
M  V30 47 1 16 44
M  V30 48 1 16 45
M  V30 49 1 17 46 CFG=1
M  V30 50 1 18 47
M  V30 51 1 18 48
M  V30 52 1 18 49
M  V30 53 1 20 50
M  V30 54 1 20 51
M  V30 55 1 20 52
M  V30 56 1 21 53 CFG=1
M  V30 57 1 22 54
M  V30 58 1 22 55
M  V30 59 1 22 56
M  V30 60 1 23 57
M  V30 61 1 23 58
M  V30 62 1 24 59
M  V30 63 1 25 60
M  V30 64 1 27 61
M  V30 65 1 27 62
M  V30 66 1 27 63
M  V30 67 1 28 64
M  V30 68 1 31 65
M  V30 69 1 31 66
M  V30 70 1 31 67
M  V30 71 1 34 68
M  V30 72 1 34 69
M  V30 END BOND
M  V30 END CTAB
M  END
>  <Dataset>  (680) 
ChEMBL_Kinases

>  <Ligand_Instance>  (680) 
nan

>  <PDB_ID>  (680) 
nan

>  <Standardized_SMILES>  (680) 
COc1cc(-c2cncc(-c3ccc(N4C[C@@H](C)N(C)[C@@H](C)C4)cc3)c2C)cc(OC)c1C(N)=O

>  <Name>  (680) 
nan

>  <Pocket>  (680) 
nan

>  <ATP_Site>  (680) 
nan

>  <Peripheral>  (680) 
nan

>  <Num_H_Atoms_ProtBoundConf>  (680) 
nan

>  <Num_Resolved_Atoms>  (680) 
nan

>  <Num_Not_Resolved_Atoms>  (680) 
nan

$$$$
CHEMBL4526774
     RDKit          3D

  0  0  0  0  0  0  0  0  0  0999 V3000
M  V30 BEGIN CTAB
M  V30 COUNTS 62 66 0 0 0
M  V30 BEGIN ATOM
M  V30 1 C 6.629077 -0.971666 6.584049 0
M  V30 2 C 5.906617 -0.287281 5.475879 0
M  V30 3 C 6.613688 0.642133 4.753789 0
M  V30 4 C 6.046299 1.351121 3.689780 0
M  V30 5 C 4.725884 1.083412 3.379958 0
M  V30 6 C 4.105579 1.809130 2.272392 0
M  V30 7 C 2.806862 1.675109 1.821694 0
M  V30 8 C 2.706230 2.565221 0.769369 0
M  V30 9 C 1.515086 2.799925 -0.048058 0
M  V30 10 C 1.571794 3.726495 -1.068960 0
M  V30 11 C 0.454756 3.976914 -1.869777 0
M  V30 12 C -0.731052 3.287101 -1.639841 0
M  V30 13 C -0.766599 2.357975 -0.606245 0
M  V30 14 N -1.892523 1.559561 -0.225812 0
M  V30 15 C -1.980857 0.304315 -0.885060 0
M  V30 16 O -1.060317 0.067551 -1.710052 0
M  V30 17 C -3.079370 -0.590687 -0.580956 0
M  V30 18 C -4.092738 -0.344521 0.318272 0
M  V30 19 C -5.095028 -1.265566 0.535468 0
M  V30 20 C -5.138792 -2.471629 -0.128006 0
M  V30 21 C -6.204546 -3.493000 0.078662 0
M  V30 22 F -7.070124 -2.938789 1.029348 0
M  V30 23 F -5.685561 -4.631175 0.693806 0
M  V30 24 F -6.938030 -3.760518 -1.034915 0
M  V30 25 C -4.158116 -2.787041 -1.042770 0
M  V30 26 N -4.047613 -3.991441 -1.819919 0
M  V30 27 C -3.878669 -5.384764 -1.452627 0
M  V30 28 C -2.939520 -6.019070 -2.427386 0
M  V30 29 O -2.063243 -5.146292 -3.048164 0
M  V30 30 C -2.726574 -4.205243 -3.835177 0
M  V30 31 C -4.108052 -3.908789 -3.288032 0
M  V30 32 C -3.160750 -1.823307 -1.231658 0
M  V30 33 C 0.339741 2.111672 0.184962 0
M  V30 34 N 3.872102 3.209996 0.581407 0
M  V30 35 N 4.710746 2.736895 1.504749 0
M  V30 36 C 3.984612 0.156022 4.083910 0
M  V30 37 C 4.579065 -0.509500 5.111370 0
M  V30 38 H 5.997478 -1.722746 7.080161 0
M  V30 39 H 7.546735 -1.459609 6.252102 0
M  V30 40 H 6.927662 -0.240106 7.375442 0
M  V30 41 H 7.644846 0.856968 4.989214 0
M  V30 42 H 6.661896 2.072927 3.159819 0
M  V30 43 H 2.041031 1.002200 2.226891 0
M  V30 44 H 2.469267 4.310261 -1.312710 0
M  V30 45 H 0.449594 4.694774 -2.683430 0
M  V30 46 H -1.649854 3.400505 -2.193910 0
M  V30 47 H -2.561251 1.907495 0.475133 0
M  V30 48 H -4.073949 0.597399 0.847936 0
M  V30 49 H -5.874179 -1.034685 1.250878 0
M  V30 50 H -3.379731 -5.391936 -0.455468 0
M  V30 51 H -4.824524 -5.964602 -1.479554 0
M  V30 52 H -2.290398 -6.793662 -1.934750 0
M  V30 53 H -3.489379 -6.566019 -3.228931 0
M  V30 54 H -2.160731 -3.279042 -3.996765 0
M  V30 55 H -2.874650 -4.672368 -4.837544 0
M  V30 56 H -4.890566 -4.552997 -3.699188 0
M  V30 57 H -4.355317 -2.866022 -3.551428 0
M  V30 58 H -2.358796 -2.039350 -1.955122 0
M  V30 59 H 0.380250 1.405450 1.001895 0
M  V30 60 H 4.096108 3.937666 -0.136862 0
M  V30 61 H 2.949672 -0.062515 3.850916 0
M  V30 62 H 4.067541 -1.252497 5.713535 0
M  V30 END ATOM
M  V30 BEGIN BOND
M  V30 1 1 1 2
M  V30 2 2 2 3
M  V30 3 1 3 4
M  V30 4 2 4 5
M  V30 5 1 5 6
M  V30 6 1 6 7
M  V30 7 2 7 8
M  V30 8 1 8 9
M  V30 9 2 9 10
M  V30 10 1 10 11
M  V30 11 2 11 12
M  V30 12 1 12 13
M  V30 13 1 13 14
M  V30 14 1 14 15
M  V30 15 2 15 16
M  V30 16 1 15 17
M  V30 17 2 17 18
M  V30 18 1 18 19
M  V30 19 2 19 20
M  V30 20 1 20 21
M  V30 21 1 21 22
M  V30 22 1 21 23
M  V30 23 1 21 24
M  V30 24 1 20 25
M  V30 25 1 25 26
M  V30 26 1 26 27
M  V30 27 1 27 28
M  V30 28 1 28 29
M  V30 29 1 29 30
M  V30 30 1 30 31
M  V30 31 2 25 32
M  V30 32 2 13 33
M  V30 33 1 8 34
M  V30 34 1 34 35
M  V30 35 1 5 36
M  V30 36 2 36 37
M  V30 37 1 37 2
M  V30 38 2 35 6
M  V30 39 1 33 9
M  V30 40 1 32 17
M  V30 41 1 31 26
M  V30 42 1 1 38
M  V30 43 1 1 39
M  V30 44 1 1 40
M  V30 45 1 3 41
M  V30 46 1 4 42
M  V30 47 1 7 43
M  V30 48 1 10 44
M  V30 49 1 11 45
M  V30 50 1 12 46
M  V30 51 1 14 47
M  V30 52 1 18 48
M  V30 53 1 19 49
M  V30 54 1 27 50
M  V30 55 1 27 51
M  V30 56 1 28 52
M  V30 57 1 28 53
M  V30 58 1 30 54
M  V30 59 1 30 55
M  V30 60 1 31 56
M  V30 61 1 31 57
M  V30 62 1 32 58
M  V30 63 1 33 59
M  V30 64 1 34 60
M  V30 65 1 36 61
M  V30 66 1 37 62
M  V30 END BOND
M  V30 END CTAB
M  END
>  <Dataset>  (681) 
ChEMBL_Kinases

>  <Ligand_Instance>  (681) 
nan

>  <PDB_ID>  (681) 
nan

>  <Standardized_SMILES>  (681) 
Cc1ccc(-c2cc(-c3cccc(NC(=O)c4ccc(C(F)(F)F)c(N5CCOCC5)c4)c3)[nH]n2)cc1

>  <Name>  (681) 
nan

>  <Pocket>  (681) 
nan

>  <ATP_Site>  (681) 
nan

>  <Peripheral>  (681) 
nan

>  <Num_H_Atoms_ProtBoundConf>  (681) 
nan

>  <Num_Resolved_Atoms>  (681) 
nan

>  <Num_Not_Resolved_Atoms>  (681) 
nan

$$$$
CHEMBL4526756
     RDKit          3D

  0  0  0  0  0  0  0  0  0  0999 V3000
M  V30 BEGIN CTAB
M  V30 COUNTS 111 114 0 0 0
M  V30 BEGIN ATOM
M  V30 1 C 1.413741 2.960698 -5.840287 0
M  V30 2 C 0.436564 3.249699 -6.930057 0
M  V30 3 C -0.809845 2.480555 -6.998849 0
M  V30 4 C -1.923937 2.501895 -6.089171 0
M  V30 5 C -1.930188 2.188820 -4.676936 0
M  V30 6 C -1.323551 3.146145 -3.739541 0
M  V30 7 C -1.403768 2.613448 -2.285849 0
M  V30 8 C -0.671205 1.338926 -2.181592 0
M  V30 9 O -1.355864 0.988985 -1.144571 0
M  V30 10 O 0.097950 0.192746 -2.210010 0
M  V30 11 C 0.110404 -0.917734 -1.426786 0 CFG=1
M  V30 12 C -0.370155 -2.188946 -2.130102 0
M  V30 13 C -1.407725 -1.888787 -2.822841 0
M  V30 14 C -2.098292 -2.970588 -3.604344 0
M  V30 15 O -3.089557 -3.122214 -4.409485 0
M  V30 16 O -3.103357 -3.186228 -4.437186 0
M  V30 17 C -4.141001 -2.599482 -5.100439 0
M  V30 18 C 0.299102 -3.541173 -2.073909 0
M  V30 19 C 1.337721 -3.480987 -0.961352 0 CFG=1
M  V30 20 C 2.298924 -4.616795 -1.049275 0
M  V30 21 C 2.437799 -5.384400 0.226020 0 CFG=2
M  V30 22 C 3.553969 -6.444959 -0.035111 0
M  V30 23 O 3.924222 -7.055558 1.189875 0
M  V30 24 O 1.252147 -5.952285 0.634754 0
M  V30 25 C 0.641902 -5.913528 1.840256 0
M  V30 26 O 1.462579 -5.765444 0.872263 0
M  V30 27 C -0.040106 -5.887732 3.135780 0
M  V30 28 C 0.480931 -4.909638 4.146416 0
M  V30 29 O 0.204253 -3.625537 3.931005 0
M  V30 30 C -0.040140 -2.450326 3.717299 0
M  V30 31 C -1.457955 -2.407061 3.556518 0
M  V30 32 C -2.201078 -1.239065 3.307436 0
M  V30 33 C -1.528965 -0.007015 3.201519 0
M  V30 34 C -2.114783 1.314088 3.021591 0
M  V30 35 C -3.249062 1.290774 2.258360 0
M  V30 36 C -4.082532 2.301971 1.913509 0
M  V30 37 C -3.643010 3.525560 2.458650 0
M  V30 38 C -2.488097 3.656899 3.246746 0
M  V30 39 C -1.736799 2.540005 3.518841 0
M  V30 40 O -0.574790 2.507699 4.257457 0
M  V30 41 C -0.023793 3.749666 4.679637 0
M  V30 42 C 1.071106 3.641812 5.686835 0
M  V30 43 C 0.667914 4.329710 3.402964 0
M  V30 44 C -0.120713 0.083296 3.336209 0
M  V30 45 C 0.206549 -1.192648 3.555753 0
M  V30 46 C 1.610890 -1.151701 3.126115 0
M  V30 47 O 2.507158 -1.398391 3.868943 0
M  V30 48 O 2.284204 -0.915701 2.060172 0
M  V30 49 C 3.047536 -0.692013 1.005364 0
M  V30 50 C 2.203818 -0.131225 -0.198853 0
M  V30 51 C 3.181179 0.048743 -1.335629 0
M  V30 52 C 1.571480 1.151315 0.232696 0
M  V30 53 C 1.279497 -1.228105 -0.577758 0 CFG=1
M  V30 54 O 0.791630 -1.756120 0.660364 0
M  V30 55 O 2.060375 -2.278894 -1.093792 0
M  V30 56 H 2.407271 2.631552 -6.297672 0
M  V30 57 H 1.028117 2.143592 -5.212961 0
M  V30 58 H 1.564130 3.858494 -5.166260 0
M  V30 59 H 0.973083 3.106720 -7.939463 0
M  V30 60 H 0.232155 4.375474 -6.989192 0
M  V30 61 H -0.455788 1.364052 -7.134423 0
M  V30 62 H -1.284792 2.598848 -8.064408 0
M  V30 63 H -2.823858 1.896467 -6.556098 0
M  V30 64 H -2.413823 3.591192 -6.120448 0
M  V30 65 H -1.368633 1.182463 -4.549303 0
M  V30 66 H -2.957599 1.847677 -4.314688 0
M  V30 67 H -0.357035 3.483851 -3.895819 0
M  V30 68 H -2.004966 4.072851 -3.691185 0
M  V30 69 H -2.498001 2.492012 -2.146008 0
M  V30 70 H -1.015821 3.391579 -1.642841 0
M  V30 71 H -0.773186 -0.804946 -0.662377 0
M  V30 72 H -1.775593 -0.885679 -2.854838 0
M  V30 73 H -4.557343 -1.717172 -4.588013 0
M  V30 74 H -3.862141 -2.205912 -6.122682 0
M  V30 75 H -5.036177 -3.249055 -5.252875 0
M  V30 76 H -0.445519 -4.302774 -1.777535 0
M  V30 77 H 0.768208 -3.697968 -3.056576 0
M  V30 78 H 0.842296 -3.410295 0.018577 0
M  V30 79 H 2.118234 -5.267060 -1.933649 0
M  V30 80 H 3.341269 -4.194880 -1.249537 0
M  V30 81 H 2.916359 -4.716160 1.000146 0
M  V30 82 H 3.176948 -7.244530 -0.700671 0
M  V30 83 H 4.447463 -5.990539 -0.478170 0
M  V30 84 H 4.759153 -6.644020 1.567988 0
M  V30 85 H -0.097132 -6.914302 3.532943 0
M  V30 86 H -1.143913 -5.622104 2.934037 0
M  V30 87 H 1.594451 -5.039791 4.280275 0
M  V30 88 H 0.078537 -5.268193 5.142871 0
M  V30 89 H -2.250447 -3.192925 3.572269 0
M  V30 90 H -3.300643 -1.104743 3.151054 0
M  V30 91 H -3.627241 0.361867 1.792347 0
M  V30 92 H -4.964338 2.312915 1.316916 0
M  V30 93 H -4.188137 4.436847 2.301547 0
M  V30 94 H -2.246492 4.623034 3.634540 0
M  V30 95 H -0.771833 4.478896 4.901773 0
M  V30 96 H 1.811016 2.824148 5.403720 0
M  V30 97 H 0.715432 3.519177 6.719247 0
M  V30 98 H 1.698211 4.579682 5.603376 0
M  V30 99 H 1.504889 4.937618 3.772321 0
M  V30 100 H 1.075923 3.486330 2.829483 0
M  V30 101 H -0.023837 4.952079 2.830330 0
M  V30 102 H 0.649704 0.827064 3.321771 0
M  V30 103 H 3.585067 -1.601373 0.636238 0
M  V30 104 H 3.857601 0.078244 1.116350 0
M  V30 105 H 2.629398 -0.134534 -2.302322 0
M  V30 106 H 3.749962 0.970109 -1.327277 0
M  V30 107 H 3.909071 -0.825258 -1.250858 0
M  V30 108 H 1.614809 1.886000 -0.581313 0
M  V30 109 H 0.568628 1.011414 0.698523 0
M  V30 110 H 2.236200 1.582097 1.026920 0
M  V30 111 H -0.199929 -1.728188 0.684883 0
M  V30 END ATOM
M  V30 BEGIN BOND
M  V30 1 1 1 2
M  V30 2 1 2 3
M  V30 3 1 3 4
M  V30 4 1 4 5
M  V30 5 1 5 6
M  V30 6 1 6 7
M  V30 7 1 7 8
M  V30 8 2 8 9
M  V30 9 1 8 10
M  V30 10 1 10 11
M  V30 11 1 11 12
M  V30 12 2 12 13
M  V30 13 1 13 14
M  V30 14 2 14 15
M  V30 15 1 14 16
M  V30 16 1 16 17
M  V30 17 1 12 18
M  V30 18 1 18 19
M  V30 19 1 19 20
M  V30 20 1 20 21
M  V30 21 1 21 22
M  V30 22 1 22 23
M  V30 23 1 21 24
M  V30 24 1 24 25
M  V30 25 2 25 26
M  V30 26 1 25 27
M  V30 27 1 27 28
M  V30 28 1 28 29
M  V30 29 1 29 30
M  V30 30 2 30 31
M  V30 31 1 31 32
M  V30 32 2 32 33
M  V30 33 1 33 34
M  V30 34 2 34 35
M  V30 35 1 35 36
M  V30 36 2 36 37
M  V30 37 1 37 38
M  V30 38 2 38 39
M  V30 39 1 39 40
M  V30 40 1 40 41
M  V30 41 1 41 42
M  V30 42 1 41 43
M  V30 43 1 33 44
M  V30 44 2 44 45
M  V30 45 1 45 46
M  V30 46 2 46 47
M  V30 47 1 46 48
M  V30 48 1 48 49
M  V30 49 1 49 50
M  V30 50 1 50 51
M  V30 51 1 50 52
M  V30 52 1 50 53
M  V30 53 1 53 54 CFG=1
M  V30 54 1 53 55
M  V30 55 1 53 11
M  V30 56 1 55 19
M  V30 57 1 45 30
M  V30 58 1 39 34
M  V30 59 1 1 56
M  V30 60 1 1 57
M  V30 61 1 1 58
M  V30 62 1 2 59
M  V30 63 1 2 60
M  V30 64 1 3 61
M  V30 65 1 3 62
M  V30 66 1 4 63
M  V30 67 1 4 64
M  V30 68 1 5 65
M  V30 69 1 5 66
M  V30 70 1 6 67
M  V30 71 1 6 68
M  V30 72 1 7 69
M  V30 73 1 7 70
M  V30 74 1 11 71 CFG=1
M  V30 75 1 13 72
M  V30 76 1 17 73
M  V30 77 1 17 74
M  V30 78 1 17 75
M  V30 79 1 18 76
M  V30 80 1 18 77
M  V30 81 1 19 78 CFG=1
M  V30 82 1 20 79
M  V30 83 1 20 80
M  V30 84 1 21 81 CFG=1
M  V30 85 1 22 82
M  V30 86 1 22 83
M  V30 87 1 23 84
M  V30 88 1 27 85
M  V30 89 1 27 86
M  V30 90 1 28 87
M  V30 91 1 28 88
M  V30 92 1 31 89
M  V30 93 1 32 90
M  V30 94 1 35 91
M  V30 95 1 36 92
M  V30 96 1 37 93
M  V30 97 1 38 94
M  V30 98 1 41 95
M  V30 99 1 42 96
M  V30 100 1 42 97
M  V30 101 1 42 98
M  V30 102 1 43 99
M  V30 103 1 43 100
M  V30 104 1 43 101
M  V30 105 1 44 102
M  V30 106 1 49 103
M  V30 107 1 49 104
M  V30 108 1 51 105
M  V30 109 1 51 106
M  V30 110 1 51 107
M  V30 111 1 52 108
M  V30 112 1 52 109
M  V30 113 1 52 110
M  V30 114 1 54 111
M  V30 END BOND
M  V30 END CTAB
M  END
>  <Dataset>  (682) 
ChEMBL_Kinases

>  <Ligand_Instance>  (682) 
nan

>  <PDB_ID>  (682) 
nan

>  <Standardized_SMILES>  (682) 
CCCCCCCC(=O)O[C@H]1/C(=C/C(=O)OC)C[C@H]2C[C@H](CO)OC(=O)CCOc3ccc(-c4ccccc4OC(C)C)cc3C(=O)OCC(C)(C)[C@]1(O)O2

>  <Name>  (682) 
nan

>  <Pocket>  (682) 
nan

>  <ATP_Site>  (682) 
nan

>  <Peripheral>  (682) 
nan

>  <Num_H_Atoms_ProtBoundConf>  (682) 
nan

>  <Num_Resolved_Atoms>  (682) 
nan

>  <Num_Not_Resolved_Atoms>  (682) 
nan

$$$$
CHEMBL4526755
     RDKit          3D

  0  0  0  0  0  0  0  0  0  0999 V3000
M  V30 BEGIN CTAB
M  V30 COUNTS 64 69 0 0 0
M  V30 BEGIN ATOM
M  V30 1 C 0.965351 0.357480 5.910914 0
M  V30 2 C 0.560049 -0.663419 4.932593 0
M  V30 3 C 1.349098 -1.157962 3.880358 0
M  V30 4 C 0.731805 -2.133064 3.092154 0
M  V30 5 C 1.596892 -2.141757 1.854284 0
M  V30 6 C 2.876707 -1.915431 1.474031 0
M  V30 7 N 2.947328 -1.816587 0.139140 0
M  V30 8 N 1.728894 -1.972025 -0.415361 0
M  V30 9 C 1.170208 -1.994130 -1.660952 0
M  V30 10 N 2.166287 -1.574054 -2.574840 0
M  V30 11 C 3.165983 -1.179555 -3.479968 0
M  V30 12 C 3.260232 0.298806 -3.830595 0 CFG=1
M  V30 13 C 2.075850 0.920049 -4.504182 0
M  V30 14 C 1.968566 1.965775 -3.405347 0 CFG=2
M  V30 15 O 2.400128 3.234276 -3.790416 0
M  V30 16 C 2.967864 1.162753 -2.613619 0
M  V30 17 C -0.140341 -2.220722 -1.918316 0
M  V30 18 C -0.964288 -2.440174 -0.863865 0
M  V30 19 O -2.287250 -2.691384 -0.824966 0
M  V30 20 C -3.261548 -2.838118 -1.710984 0
M  V30 21 C -4.202328 -2.081491 -2.369711 0
M  V30 22 C -5.090096 -2.624521 -3.277747 0
M  V30 23 C -5.039823 -3.993295 -3.541137 0
M  V30 24 N -4.136834 -4.784669 -2.921320 0
M  V30 25 C -3.268955 -4.215685 -2.028082 0
M  V30 26 N -0.433267 -2.415593 0.346918 0
M  V30 27 C 0.873744 -2.186278 0.634451 0
M  V30 28 C -0.496347 -2.706029 3.160815 0
M  V30 29 C -1.294655 -2.220038 4.202553 0
M  V30 30 C -0.699494 -1.231848 4.993724 0
M  V30 31 C -1.766884 -0.527813 5.819108 0
M  V30 32 O -2.583363 -0.239297 6.694567 0
M  V30 33 N -1.988903 0.681964 5.001109 0
M  V30 34 C -2.545717 1.957614 4.574544 0
M  V30 35 C -1.612793 3.132039 4.449790 0
M  V30 36 C -2.091819 2.446021 3.193336 0
M  V30 37 H 1.715828 -0.003522 6.648390 0
M  V30 38 H 0.117956 0.860067 6.353588 0
M  V30 39 H 1.528403 1.121615 5.287505 0
M  V30 40 H 2.330092 -0.693595 3.844537 0
M  V30 41 H 3.601766 -1.850660 2.266126 0
M  V30 42 H 1.705536 -0.669217 -2.742938 0
M  V30 43 H 4.198384 -1.368626 -3.012695 0
M  V30 44 H 3.086924 -1.733000 -4.422172 0
M  V30 45 H 4.268762 0.544225 -4.202706 0
M  V30 46 H 1.202257 0.329708 -4.701535 0
M  V30 47 H 2.428181 1.395120 -5.479289 0
M  V30 48 H 0.934821 1.983850 -2.972487 0
M  V30 49 H 2.315413 3.894732 -3.065143 0
M  V30 50 H 2.561677 0.630113 -1.729347 0
M  V30 51 H 3.816739 1.789390 -2.269398 0
M  V30 52 H -0.514481 -2.224316 -2.919064 0
M  V30 53 H -4.101907 -1.033517 -2.041065 0
M  V30 54 H -5.742567 -1.897139 -3.703916 0
M  V30 55 H -5.778769 -4.348850 -4.282247 0
M  V30 56 H -2.653183 -5.023350 -1.648726 0
M  V30 57 H -0.736000 -3.464517 2.447686 0
M  V30 58 H -2.279708 -2.626111 4.326777 0
M  V30 59 H -1.314873 0.639543 4.145724 0
M  V30 60 H -3.568237 2.146785 4.899054 0
M  V30 61 H -0.568996 2.972059 4.727358 0
M  V30 62 H -2.074089 4.133099 4.592613 0
M  V30 63 H -2.835172 2.886412 2.524189 0
M  V30 64 H -1.334573 1.832483 2.639914 0
M  V30 END ATOM
M  V30 BEGIN BOND
M  V30 1 1 1 2
M  V30 2 2 2 3
M  V30 3 1 3 4
M  V30 4 1 4 5
M  V30 5 1 5 6
M  V30 6 2 6 7
M  V30 7 1 7 8
M  V30 8 1 8 9
M  V30 9 1 9 10
M  V30 10 1 10 11
M  V30 11 1 11 12
M  V30 12 1 12 13
M  V30 13 1 13 14
M  V30 14 1 14 15
M  V30 15 1 14 16
M  V30 16 2 9 17
M  V30 17 1 17 18
M  V30 18 1 18 19
M  V30 19 1 19 20
M  V30 20 2 20 21
M  V30 21 1 21 22
M  V30 22 2 22 23
M  V30 23 1 23 24
M  V30 24 2 24 25
M  V30 25 2 18 26
M  V30 26 1 26 27
M  V30 27 2 4 28
M  V30 28 1 28 29
M  V30 29 2 29 30
M  V30 30 1 30 31
M  V30 31 2 31 32
M  V30 32 1 31 33
M  V30 33 1 33 34
M  V30 34 1 34 35
M  V30 35 1 35 36
M  V30 36 1 30 2
M  V30 37 1 36 34
M  V30 38 2 27 5
M  V30 39 1 27 8
M  V30 40 1 16 12
M  V30 41 1 25 20
M  V30 42 1 1 37
M  V30 43 1 1 38
M  V30 44 1 1 39
M  V30 45 1 3 40
M  V30 46 1 6 41
M  V30 47 1 10 42
M  V30 48 1 11 43
M  V30 49 1 11 44
M  V30 50 1 12 45 CFG=3
M  V30 51 1 13 46
M  V30 52 1 13 47
M  V30 53 1 14 48 CFG=1
M  V30 54 1 15 49
M  V30 55 1 16 50
M  V30 56 1 16 51
M  V30 57 1 17 52
M  V30 58 1 21 53
M  V30 59 1 22 54
M  V30 60 1 23 55
M  V30 61 1 25 56
M  V30 62 1 28 57
M  V30 63 1 29 58
M  V30 64 1 33 59
M  V30 65 1 34 60
M  V30 66 1 35 61
M  V30 67 1 35 62
M  V30 68 1 36 63
M  V30 69 1 36 64
M  V30 END BOND
M  V30 END CTAB
M  END
>  <Dataset>  (683) 
ChEMBL_Kinases

>  <Ligand_Instance>  (683) 
nan

>  <PDB_ID>  (683) 
nan

>  <Standardized_SMILES>  (683) 
Cc1cc(-c2cnn3c(NC[C@H]4C[C@H](O)C4)cc(Oc4cccnc4)nc23)ccc1C(=O)NC1CC1

>  <Name>  (683) 
nan

>  <Pocket>  (683) 
nan

>  <ATP_Site>  (683) 
nan

>  <Peripheral>  (683) 
nan

>  <Num_H_Atoms_ProtBoundConf>  (683) 
nan

>  <Num_Resolved_Atoms>  (683) 
nan

>  <Num_Not_Resolved_Atoms>  (683) 
nan

$$$$
CHEMBL4526317
     RDKit          3D

  0  0  0  0  0  0  0  0  0  0999 V3000
M  V30 BEGIN CTAB
M  V30 COUNTS 62 66 0 0 0
M  V30 BEGIN ATOM
M  V30 1 C 3.841402 -0.500342 4.325813 0
M  V30 2 C 4.075066 -1.577180 3.294549 0
M  V30 3 O 4.146927 -2.830344 3.924095 0
M  V30 4 C 5.339981 -1.260511 2.549210 0
M  V30 5 C 4.902923 -0.412990 1.395140 0
M  V30 6 N 3.482012 -0.600738 1.255576 0
M  V30 7 C 2.651293 0.059650 0.319599 0
M  V30 8 C 1.276261 -0.060381 0.388940 0
M  V30 9 N 0.474743 0.555447 -0.487407 0
M  V30 10 C 0.919282 1.312593 -1.470380 0
M  V30 11 C 0.006983 1.922748 -2.334124 0
M  V30 12 C -1.450112 1.786829 -2.245197 0
M  V30 13 C -2.119169 2.622467 -1.213212 0
M  V30 14 C -2.392543 1.901410 0.087137 0
M  V30 15 N -2.737154 0.503768 -0.141811 0
M  V30 16 C -2.724673 -0.307888 1.042076 0
M  V30 17 O -2.392199 0.543185 1.884490 0
M  V30 18 C -3.040591 -1.724998 1.081176 0
M  V30 19 C -4.292514 -1.897215 1.682844 0
M  V30 20 C -4.858408 -3.158928 1.856891 0
M  V30 21 C -4.145300 -4.269161 1.414315 0
M  V30 22 O -4.692653 -5.530591 1.579408 0
M  V30 23 C -5.513805 -6.109419 0.588168 0
M  V30 24 F -5.935691 -7.368754 0.988209 0
M  V30 25 F -6.618395 -5.276158 0.433311 0
M  V30 26 F -4.862629 -6.187804 -0.625025 0
M  V30 27 C -2.926510 -4.075087 0.830741 0
M  V30 28 C -2.359076 -2.839977 0.653738 0
M  V30 29 C -3.063200 0.006386 -1.462056 0
M  V30 30 C -1.839646 0.356808 -2.305043 0
M  V30 31 N 0.631860 2.679183 -3.292912 0
M  V30 32 C 1.940892 2.819993 -3.395081 0
M  V30 33 N 2.793988 2.215646 -2.542552 0
M  V30 34 C 2.275638 1.451236 -1.566233 0
M  V30 35 C 3.175330 0.854995 -0.709253 0
M  V30 36 C 3.024223 -1.572676 2.218543 0
M  V30 37 H 3.850728 -0.956359 5.348129 0
M  V30 38 H 2.847320 -0.012077 4.183293 0
M  V30 39 H 4.620180 0.286417 4.319682 0
M  V30 40 H 3.199714 -3.146090 4.006381 0
M  V30 41 H 5.779079 -2.229468 2.217795 0
M  V30 42 H 6.059354 -0.689496 3.179432 0
M  V30 43 H 5.092429 0.653081 1.654259 0
M  V30 44 H 5.415932 -0.688197 0.444963 0
M  V30 45 H 0.785430 -0.652265 1.148390 0
M  V30 46 H -1.817634 2.206556 -3.239748 0
M  V30 47 H -1.588298 3.580203 -1.083197 0
M  V30 48 H -3.133229 2.910159 -1.566348 0
M  V30 49 H -3.266063 2.325545 0.628746 0
M  V30 50 H -1.565420 1.939024 0.816628 0
M  V30 51 H -4.964706 -1.118825 2.078196 0
M  V30 52 H -5.812555 -3.343721 2.310699 0
M  V30 53 H -2.326381 -4.909099 0.465477 0
M  V30 54 H -1.417065 -2.569758 0.212658 0
M  V30 55 H -3.149848 -1.094026 -1.486103 0
M  V30 56 H -3.920408 0.530230 -1.902016 0
M  V30 57 H -2.124033 0.018599 -3.339177 0
M  V30 58 H -1.013639 -0.328382 -2.027117 0
M  V30 59 H 2.313562 3.456336 -4.212055 0
M  V30 60 H 4.232722 0.955854 -0.773864 0
M  V30 61 H 2.011159 -1.408984 2.601432 0
M  V30 62 H 3.095950 -2.568700 1.693485 0
M  V30 END ATOM
M  V30 BEGIN BOND
M  V30 1 1 1 2
M  V30 2 1 2 3
M  V30 3 1 2 4
M  V30 4 1 4 5
M  V30 5 1 5 6
M  V30 6 1 6 7
M  V30 7 2 7 8
M  V30 8 1 8 9
M  V30 9 2 9 10
M  V30 10 1 10 11
M  V30 11 1 11 12
M  V30 12 1 12 13
M  V30 13 1 13 14
M  V30 14 1 14 15
M  V30 15 1 15 16
M  V30 16 2 16 17
M  V30 17 1 16 18
M  V30 18 2 18 19
M  V30 19 1 19 20
M  V30 20 2 20 21
M  V30 21 1 21 22
M  V30 22 1 22 23
M  V30 23 1 23 24
M  V30 24 1 23 25
M  V30 25 1 23 26
M  V30 26 1 21 27
M  V30 27 2 27 28
M  V30 28 1 15 29
M  V30 29 1 29 30
M  V30 30 2 11 31
M  V30 31 1 31 32
M  V30 32 2 32 33
M  V30 33 1 33 34
M  V30 34 2 34 35
M  V30 35 1 6 36
M  V30 36 1 36 2
M  V30 37 1 35 7
M  V30 38 1 34 10
M  V30 39 1 30 12
M  V30 40 1 28 18
M  V30 41 1 1 37
M  V30 42 1 1 38
M  V30 43 1 1 39
M  V30 44 1 3 40
M  V30 45 1 4 41
M  V30 46 1 4 42
M  V30 47 1 5 43
M  V30 48 1 5 44
M  V30 49 1 8 45
M  V30 50 1 12 46
M  V30 51 1 13 47
M  V30 52 1 13 48
M  V30 53 1 14 49
M  V30 54 1 14 50
M  V30 55 1 19 51
M  V30 56 1 20 52
M  V30 57 1 27 53
M  V30 58 1 28 54
M  V30 59 1 29 55
M  V30 60 1 29 56
M  V30 61 1 30 57
M  V30 62 1 30 58
M  V30 63 1 32 59
M  V30 64 1 35 60
M  V30 65 1 36 61
M  V30 66 1 36 62
M  V30 END BOND
M  V30 END CTAB
M  END
>  <Dataset>  (684) 
ChEMBL_Kinases

>  <Ligand_Instance>  (684) 
nan

>  <PDB_ID>  (684) 
nan

>  <Standardized_SMILES>  (684) 
CC1(O)CCN(c2cnc3c(C4CCN(C(=O)c5ccc(OC(F)(F)F)cc5)CC4)ncnc3c2)C1

>  <Name>  (684) 
nan

>  <Pocket>  (684) 
nan

>  <ATP_Site>  (684) 
nan

>  <Peripheral>  (684) 
nan

>  <Num_H_Atoms_ProtBoundConf>  (684) 
nan

>  <Num_Resolved_Atoms>  (684) 
nan

>  <Num_Not_Resolved_Atoms>  (684) 
nan

$$$$
CHEMBL4644066
     RDKit          3D

  0  0  0  0  0  0  0  0  0  0999 V3000
M  V30 BEGIN CTAB
M  V30 COUNTS 53 56 0 0 0
M  V30 BEGIN ATOM
M  V30 1 N 1.186274 -3.152564 -2.983758 0
M  V30 2 C 1.501496 -3.672781 -1.698489 0
M  V30 3 O 1.463817 -4.941998 -1.635120 0
M  V30 4 C 1.789702 -2.543213 -0.785470 0 CFG=1
M  V30 5 C 2.133475 -3.002913 0.602576 0
M  V30 6 C 2.516281 -1.901020 1.497544 0
M  V30 7 C 2.588858 -0.515486 0.944264 0 CFG=2
M  V30 8 N 1.338715 0.164723 1.078604 0
M  V30 9 C 0.677554 1.404528 1.074461 0
M  V30 10 C 1.301423 2.625533 0.974869 0
M  V30 11 C 2.762425 2.792763 0.949143 0
M  V30 12 O 3.274539 2.644820 2.262681 0
M  V30 13 C 0.596868 3.831746 0.930331 0
M  V30 14 N -0.734089 3.760325 0.990335 0
M  V30 15 C -1.415249 2.620069 1.088684 0
M  V30 16 C -2.782753 2.595121 1.147446 0
M  V30 17 C -3.534338 1.447978 1.248705 0
M  V30 18 C -2.783117 0.295679 1.287225 0
M  V30 19 C -3.430124 -1.002916 1.391960 0
M  V30 20 C -4.791578 -1.198512 1.460549 0
M  V30 21 C -5.398915 -2.430279 1.558770 0
M  V30 22 Cl -7.147749 -2.578997 1.641058 0
M  V30 23 C -4.613860 -3.563374 1.592897 0
M  V30 24 O -5.162295 -4.835226 1.690994 0
M  V30 25 C -3.229147 -3.453885 1.528426 0
M  V30 26 Cl -2.224472 -4.876559 1.569514 0
M  V30 27 C -2.708285 -2.177228 1.431161 0
M  V30 28 N -1.445204 0.324438 1.229478 0
M  V30 29 C -0.706208 1.451453 1.130130 0
M  V30 30 C 2.959060 -0.469585 -0.513780 0
M  V30 31 C 3.028586 -1.778024 -1.215103 0
M  V30 32 H 0.970401 -2.767808 -3.927935 0
M  V30 33 H 0.158159 -3.265568 -3.112951 0
M  V30 34 H 0.911486 -1.890810 -0.764402 0
M  V30 35 H 3.014516 -3.699132 0.472456 0
M  V30 36 H 1.343183 -3.648993 1.037866 0
M  V30 37 H 3.491927 -2.136569 1.973559 0
M  V30 38 H 1.802534 -1.909655 2.378331 0
M  V30 39 H 3.352443 0.053856 1.502291 0
M  V30 40 H 0.676219 -0.613015 1.241261 0
M  V30 41 H 3.321347 2.120793 0.309418 0
M  V30 42 H 3.044493 3.832696 0.593335 0
M  V30 43 H 2.552093 2.730309 2.931469 0
M  V30 44 H 1.071010 4.795755 0.851246 0
M  V30 45 H -3.262604 3.579143 1.107835 0
M  V30 46 H -4.609051 1.478377 1.291834 0
M  V30 47 H -5.452155 -0.346683 1.437725 0
M  V30 48 H -5.380602 -5.330988 0.819979 0
M  V30 49 H -1.623014 -2.146527 1.383995 0
M  V30 50 H 3.964449 0.014533 -0.655610 0
M  V30 51 H 2.269993 0.178154 -1.090557 0
M  V30 52 H 3.932768 -2.319794 -0.878551 0
M  V30 53 H 3.024779 -1.586674 -2.305079 0
M  V30 END ATOM
M  V30 BEGIN BOND
M  V30 1 1 1 2
M  V30 2 2 2 3
M  V30 3 1 2 4
M  V30 4 1 4 5
M  V30 5 1 5 6
M  V30 6 1 6 7
M  V30 7 1 7 8
M  V30 8 1 8 9
M  V30 9 2 9 10
M  V30 10 1 10 11
M  V30 11 1 11 12
M  V30 12 1 10 13
M  V30 13 2 13 14
M  V30 14 1 14 15
M  V30 15 2 15 16
M  V30 16 1 16 17
M  V30 17 2 17 18
M  V30 18 1 18 19
M  V30 19 2 19 20
M  V30 20 1 20 21
M  V30 21 1 21 22
M  V30 22 2 21 23
M  V30 23 1 23 24
M  V30 24 1 23 25
M  V30 25 1 25 26
M  V30 26 2 25 27
M  V30 27 1 18 28
M  V30 28 2 28 29
M  V30 29 1 7 30
M  V30 30 1 30 31
M  V30 31 1 31 4
M  V30 32 1 29 9
M  V30 33 1 29 15
M  V30 34 1 27 19
M  V30 35 1 1 32
M  V30 36 1 1 33
M  V30 37 1 4 34 CFG=1
M  V30 38 1 5 35
M  V30 39 1 5 36
M  V30 40 1 6 37
M  V30 41 1 6 38
M  V30 42 1 7 39 CFG=1
M  V30 43 1 8 40
M  V30 44 1 11 41
M  V30 45 1 11 42
M  V30 46 1 12 43
M  V30 47 1 13 44
M  V30 48 1 16 45
M  V30 49 1 17 46
M  V30 50 1 20 47
M  V30 51 1 24 48
M  V30 52 1 27 49
M  V30 53 1 30 50
M  V30 54 1 30 51
M  V30 55 1 31 52
M  V30 56 1 31 53
M  V30 END BOND
M  V30 END CTAB
M  END
>  <Dataset>  (685) 
ChEMBL_Kinases

>  <Ligand_Instance>  (685) 
nan

>  <PDB_ID>  (685) 
nan

>  <Standardized_SMILES>  (685) 
NC(=O)[C@H]1CC[C@H](Nc2c(CO)cnc3ccc(-c4cc(Cl)c(O)c(Cl)c4)nc23)CC1

>  <Name>  (685) 
nan

>  <Pocket>  (685) 
nan

>  <ATP_Site>  (685) 
nan

>  <Peripheral>  (685) 
nan

>  <Num_H_Atoms_ProtBoundConf>  (685) 
nan

>  <Num_Resolved_Atoms>  (685) 
nan

>  <Num_Not_Resolved_Atoms>  (685) 
nan

$$$$
CHEMBL4526578
     RDKit          3D

  0  0  0  0  0  0  0  0  0  0999 V3000
M  V30 BEGIN CTAB
M  V30 COUNTS 42 45 0 0 0
M  V30 BEGIN ATOM
M  V30 1 C -1.440129 -4.103646 3.276277 0
M  V30 2 C -0.155172 -3.648843 2.636842 0
M  V30 3 O 0.688383 -3.196754 3.650181 0
M  V30 4 C -0.411982 -2.618474 1.642404 0
M  V30 5 C -0.609763 -1.749937 0.820214 0
M  V30 6 C -0.827207 -0.696871 -0.155497 0
M  V30 7 C 0.155311 0.270220 -0.249464 0
M  V30 8 C 0.038702 1.317374 -1.152109 0
M  V30 9 N 1.079701 2.304590 -1.222224 0
M  V30 10 C 1.763681 2.821835 -2.252828 0
M  V30 11 C 2.673622 3.758460 -1.761923 0
M  V30 12 C 2.520860 3.796328 -0.382412 0
M  V30 13 C 3.182873 4.555816 0.559649 0
M  V30 14 N 2.819231 4.378486 1.839374 0
M  V30 15 C 1.842926 3.490172 2.186486 0
M  V30 16 N 1.422333 3.266128 3.524717 0
M  V30 17 N 1.219163 2.766714 1.240024 0
M  V30 18 C 1.524765 2.882783 -0.082399 0
M  V30 19 C -1.083767 1.370505 -1.955440 0
M  V30 20 C -2.062078 0.380697 -1.840752 0
M  V30 21 C -1.948333 -0.663802 -0.942141 0
M  V30 22 C -2.945221 -1.689354 -0.811949 0
M  V30 23 N -3.758275 -2.510080 -0.713797 0
M  V30 24 C 0.419953 -4.879339 1.960738 0
M  V30 25 N 0.409816 -5.448027 0.995072 0
M  V30 26 C 1.043823 -6.553163 0.656693 0
M  V30 27 C 1.839960 -7.104903 1.616301 0
M  V30 28 S 1.600888 -5.918404 3.018727 0
M  V30 29 H -1.481717 -3.826008 4.347811 0
M  V30 30 H -2.304801 -3.587239 2.790796 0
M  V30 31 H -1.635991 -5.183404 3.174558 0
M  V30 32 H 0.587836 -3.850990 4.385859 0
M  V30 33 H 1.042884 0.243200 0.373963 0
M  V30 34 H 1.583843 2.512962 -3.277191 0
M  V30 35 H 3.358613 4.329264 -2.398469 0
M  V30 36 H 3.959509 5.262721 0.285519 0
M  V30 37 H 0.891178 3.731530 4.292011 0
M  V30 38 H 1.656237 2.379258 4.027657 0
M  V30 39 H -1.184956 2.193498 -2.671334 0
M  V30 40 H -2.941025 0.435495 -2.480174 0
M  V30 41 H 0.903911 -6.966132 -0.356448 0
M  V30 42 H 2.425309 -8.045211 1.436393 0
M  V30 END ATOM
M  V30 BEGIN BOND
M  V30 1 1 1 2
M  V30 2 1 2 3
M  V30 3 1 2 4
M  V30 4 3 4 5
M  V30 5 1 5 6
M  V30 6 2 6 7
M  V30 7 1 7 8
M  V30 8 1 8 9
M  V30 9 1 9 10
M  V30 10 2 10 11
M  V30 11 1 11 12
M  V30 12 2 12 13
M  V30 13 1 13 14
M  V30 14 2 14 15
M  V30 15 1 15 16
M  V30 16 1 15 17
M  V30 17 2 17 18
M  V30 18 2 8 19
M  V30 19 1 19 20
M  V30 20 2 20 21
M  V30 21 1 21 22
M  V30 22 3 22 23
M  V30 23 1 2 24
M  V30 24 2 24 25
M  V30 25 1 25 26
M  V30 26 2 26 27
M  V30 27 1 27 28
M  V30 28 1 21 6
M  V30 29 1 28 24
M  V30 30 1 18 9
M  V30 31 1 18 12
M  V30 32 1 1 29
M  V30 33 1 1 30
M  V30 34 1 1 31
M  V30 35 1 3 32
M  V30 36 1 7 33
M  V30 37 1 10 34
M  V30 38 1 11 35
M  V30 39 1 13 36
M  V30 40 1 16 37
M  V30 41 1 16 38
M  V30 42 1 19 39
M  V30 43 1 20 40
M  V30 44 1 26 41
M  V30 45 1 27 42
M  V30 END BOND
M  V30 END CTAB
M  END
>  <Dataset>  (686) 
ChEMBL_Kinases

>  <Ligand_Instance>  (686) 
nan

>  <PDB_ID>  (686) 
nan

>  <Standardized_SMILES>  (686) 
CC(O)(C#Cc1cc(-n2ccc3cnc(N)nc32)ccc1C#N)c1nccs1

>  <Name>  (686) 
nan

>  <Pocket>  (686) 
nan

>  <ATP_Site>  (686) 
nan

>  <Peripheral>  (686) 
nan

>  <Num_H_Atoms_ProtBoundConf>  (686) 
nan

>  <Num_Resolved_Atoms>  (686) 
nan

>  <Num_Not_Resolved_Atoms>  (686) 
nan

$$$$
CHEMBL4644073
     RDKit          3D

  0  0  0  0  0  0  0  0  0  0999 V3000
M  V30 BEGIN CTAB
M  V30 COUNTS 63 66 0 0 0
M  V30 BEGIN ATOM
M  V30 1 C 3.191423 -4.811805 3.876953 0
M  V30 2 N 3.197516 -3.431328 3.469921 0
M  V30 3 C 2.096471 -2.737582 2.898595 0
M  V30 4 O 1.236735 -3.650981 2.883362 0
M  V30 5 C 2.191943 -1.341162 2.517349 0
M  V30 6 C 3.393230 -0.717787 2.733307 0
M  V30 7 N 3.620540 0.561796 2.432696 0
M  V30 8 C 2.611540 1.282833 1.886706 0
M  V30 9 C 2.850203 2.624248 1.599370 0
M  V30 10 C 1.832206 3.387179 1.067212 0
M  V30 11 C 0.611318 2.788618 0.839475 0
M  V30 12 C -0.421903 3.679634 0.331123 0
M  V30 13 C -0.244186 5.001301 0.014965 0
M  V30 14 C -1.228381 5.857774 -0.441571 0
M  V30 15 Cl -0.888839 7.516621 -0.811238 0
M  V30 16 C -2.502069 5.365646 -0.600080 0
M  V30 17 O -3.479476 6.238856 -1.059094 0
M  V30 18 C -2.733999 4.047706 -0.297021 0
M  V30 19 Cl -4.384566 3.488418 -0.524035 0
M  V30 20 C -1.706790 3.220672 0.161768 0
M  V30 21 N 0.385233 1.496797 1.114647 0
M  V30 22 C 1.344991 0.746107 1.624091 0
M  V30 23 C 1.169563 -0.604564 1.960570 0
M  V30 24 N -0.080530 -1.226565 1.731770 0
M  V30 25 C -1.267229 -0.730868 1.068464 0 CFG=1
M  V30 26 C -1.048928 -0.584191 -0.412750 0
M  V30 27 C -1.768190 -1.702113 -1.195691 0
M  V30 28 C -1.436205 -2.997499 -0.526742 0 CFG=2
M  V30 29 C -1.819564 -4.242426 -1.235490 0
M  V30 30 N -1.306603 -4.530167 -2.501581 0
M  V30 31 C -1.716338 -3.771375 -3.619894 0
M  V30 32 C 0.052718 -4.942884 -2.605820 0
M  V30 33 C -2.245997 -3.016330 0.789099 0
M  V30 34 C -2.451519 -1.620282 1.263858 0
M  V30 35 H 3.207384 -4.910532 5.000602 0
M  V30 36 H 2.392659 -5.422547 3.446947 0
M  V30 37 H 4.144440 -5.327583 3.554956 0
M  V30 38 H 4.154621 -3.004080 3.662758 0
M  V30 39 H 4.307048 -1.131671 3.157927 0
M  V30 40 H 3.844487 2.997272 1.815450 0
M  V30 41 H 2.169685 4.396211 0.901832 0
M  V30 42 H 0.727451 5.453376 0.113599 0
M  V30 43 H -3.866212 6.927525 -0.444095 0
M  V30 44 H -2.055768 2.227223 0.364617 0
M  V30 45 H -0.242716 -2.196331 2.069436 0
M  V30 46 H -1.545066 0.229985 1.574726 0
M  V30 47 H -1.422809 0.359547 -0.832923 0
M  V30 48 H 0.036011 -0.741904 -0.686157 0
M  V30 49 H -2.868871 -1.474831 -1.146564 0
M  V30 50 H -1.454603 -1.601629 -2.237963 0
M  V30 51 H -0.372670 -2.984036 -0.192847 0
M  V30 52 H -2.951580 -4.224766 -1.302672 0
M  V30 53 H -1.648053 -5.149253 -0.567297 0
M  V30 54 H -1.896725 -4.457837 -4.499764 0
M  V30 55 H -0.873757 -3.100505 -3.933100 0
M  V30 56 H -2.658254 -3.214143 -3.420415 0
M  V30 57 H 0.766601 -4.113549 -2.724751 0
M  V30 58 H 0.321042 -5.645532 -1.794247 0
M  V30 59 H 0.126007 -5.558074 -3.547163 0
M  V30 60 H -3.255927 -3.403313 0.504802 0
M  V30 61 H -1.786035 -3.685149 1.529968 0
M  V30 62 H -3.355047 -1.129663 0.847495 0
M  V30 63 H -2.653125 -1.691073 2.370838 0
M  V30 END ATOM
M  V30 BEGIN BOND
M  V30 1 1 1 2
M  V30 2 1 2 3
M  V30 3 2 3 4
M  V30 4 1 3 5
M  V30 5 2 5 6
M  V30 6 1 6 7
M  V30 7 2 7 8
M  V30 8 1 8 9
M  V30 9 2 9 10
M  V30 10 1 10 11
M  V30 11 1 11 12
M  V30 12 2 12 13
M  V30 13 1 13 14
M  V30 14 1 14 15
M  V30 15 2 14 16
M  V30 16 1 16 17
M  V30 17 1 16 18
M  V30 18 1 18 19
M  V30 19 2 18 20
M  V30 20 2 11 21
M  V30 21 1 21 22
M  V30 22 2 22 23
M  V30 23 1 23 24
M  V30 24 1 24 25
M  V30 25 1 25 26
M  V30 26 1 26 27
M  V30 27 1 27 28
M  V30 28 1 28 29
M  V30 29 1 29 30
M  V30 30 1 30 31
M  V30 31 1 30 32
M  V30 32 1 28 33
M  V30 33 1 33 34
M  V30 34 1 23 5
M  V30 35 1 34 25
M  V30 36 1 22 8
M  V30 37 1 20 12
M  V30 38 1 1 35
M  V30 39 1 1 36
M  V30 40 1 1 37
M  V30 41 1 2 38
M  V30 42 1 6 39
M  V30 43 1 9 40
M  V30 44 1 10 41
M  V30 45 1 13 42
M  V30 46 1 17 43
M  V30 47 1 20 44
M  V30 48 1 24 45
M  V30 49 1 25 46 CFG=1
M  V30 50 1 26 47
M  V30 51 1 26 48
M  V30 52 1 27 49
M  V30 53 1 27 50
M  V30 54 1 28 51 CFG=1
M  V30 55 1 29 52
M  V30 56 1 29 53
M  V30 57 1 31 54
M  V30 58 1 31 55
M  V30 59 1 31 56
M  V30 60 1 32 57
M  V30 61 1 32 58
M  V30 62 1 32 59
M  V30 63 1 33 60
M  V30 64 1 33 61
M  V30 65 1 34 62
M  V30 66 1 34 63
M  V30 END BOND
M  V30 END CTAB
M  END
>  <Dataset>  (687) 
ChEMBL_Kinases

>  <Ligand_Instance>  (687) 
nan

>  <PDB_ID>  (687) 
nan

>  <Standardized_SMILES>  (687) 
CNC(=O)c1cnc2ccc(-c3cc(Cl)c(O)c(Cl)c3)nc2c1N[C@H]1CC[C@H](CN(C)C)CC1

>  <Name>  (687) 
nan

>  <Pocket>  (687) 
nan

>  <ATP_Site>  (687) 
nan

>  <Peripheral>  (687) 
nan

>  <Num_H_Atoms_ProtBoundConf>  (687) 
nan

>  <Num_Resolved_Atoms>  (687) 
nan

>  <Num_Not_Resolved_Atoms>  (687) 
nan

$$$$
CHEMBL4644160
     RDKit          3D

  0  0  0  0  0  0  0  0  0  0999 V3000
M  V30 BEGIN CTAB
M  V30 COUNTS 45 48 0 0 0
M  V30 BEGIN ATOM
M  V30 1 N -1.766260 -4.844809 5.082285 0
M  V30 2 C -0.888269 -3.802757 4.675153 0
M  V30 3 C -0.620450 -2.717780 5.483008 0
M  V30 4 C 0.243209 -1.754483 5.006850 0
M  V30 5 C 0.876926 -1.787006 3.758959 0
M  V30 6 C 1.761418 -0.669763 3.466281 0
M  V30 7 C 2.703036 -0.466678 4.454275 0
M  V30 8 N 3.637977 0.509902 4.362212 0
M  V30 9 C 3.684497 1.336179 3.281021 0
M  V30 10 C 2.754032 1.154940 2.279094 0
M  V30 11 C 2.694965 1.926012 1.145908 0
M  V30 12 C 1.728176 1.701223 0.169308 0
M  V30 13 C 0.784895 0.690225 0.299715 0
M  V30 14 O -0.182421 0.459402 -0.668573 0
M  V30 15 C -0.200594 1.274211 -1.806811 0
M  V30 16 C -1.307582 0.903099 -2.768719 0 CFG=2
M  V30 17 C -1.167960 -0.524177 -3.256366 0
M  V30 18 C -1.814293 -0.437741 -4.630939 0
M  V30 19 N -1.276703 0.803667 -5.151810 0
M  V30 20 C -1.128014 1.697829 -4.025802 0
M  V30 21 C 0.827818 -0.096013 1.431765 0
M  V30 22 C 1.801582 0.162458 2.370054 0
M  V30 23 C 0.577000 -2.891073 2.990370 0
M  V30 24 C -0.280882 -3.865044 3.441943 0
M  V30 25 H -2.738523 -4.738534 5.410512 0
M  V30 26 H -1.523791 -5.871684 5.097768 0
M  V30 27 H -1.071366 -2.620505 6.461023 0
M  V30 28 H 0.423024 -0.909616 5.690706 0
M  V30 29 H 2.814680 -1.025003 5.377880 0
M  V30 30 H 4.404036 2.130204 3.150659 0
M  V30 31 H 3.443321 2.721006 1.052404 0
M  V30 32 H 1.732817 2.344255 -0.704404 0
M  V30 33 H 0.765919 1.339924 -2.341402 0
M  V30 34 H -0.430735 2.308407 -1.455878 0
M  V30 35 H -2.291129 1.008491 -2.297175 0
M  V30 36 H -1.845000 -1.181226 -2.656079 0
M  V30 37 H -0.132982 -0.883983 -3.277192 0
M  V30 38 H -2.898226 -0.267032 -4.455859 0
M  V30 39 H -1.595871 -1.304950 -5.252485 0
M  V30 40 H -0.390035 0.615617 -5.646527 0
M  V30 41 H -0.120653 2.152765 -4.097636 0
M  V30 42 H -1.859162 2.539460 -4.069063 0
M  V30 43 H 0.100853 -0.859889 1.528585 0
M  V30 44 H 1.070133 -2.929584 2.029697 0
M  V30 45 H -0.470583 -4.702949 2.785428 0
M  V30 END ATOM
M  V30 BEGIN BOND
M  V30 1 1 1 2
M  V30 2 2 2 3
M  V30 3 1 3 4
M  V30 4 2 4 5
M  V30 5 1 5 6
M  V30 6 2 6 7
M  V30 7 1 7 8
M  V30 8 2 8 9
M  V30 9 1 9 10
M  V30 10 2 10 11
M  V30 11 1 11 12
M  V30 12 2 12 13
M  V30 13 1 13 14
M  V30 14 1 14 15
M  V30 15 1 15 16
M  V30 16 1 16 17
M  V30 17 1 17 18
M  V30 18 1 18 19
M  V30 19 1 19 20
M  V30 20 1 13 21
M  V30 21 2 21 22
M  V30 22 1 5 23
M  V30 23 2 23 24
M  V30 24 1 24 2
M  V30 25 1 22 6
M  V30 26 1 22 10
M  V30 27 1 20 16
M  V30 28 1 1 25
M  V30 29 1 1 26
M  V30 30 1 3 27
M  V30 31 1 4 28
M  V30 32 1 7 29
M  V30 33 1 9 30
M  V30 34 1 11 31
M  V30 35 1 12 32
M  V30 36 1 15 33
M  V30 37 1 15 34
M  V30 38 1 16 35 CFG=1
M  V30 39 1 17 36
M  V30 40 1 17 37
M  V30 41 1 18 38
M  V30 42 1 18 39
M  V30 43 1 19 40
M  V30 44 1 20 41
M  V30 45 1 20 42
M  V30 46 1 21 43
M  V30 47 1 23 44
M  V30 48 1 24 45
M  V30 END BOND
M  V30 END CTAB
M  END
>  <Dataset>  (688) 
ChEMBL_Kinases

>  <Ligand_Instance>  (688) 
nan

>  <PDB_ID>  (688) 
nan

>  <Standardized_SMILES>  (688) 
Nc1ccc(-c2cncc3ccc(OC[C@@H]4CCNC4)cc23)cc1

>  <Name>  (688) 
nan

>  <Pocket>  (688) 
nan

>  <ATP_Site>  (688) 
nan

>  <Peripheral>  (688) 
nan

>  <Num_H_Atoms_ProtBoundConf>  (688) 
nan

>  <Num_Resolved_Atoms>  (688) 
nan

>  <Num_Not_Resolved_Atoms>  (688) 
nan

$$$$
CHEMBL4526554
     RDKit          3D

  0  0  0  0  0  0  0  0  0  0999 V3000
M  V30 BEGIN CTAB
M  V30 COUNTS 68 72 0 0 0
M  V30 BEGIN ATOM
M  V30 1 N -0.839076 -4.544195 6.015794 0
M  V30 2 C -0.356807 -3.621873 5.522332 0
M  V30 3 C 0.228453 -2.461676 4.922151 0
M  V30 4 C 1.200622 -1.676099 5.489222 0
M  V30 5 N 1.707049 -0.595911 4.867579 0
M  V30 6 C 1.275503 -0.251053 3.667404 0
M  V30 7 N 1.762014 0.891906 2.932786 0
M  V30 8 C 1.322334 1.155397 1.573554 0
M  V30 9 C 1.904207 2.374035 1.014368 0
M  V30 10 C 2.971454 2.314087 0.136592 0
M  V30 11 C 3.534307 3.466949 -0.355951 0
M  V30 12 C 3.028596 4.699521 0.028975 0
M  V30 13 C 1.946011 4.727460 0.919137 0
M  V30 14 C 1.373811 3.560288 1.419470 0
M  V30 15 O 0.348817 3.883174 2.248962 0
M  V30 16 C -0.965895 4.106793 1.877226 0
M  V30 17 F -0.978972 5.183605 0.974549 0
M  V30 18 F -1.593579 3.033940 1.308092 0
M  V30 19 F -1.703917 4.510613 3.002222 0
M  V30 20 N 0.324484 -1.001874 3.091272 0
M  V30 21 C -0.229718 -2.093646 3.648056 0
M  V30 22 N -1.232118 -2.769602 2.909619 0
M  V30 23 C -1.951227 -2.754028 1.694844 0
M  V30 24 C -1.231387 -3.002907 0.418738 0
M  V30 25 C -0.534772 -4.354421 0.347776 0
M  V30 26 C 0.041556 -4.508849 -1.026809 0
M  V30 27 C -1.051056 -4.493152 -2.100541 0
M  V30 28 C -1.785842 -3.152888 -2.019073 0
M  V30 29 C -2.331748 -3.108847 -0.646113 0
M  V30 30 C -0.764232 -2.118191 -2.357559 0
M  V30 31 N -1.209853 -0.878415 -2.800038 0
M  V30 32 C -2.032321 -0.041757 -2.030373 0
M  V30 33 C -2.335117 1.181396 -2.922204 0
M  V30 34 O -1.135621 1.804045 -3.253912 0
M  V30 35 C 0.302390 -2.081131 -1.314372 0
M  V30 36 C 1.039680 -3.436055 -1.340202 0
M  V30 37 C -0.211834 -1.972085 0.113584 0
M  V30 38 H 1.498211 -2.024780 6.464553 0
M  V30 39 H 2.450493 1.513651 3.442614 0
M  V30 40 H 1.648704 0.307010 0.919615 0
M  V30 41 H 0.229155 1.181368 1.476409 0
M  V30 42 H 3.335732 1.327642 -0.137822 0
M  V30 43 H 4.381133 3.362141 -1.048721 0
M  V30 44 H 3.514092 5.560035 -0.392138 0
M  V30 45 H 1.670435 5.759882 1.120620 0
M  V30 46 H -1.563059 -3.607545 3.488580 0
M  V30 47 H -2.910368 -3.344322 1.737861 0
M  V30 48 H -2.353861 -1.688604 1.589991 0
M  V30 49 H -1.205670 -5.178880 0.600208 0
M  V30 50 H 0.304438 -4.297517 1.052845 0
M  V30 51 H 0.533763 -5.499731 -1.072325 0
M  V30 52 H -0.513951 -4.504068 -3.070699 0
M  V30 53 H -1.717261 -5.352159 -2.014449 0
M  V30 54 H -2.589686 -3.198719 -2.757195 0
M  V30 55 H -2.789540 -4.115866 -0.464832 0
M  V30 56 H -3.149636 -2.404942 -0.444283 0
M  V30 57 H -0.225968 -2.575750 -3.260444 0
M  V30 58 H -0.436327 -0.325133 -3.222379 0
M  V30 59 H -3.029844 -0.420269 -1.770392 0
M  V30 60 H -1.488132 0.436744 -1.167200 0
M  V30 61 H -2.922868 0.845921 -3.803867 0
M  V30 62 H -2.977010 1.901622 -2.377359 0
M  V30 63 H -0.955458 1.654363 -4.235026 0
M  V30 64 H 1.016762 -1.261562 -1.461692 0
M  V30 65 H 1.550704 -3.610815 -2.300283 0
M  V30 66 H 1.761526 -3.375328 -0.478380 0
M  V30 67 H -0.425655 -0.949297 0.427168 0
M  V30 68 H 0.705729 -2.270509 0.716632 0
M  V30 END ATOM
M  V30 BEGIN BOND
M  V30 1 3 1 2
M  V30 2 1 2 3
M  V30 3 2 3 4
M  V30 4 1 4 5
M  V30 5 2 5 6
M  V30 6 1 6 7
M  V30 7 1 7 8
M  V30 8 1 8 9
M  V30 9 2 9 10
M  V30 10 1 10 11
M  V30 11 2 11 12
M  V30 12 1 12 13
M  V30 13 2 13 14
M  V30 14 1 14 15
M  V30 15 1 15 16
M  V30 16 1 16 17
M  V30 17 1 16 18
M  V30 18 1 16 19
M  V30 19 1 6 20
M  V30 20 2 20 21
M  V30 21 1 21 22
M  V30 22 1 22 23
M  V30 23 1 23 24
M  V30 24 1 24 25
M  V30 25 1 25 26
M  V30 26 1 26 27
M  V30 27 1 27 28
M  V30 28 1 28 29
M  V30 29 1 28 30
M  V30 30 1 30 31
M  V30 31 1 31 32
M  V30 32 1 32 33
M  V30 33 1 33 34
M  V30 34 1 30 35
M  V30 35 1 35 36
M  V30 36 1 35 37
M  V30 37 1 21 3
M  V30 38 1 29 24
M  V30 39 1 14 9
M  V30 40 1 37 24
M  V30 41 1 36 26
M  V30 42 1 4 38
M  V30 43 1 7 39
M  V30 44 1 8 40
M  V30 45 1 8 41
M  V30 46 1 10 42
M  V30 47 1 11 43
M  V30 48 1 12 44
M  V30 49 1 13 45
M  V30 50 1 22 46
M  V30 51 1 23 47
M  V30 52 1 23 48
M  V30 53 1 25 49
M  V30 54 1 25 50
M  V30 55 1 26 51
M  V30 56 1 27 52
M  V30 57 1 27 53
M  V30 58 1 28 54
M  V30 59 1 29 55
M  V30 60 1 29 56
M  V30 61 1 30 57
M  V30 62 1 31 58
M  V30 63 1 32 59
M  V30 64 1 32 60
M  V30 65 1 33 61
M  V30 66 1 33 62
M  V30 67 1 34 63
M  V30 68 1 35 64
M  V30 69 1 36 65
M  V30 70 1 36 66
M  V30 71 1 37 67
M  V30 72 1 37 68
M  V30 END BOND
M  V30 END CTAB
M  END
>  <Dataset>  (689) 
ChEMBL_Kinases

>  <Ligand_Instance>  (689) 
nan

>  <PDB_ID>  (689) 
nan

>  <Standardized_SMILES>  (689) 
N#Cc1cnc(NCc2ccccc2OC(F)(F)F)nc1NCC12CC3CC(C1)C(NCCO)C(C3)C2

>  <Name>  (689) 
nan

>  <Pocket>  (689) 
nan

>  <ATP_Site>  (689) 
nan

>  <Peripheral>  (689) 
nan

>  <Num_H_Atoms_ProtBoundConf>  (689) 
nan

>  <Num_Resolved_Atoms>  (689) 
nan

>  <Num_Not_Resolved_Atoms>  (689) 
nan

$$$$
CHEMBL4644348
     RDKit          3D

  0  0  0  0  0  0  0  0  0  0999 V3000
M  V30 BEGIN CTAB
M  V30 COUNTS 57 61 0 0 0
M  V30 BEGIN ATOM
M  V30 1 N 3.080300 -1.743958 3.247256 0
M  V30 2 S 3.937578 -2.200996 1.804772 0
M  V30 3 O 5.148999 -3.010643 2.231695 0
M  V30 4 O 3.066533 -3.071562 0.932991 0
M  V30 5 C 4.403241 -0.776563 0.941510 0
M  V30 6 C 5.633600 -0.252765 1.169253 0
M  V30 7 C 6.024551 0.885406 0.498379 0
M  V30 8 C 5.169831 1.465609 -0.381087 0
M  V30 9 C 3.902288 1.000440 -0.671488 0
M  V30 10 N 2.990764 1.567559 -1.589356 0
M  V30 11 C 1.587375 1.749616 -1.554444 0
M  V30 12 C 0.768456 1.505430 -0.467549 0
M  V30 13 C -0.623867 1.692698 -0.499529 0
M  V30 14 O -1.155530 1.364523 0.735039 0
M  V30 15 C -1.635240 0.117217 1.081689 0
M  V30 16 C -0.970955 -0.530315 2.129903 0
M  V30 17 N -1.561588 -1.717879 2.333372 0
M  V30 18 C -1.292019 -2.787369 3.276158 0
M  V30 19 C -1.845269 -4.126899 3.098071 0
M  V30 20 C -0.448961 -3.927781 2.639402 0
M  V30 21 N -2.545361 -1.822279 1.466811 0
M  V30 22 C -2.634916 -0.741914 0.686394 0
M  V30 23 C -3.560636 -0.408359 -0.400903 0
M  V30 24 C -3.103406 -1.032675 -1.678141 0
M  V30 25 C -4.250306 -1.604570 -2.491218 0
M  V30 26 O -5.016573 -2.523367 -1.812615 0
M  V30 27 C -4.983965 -2.419142 -0.439034 0
M  V30 28 C -4.966185 -0.943802 -0.100409 0
M  V30 29 C -1.165195 2.142356 -1.685907 0
M  V30 30 C -0.317925 2.374919 -2.747827 0
M  V30 31 N 1.006858 2.182128 -2.672874 0
M  V30 32 C 3.540437 -0.158476 0.028602 0
M  V30 33 H 3.643223 -1.122866 3.843006 0
M  V30 34 H 2.757867 -2.620698 3.728062 0
M  V30 35 H 6.338574 -0.700107 1.871004 0
M  V30 36 H 7.019205 1.319097 0.674736 0
M  V30 37 H 5.489315 2.368162 -0.908532 0
M  V30 38 H 3.556936 1.876405 -2.408306 0
M  V30 39 H 1.314895 1.172033 0.409706 0
M  V30 40 H -0.130763 -0.260214 2.754645 0
M  V30 41 H -0.912520 -2.462819 4.272817 0
M  V30 42 H -1.962361 -4.756359 3.986678 0
M  V30 43 H -2.630789 -4.243252 2.311967 0
M  V30 44 H 0.427684 -4.285998 3.202500 0
M  V30 45 H -0.281933 -3.902380 1.552996 0
M  V30 46 H -3.690954 0.703869 -0.489876 0
M  V30 47 H -2.356087 -1.827499 -1.467123 0
M  V30 48 H -2.628055 -0.263795 -2.308287 0
M  V30 49 H -3.775905 -2.152005 -3.338308 0
M  V30 50 H -4.847764 -0.793107 -2.913450 0
M  V30 51 H -4.124346 -2.970057 0.015137 0
M  V30 52 H -5.957661 -2.856504 -0.073280 0
M  V30 53 H -5.232808 -0.819054 0.962981 0
M  V30 54 H -5.684999 -0.454017 -0.791237 0
M  V30 55 H -2.228620 2.247205 -1.592534 0
M  V30 56 H -0.824872 2.723483 -3.637005 0
M  V30 57 H 2.601836 -0.679862 -0.076125 0
M  V30 END ATOM
M  V30 BEGIN BOND
M  V30 1 1 1 2
M  V30 2 2 2 3
M  V30 3 2 2 4
M  V30 4 1 2 5
M  V30 5 2 5 6
M  V30 6 1 6 7
M  V30 7 2 7 8
M  V30 8 1 8 9
M  V30 9 1 9 10
M  V30 10 1 10 11
M  V30 11 2 11 12
M  V30 12 1 12 13
M  V30 13 1 13 14
M  V30 14 1 14 15
M  V30 15 2 15 16
M  V30 16 1 16 17
M  V30 17 1 17 18
M  V30 18 1 18 19
M  V30 19 1 19 20
M  V30 20 1 17 21
M  V30 21 2 21 22
M  V30 22 1 22 23
M  V30 23 1 23 24
M  V30 24 1 24 25
M  V30 25 1 25 26
M  V30 26 1 26 27
M  V30 27 1 27 28
M  V30 28 2 13 29
M  V30 29 1 29 30
M  V30 30 2 30 31
M  V30 31 2 9 32
M  V30 32 1 32 5
M  V30 33 1 31 11
M  V30 34 1 22 15
M  V30 35 1 28 23
M  V30 36 1 20 18
M  V30 37 1 1 33
M  V30 38 1 1 34
M  V30 39 1 6 35
M  V30 40 1 7 36
M  V30 41 1 8 37
M  V30 42 1 10 38
M  V30 43 1 12 39
M  V30 44 1 16 40
M  V30 45 1 18 41
M  V30 46 1 19 42
M  V30 47 1 19 43
M  V30 48 1 20 44
M  V30 49 1 20 45
M  V30 50 1 23 46
M  V30 51 1 24 47
M  V30 52 1 24 48
M  V30 53 1 25 49
M  V30 54 1 25 50
M  V30 55 1 27 51
M  V30 56 1 27 52
M  V30 57 1 28 53
M  V30 58 1 28 54
M  V30 59 1 29 55
M  V30 60 1 30 56
M  V30 61 1 32 57
M  V30 END BOND
M  V30 END CTAB
M  END
>  <Dataset>  (690) 
ChEMBL_Kinases

>  <Ligand_Instance>  (690) 
nan

>  <PDB_ID>  (690) 
nan

>  <Standardized_SMILES>  (690) 
NS(=O)(=O)c1cccc(Nc2cc(Oc3cn(C4CC4)nc3C3CCOCC3)ccn2)c1

>  <Name>  (690) 
nan

>  <Pocket>  (690) 
nan

>  <ATP_Site>  (690) 
nan

>  <Peripheral>  (690) 
nan

>  <Num_H_Atoms_ProtBoundConf>  (690) 
nan

>  <Num_Resolved_Atoms>  (690) 
nan

>  <Num_Not_Resolved_Atoms>  (690) 
nan

$$$$
CHEMBL4644359
     RDKit          3D

  0  0  0  0  0  0  0  0  0  0999 V3000
M  V30 BEGIN CTAB
M  V30 COUNTS 53 57 0 0 0
M  V30 BEGIN ATOM
M  V30 1 C 3.653623 -5.170009 2.834824 0
M  V30 2 C 2.308977 -4.775415 3.324426 0
M  V30 3 O 2.213874 -4.826605 4.716381 0
M  V30 4 C 1.872896 -3.433330 2.900966 0
M  V30 5 C 1.512411 -2.342949 2.535123 0
M  V30 6 C 1.077523 -1.054535 2.077517 0
M  V30 7 C 1.752035 0.132214 2.240559 0
M  V30 8 C 1.268115 1.337243 1.778296 0
M  V30 9 C 0.054029 1.341364 1.125368 0
M  V30 10 N -0.366446 2.617364 0.661627 0
M  V30 11 C -0.448117 2.836263 -0.789597 0
M  V30 12 C 0.549156 3.913189 -1.203700 0
M  V30 13 O 0.074399 5.098213 -0.679019 0
M  V30 14 C -0.068881 5.075465 0.685988 0
M  V30 15 C -0.776372 3.876318 1.241201 0
M  V30 16 C -0.659053 0.182083 0.937782 0
M  V30 17 N -1.891425 0.142627 0.286832 0
M  V30 18 C -2.564385 0.420554 -0.904586 0
M  V30 19 N -3.507719 1.359944 -0.888618 0
M  V30 20 C -4.255799 1.792024 -1.873361 0
M  V30 21 N -4.059371 1.229930 -3.046985 0
M  V30 22 C -3.099014 0.233440 -3.192609 0
M  V30 23 S -2.479582 -0.818095 -4.613163 0
M  V30 24 C -1.196913 -1.762758 -3.578150 0
M  V30 25 C -1.366021 -1.195918 -2.287109 0
M  V30 26 C -2.284082 -0.224438 -2.077477 0
M  V30 27 C -0.143395 -1.032624 1.418294 0
M  V30 28 C 1.307610 -5.793502 2.733146 0
M  V30 29 N 0.729550 -5.835833 1.745062 0
M  V30 30 C -0.128461 -6.745467 1.321857 0
M  V30 31 C -0.353968 -7.801222 2.218122 0
M  V30 32 S 0.759581 -7.331494 3.641271 0
M  V30 33 H 4.443956 -4.548890 3.288730 0
M  V30 34 H 3.833084 -6.213635 3.143487 0
M  V30 35 H 3.705233 -5.003310 1.739606 0
M  V30 36 H 2.579183 -5.713047 4.991917 0
M  V30 37 H 2.690759 0.007049 2.765663 0
M  V30 38 H 1.896751 2.205484 1.970865 0
M  V30 39 H -1.431786 3.162339 -1.124095 0
M  V30 40 H -0.131319 1.930802 -1.343444 0
M  V30 41 H 1.585283 3.663923 -0.970755 0
M  V30 42 H 0.436872 3.987721 -2.311496 0
M  V30 43 H 0.911074 5.222636 1.183843 0
M  V30 44 H -0.730651 5.958847 0.933721 0
M  V30 45 H -0.566450 3.894867 2.353063 0
M  V30 46 H -1.886285 4.012721 1.169014 0
M  V30 47 H -2.611921 -0.258234 0.963551 0
M  V30 48 H -5.028813 2.533137 -1.951269 0
M  V30 49 H -0.474359 -2.568969 -3.880643 0
M  V30 50 H -0.708914 -1.615872 -1.549492 0
M  V30 51 H -0.730197 -1.944522 1.256231 0
M  V30 52 H -0.564283 -6.576017 0.323485 0
M  V30 53 H -1.115925 -8.595058 1.825355 0
M  V30 END ATOM
M  V30 BEGIN BOND
M  V30 1 1 1 2
M  V30 2 1 2 3
M  V30 3 1 2 4
M  V30 4 3 4 5
M  V30 5 1 5 6
M  V30 6 2 6 7
M  V30 7 1 7 8
M  V30 8 2 8 9
M  V30 9 1 9 10
M  V30 10 1 10 11
M  V30 11 1 11 12
M  V30 12 1 12 13
M  V30 13 1 13 14
M  V30 14 1 14 15
M  V30 15 1 9 16
M  V30 16 1 16 17
M  V30 17 1 17 18
M  V30 18 2 18 19
M  V30 19 1 19 20
M  V30 20 2 20 21
M  V30 21 1 21 22
M  V30 22 1 22 23
M  V30 23 1 23 24
M  V30 24 2 24 25
M  V30 25 1 25 26
M  V30 26 2 16 27
M  V30 27 1 2 28
M  V30 28 2 28 29
M  V30 29 1 29 30
M  V30 30 2 30 31
M  V30 31 1 31 32
M  V30 32 1 27 6
M  V30 33 1 32 28
M  V30 34 1 15 10
M  V30 35 1 26 18
M  V30 36 2 26 22
M  V30 37 1 1 33
M  V30 38 1 1 34
M  V30 39 1 1 35
M  V30 40 1 3 36
M  V30 41 1 7 37
M  V30 42 1 8 38
M  V30 43 1 11 39
M  V30 44 1 11 40
M  V30 45 1 12 41
M  V30 46 1 12 42
M  V30 47 1 14 43
M  V30 48 1 14 44
M  V30 49 1 15 45
M  V30 50 1 15 46
M  V30 51 1 17 47
M  V30 52 1 20 48
M  V30 53 1 24 49
M  V30 54 1 25 50
M  V30 55 1 27 51
M  V30 56 1 30 52
M  V30 57 1 31 53
M  V30 END BOND
M  V30 END CTAB
M  END
>  <Dataset>  (691) 
ChEMBL_Kinases

>  <Ligand_Instance>  (691) 
nan

>  <PDB_ID>  (691) 
nan

>  <Standardized_SMILES>  (691) 
CC(O)(C#Cc1ccc(N2CCOCC2)c(Nc2ncnc3sccc23)c1)c1nccs1

>  <Name>  (691) 
nan

>  <Pocket>  (691) 
nan

>  <ATP_Site>  (691) 
nan

>  <Peripheral>  (691) 
nan

>  <Num_H_Atoms_ProtBoundConf>  (691) 
nan

>  <Num_Resolved_Atoms>  (691) 
nan

>  <Num_Not_Resolved_Atoms>  (691) 
nan

$$$$
CHEMBL4644518
     RDKit          3D

  0  0  0  0  0  0  0  0  0  0999 V3000
M  V30 BEGIN CTAB
M  V30 COUNTS 50 53 0 0 0
M  V30 BEGIN ATOM
M  V30 1 C 6.833066 -4.930454 4.924523 0
M  V30 2 O 6.514151 -4.985223 3.547252 0
M  V30 3 C 5.529756 -4.187654 2.986011 0
M  V30 4 C 4.732117 -3.254221 3.617817 0
M  V30 5 C 3.792171 -2.535819 2.923075 0
M  V30 6 C 3.567790 -2.682469 1.561037 0
M  V30 7 N 2.545236 -1.838144 1.054936 0
M  V30 8 C 2.735623 -0.543318 0.504821 0
M  V30 9 O 3.913036 -0.121163 0.458997 0
M  V30 10 C 1.578611 0.203023 0.033973 0
M  V30 11 C 1.695947 1.402322 -0.630472 0
M  V30 12 C 0.599962 2.114127 -1.064365 0
M  V30 13 C -0.699907 1.656145 -0.852872 0
M  V30 14 N -1.890732 2.316245 -1.271853 0
M  V30 15 C -2.621394 1.449063 -2.111782 0
M  V30 16 C -3.785914 1.013572 -1.681666 0
M  V30 17 C -4.550893 1.224040 -0.473487 0
M  V30 18 C -4.635513 2.444317 0.165939 0
M  V30 19 C -5.343253 2.707629 1.318985 0
M  V30 20 C -6.022439 1.648553 1.871848 0
M  V30 21 C -6.020902 0.358046 1.323875 0
M  V30 22 C -5.270723 0.231050 0.166528 0
M  V30 23 C -4.364386 0.137756 -2.708252 0
M  V30 24 O -5.447617 -0.508876 -2.762246 0
M  V30 25 N -3.390433 0.127590 -3.772785 0
M  V30 26 C -2.284078 0.939221 -3.433127 0
M  V30 27 O -1.223545 1.211186 -4.059225 0
M  V30 28 C -0.775398 0.461754 -0.189413 0
M  V30 29 C 0.290836 -0.271758 0.255198 0
M  V30 30 C 4.366557 -3.621058 0.913435 0
M  V30 31 C 5.313651 -4.342284 1.620228 0
M  V30 32 H 6.283439 -5.651271 5.539395 0
M  V30 33 H 7.946224 -5.061699 5.071468 0
M  V30 34 H 6.645310 -3.911609 5.364960 0
M  V30 35 H 4.902561 -3.137608 4.681415 0
M  V30 36 H 3.228435 -1.828130 3.548330 0
M  V30 37 H 1.645081 -2.348135 1.163763 0
M  V30 38 H 2.698796 1.799694 -0.819658 0
M  V30 39 H 0.692822 3.072083 -1.592987 0
M  V30 40 H -1.787290 3.215746 -0.797711 0
M  V30 41 H -4.110485 3.298332 -0.249685 0
M  V30 42 H -5.357160 3.701416 1.759553 0
M  V30 43 H -6.592703 1.839549 2.791451 0
M  V30 44 H -6.551247 -0.455498 1.760647 0
M  V30 45 H -5.275035 -0.770995 -0.247852 0
M  V30 46 H -3.448894 -0.393137 -4.687459 0
M  V30 47 H -1.793999 0.081959 -0.007989 0
M  V30 48 H 0.071102 -1.189274 0.760762 0
M  V30 49 H 4.145981 -3.688557 -0.140689 0
M  V30 50 H 5.877201 -5.037499 1.034614 0
M  V30 END ATOM
M  V30 BEGIN BOND
M  V30 1 1 1 2
M  V30 2 1 2 3
M  V30 3 2 3 4
M  V30 4 1 4 5
M  V30 5 2 5 6
M  V30 6 1 6 7
M  V30 7 1 7 8
M  V30 8 2 8 9
M  V30 9 1 8 10
M  V30 10 2 10 11
M  V30 11 1 11 12
M  V30 12 2 12 13
M  V30 13 1 13 14
M  V30 14 1 14 15
M  V30 15 2 15 16
M  V30 16 1 16 17
M  V30 17 2 17 18
M  V30 18 1 18 19
M  V30 19 2 19 20
M  V30 20 1 20 21
M  V30 21 2 21 22
M  V30 22 1 16 23
M  V30 23 2 23 24
M  V30 24 1 23 25
M  V30 25 1 25 26
M  V30 26 2 26 27
M  V30 27 1 13 28
M  V30 28 2 28 29
M  V30 29 1 6 30
M  V30 30 2 30 31
M  V30 31 1 31 3
M  V30 32 1 29 10
M  V30 33 1 26 15
M  V30 34 1 22 17
M  V30 35 1 1 32
M  V30 36 1 1 33
M  V30 37 1 1 34
M  V30 38 1 4 35
M  V30 39 1 5 36
M  V30 40 1 7 37
M  V30 41 1 11 38
M  V30 42 1 12 39
M  V30 43 1 14 40
M  V30 44 1 18 41
M  V30 45 1 19 42
M  V30 46 1 20 43
M  V30 47 1 21 44
M  V30 48 1 22 45
M  V30 49 1 25 46
M  V30 50 1 28 47
M  V30 51 1 29 48
M  V30 52 1 30 49
M  V30 53 1 31 50
M  V30 END BOND
M  V30 END CTAB
M  END
>  <Dataset>  (692) 
ChEMBL_Kinases

>  <Ligand_Instance>  (692) 
nan

>  <PDB_ID>  (692) 
nan

>  <Standardized_SMILES>  (692) 
COc1ccc(NC(=O)c2ccc(NC3=C(c4ccccc4)C(=O)NC3=O)cc2)cc1

>  <Name>  (692) 
nan

>  <Pocket>  (692) 
nan

>  <ATP_Site>  (692) 
nan

>  <Peripheral>  (692) 
nan

>  <Num_H_Atoms_ProtBoundConf>  (692) 
nan

>  <Num_Resolved_Atoms>  (692) 
nan

>  <Num_Not_Resolved_Atoms>  (692) 
nan

$$$$
CHEMBL4644519
     RDKit          3D

  0  0  0  0  0  0  0  0  0  0999 V3000
M  V30 BEGIN CTAB
M  V30 COUNTS 44 47 0 0 0
M  V30 BEGIN ATOM
M  V30 1 O -3.753612 -3.635562 -0.566269 0
M  V30 2 C -2.526318 -3.905520 -0.495584 0
M  V30 3 N -2.067332 -5.233757 -0.600198 0
M  V30 4 C -2.899846 -6.392901 -0.791449 0
M  V30 5 C -2.471158 -7.735409 -0.340469 0
M  V30 6 C -2.394207 -7.417340 -1.804915 0
M  V30 7 C -1.627133 -2.772977 -0.301749 0
M  V30 8 C -2.164400 -1.503448 -0.209932 0
M  V30 9 C -1.392658 -0.357045 -0.024990 0
M  V30 10 C -0.020209 -0.481810 0.073114 0
M  V30 11 C 0.944832 0.595606 0.266271 0
M  V30 12 C 2.134348 0.714065 -0.447399 0
M  V30 13 N 2.800157 1.813956 -0.033545 0
M  V30 14 C 2.048905 2.384081 0.924680 0
M  V30 15 C 2.316706 3.533773 1.647634 0
M  V30 16 N 3.507927 4.277494 1.424148 0
M  V30 17 C 3.761673 5.477577 2.196495 0
M  V30 18 C 3.832717 5.203648 3.671024 0
M  V30 19 O 4.871041 4.290748 3.949768 0
M  V30 20 N 1.400656 3.904563 2.560753 0
M  V30 21 C 0.279493 3.165594 2.739800 0
M  V30 22 C 0.016696 2.019802 2.016504 0
M  V30 23 N 0.935017 1.651185 1.103563 0
M  V30 24 C 0.512562 -1.753170 -0.019273 0
M  V30 25 C -0.254030 -2.886788 -0.202433 0
M  V30 26 H -1.050114 -5.458779 -0.541789 0
M  V30 27 H -3.986007 -6.181336 -0.856938 0
M  V30 28 H -3.292370 -8.442785 -0.089518 0
M  V30 29 H -1.566935 -7.861968 0.268286 0
M  V30 30 H -3.099329 -7.878966 -2.506214 0
M  V30 31 H -1.353355 -7.332314 -2.175847 0
M  V30 32 H -3.214812 -1.296761 -0.273145 0
M  V30 33 H -1.775816 0.635759 0.049822 0
M  V30 34 H 2.532627 0.076020 -1.219635 0
M  V30 35 H 4.177193 3.944288 0.707373 0
M  V30 36 H 4.685642 5.982539 1.877682 0
M  V30 37 H 2.946209 6.224769 2.050331 0
M  V30 38 H 2.875218 4.920398 4.124544 0
M  V30 39 H 4.152994 6.142313 4.180879 0
M  V30 40 H 5.169744 3.833423 3.122327 0
M  V30 41 H -0.496493 3.430748 3.474751 0
M  V30 42 H -0.883341 1.440363 2.171119 0
M  V30 43 H 1.591311 -1.939415 0.048507 0
M  V30 44 H 0.193692 -3.865482 -0.270499 0
M  V30 END ATOM
M  V30 BEGIN BOND
M  V30 1 2 1 2
M  V30 2 1 2 3
M  V30 3 1 3 4
M  V30 4 1 4 5
M  V30 5 1 5 6
M  V30 6 1 2 7
M  V30 7 2 7 8
M  V30 8 1 8 9
M  V30 9 2 9 10
M  V30 10 1 10 11
M  V30 11 2 11 12
M  V30 12 1 12 13
M  V30 13 2 13 14
M  V30 14 1 14 15
M  V30 15 1 15 16
M  V30 16 1 16 17
M  V30 17 1 17 18
M  V30 18 1 18 19
M  V30 19 2 15 20
M  V30 20 1 20 21
M  V30 21 2 21 22
M  V30 22 1 22 23
M  V30 23 1 10 24
M  V30 24 2 24 25
M  V30 25 1 6 4
M  V30 26 1 25 7
M  V30 27 1 23 11
M  V30 28 1 23 14
M  V30 29 1 3 26
M  V30 30 1 4 27
M  V30 31 1 5 28
M  V30 32 1 5 29
M  V30 33 1 6 30
M  V30 34 1 6 31
M  V30 35 1 8 32
M  V30 36 1 9 33
M  V30 37 1 12 34
M  V30 38 1 16 35
M  V30 39 1 17 36
M  V30 40 1 17 37
M  V30 41 1 18 38
M  V30 42 1 18 39
M  V30 43 1 19 40
M  V30 44 1 21 41
M  V30 45 1 22 42
M  V30 46 1 24 43
M  V30 47 1 25 44
M  V30 END BOND
M  V30 END CTAB
M  END
>  <Dataset>  (693) 
ChEMBL_Kinases

>  <Ligand_Instance>  (693) 
nan

>  <PDB_ID>  (693) 
nan

>  <Standardized_SMILES>  (693) 
O=C(NC1CC1)c1ccc(-c2cnc3c(NCCO)nccn23)cc1

>  <Name>  (693) 
nan

>  <Pocket>  (693) 
nan

>  <ATP_Site>  (693) 
nan

>  <Peripheral>  (693) 
nan

>  <Num_H_Atoms_ProtBoundConf>  (693) 
nan

>  <Num_Resolved_Atoms>  (693) 
nan

>  <Num_Not_Resolved_Atoms>  (693) 
nan

$$$$
CHEMBL4526423
     RDKit          3D

  0  0  0  0  0  0  0  0  0  0999 V3000
M  V30 BEGIN CTAB
M  V30 COUNTS 57 62 0 0 0
M  V30 BEGIN ATOM
M  V30 1 C 2.778767 -1.482621 2.266896 0
M  V30 2 C 2.597600 0.006265 2.158992 0
M  V30 3 C 3.633470 0.900766 2.087526 0
M  V30 4 N 3.360282 2.219818 1.992577 0
M  V30 5 C 4.520094 3.045826 1.925415 0
M  V30 6 C 5.362715 2.880493 0.820087 0
M  V30 7 Cl 4.975857 1.686126 -0.425896 0
M  V30 8 C 6.519858 3.630850 0.651429 0
M  V30 9 C 6.861691 4.577431 1.602289 0
M  V30 10 C 6.036265 4.749717 2.699300 0
M  V30 11 C 4.888797 4.000165 2.859024 0
M  V30 12 Cl 3.826378 4.204664 4.247075 0
M  V30 13 C 2.098204 2.688074 1.965624 0
M  V30 14 O 1.917664 3.929919 1.875801 0
M  V30 15 C 1.036493 1.810612 2.035987 0
M  V30 16 C -0.259017 2.238183 2.012264 0
M  V30 17 N -1.285967 1.360429 2.082510 0
M  V30 18 C -1.023093 0.032664 2.178153 0
M  V30 19 N -1.968091 -1.025926 2.261242 0
M  V30 20 C -2.427366 -1.621724 1.053128 0
M  V30 21 C -1.983908 -1.201424 -0.184212 0
M  V30 22 C -2.416519 -1.765790 -1.369770 0
M  V30 23 C -3.335960 -2.801392 -1.349472 0
M  V30 24 C -3.778706 -3.220873 -0.112021 0
M  V30 25 C -3.345725 -2.656307 1.070354 0
M  V30 26 C -4.778266 -4.346050 -0.080209 0
M  V30 27 N -4.647850 -5.175313 -1.263032 0
M  V30 28 C -3.389395 -5.894845 -1.279382 0
M  V30 29 C -4.837821 -4.384143 -2.450760 0
M  V30 30 C -3.761559 -3.365134 -2.650399 0
M  V30 31 C -2.688929 -3.538165 -3.653790 0
M  V30 32 C -3.794381 -2.524647 -3.867516 0
M  V30 33 N 0.250431 -0.434100 2.204870 0
M  V30 34 C 1.281023 0.455866 2.133716 0
M  V30 35 H 3.781226 -1.671565 2.666979 0
M  V30 36 H 2.811864 -1.834405 1.204990 0
M  V30 37 H 1.964354 -1.954164 2.815657 0
M  V30 38 H 4.622900 0.465669 2.113646 0
M  V30 39 H 7.173378 3.510682 -0.194734 0
M  V30 40 H 7.769127 5.176871 1.485250 0
M  V30 41 H 6.302392 5.487031 3.440077 0
M  V30 42 H -0.473090 3.291620 1.936391 0
M  V30 43 H -2.332454 -1.377674 3.159110 0
M  V30 44 H -1.265309 -0.388522 -0.145465 0
M  V30 45 H -1.990242 -1.343609 -2.277384 0
M  V30 46 H -3.726150 -3.024743 2.010098 0
M  V30 47 H -4.605424 -4.971437 0.820569 0
M  V30 48 H -5.800991 -3.961148 -0.025773 0
M  V30 49 H -3.229443 -6.235931 -2.338769 0
M  V30 50 H -3.399162 -6.798260 -0.650425 0
M  V30 51 H -2.590717 -5.218009 -0.934789 0
M  V30 52 H -4.945088 -5.041490 -3.335372 0
M  V30 53 H -5.808257 -3.848046 -2.316902 0
M  V30 54 H -2.606430 -4.426969 -4.285727 0
M  V30 55 H -1.698548 -3.042202 -3.448864 0
M  V30 56 H -3.574417 -1.446349 -3.863375 0
M  V30 57 H -4.540541 -2.840519 -4.641898 0
M  V30 END ATOM
M  V30 BEGIN BOND
M  V30 1 1 1 2
M  V30 2 2 2 3
M  V30 3 1 3 4
M  V30 4 1 4 5
M  V30 5 2 5 6
M  V30 6 1 6 7
M  V30 7 1 6 8
M  V30 8 2 8 9
M  V30 9 1 9 10
M  V30 10 2 10 11
M  V30 11 1 11 12
M  V30 12 1 4 13
M  V30 13 2 13 14
M  V30 14 1 13 15
M  V30 15 2 15 16
M  V30 16 1 16 17
M  V30 17 2 17 18
M  V30 18 1 18 19
M  V30 19 1 19 20
M  V30 20 2 20 21
M  V30 21 1 21 22
M  V30 22 2 22 23
M  V30 23 1 23 24
M  V30 24 2 24 25
M  V30 25 1 24 26
M  V30 26 1 26 27
M  V30 27 1 27 28
M  V30 28 1 27 29
M  V30 29 1 29 30
M  V30 30 1 30 31
M  V30 31 1 31 32
M  V30 32 1 18 33
M  V30 33 2 33 34
M  V30 34 1 34 2
M  V30 35 1 11 5
M  V30 36 1 34 15
M  V30 37 1 25 20
M  V30 38 1 32 30
M  V30 39 1 30 23
M  V30 40 1 1 35
M  V30 41 1 1 36
M  V30 42 1 1 37
M  V30 43 1 3 38
M  V30 44 1 8 39
M  V30 45 1 9 40
M  V30 46 1 10 41
M  V30 47 1 16 42
M  V30 48 1 19 43
M  V30 49 1 21 44
M  V30 50 1 22 45
M  V30 51 1 25 46
M  V30 52 1 26 47
M  V30 53 1 26 48
M  V30 54 1 28 49
M  V30 55 1 28 50
M  V30 56 1 28 51
M  V30 57 1 29 52
M  V30 58 1 29 53
M  V30 59 1 31 54
M  V30 60 1 31 55
M  V30 61 1 32 56
M  V30 62 1 32 57
M  V30 END BOND
M  V30 END CTAB
M  END
>  <Dataset>  (694) 
ChEMBL_Kinases

>  <Ligand_Instance>  (694) 
nan

>  <PDB_ID>  (694) 
nan

>  <Standardized_SMILES>  (694) 
Cc1cn(-c2c(Cl)cccc2Cl)c(=O)c2cnc(Nc3ccc4c(c3)CN(C)CC43CC3)nc12

>  <Name>  (694) 
nan

>  <Pocket>  (694) 
nan

>  <ATP_Site>  (694) 
nan

>  <Peripheral>  (694) 
nan

>  <Num_H_Atoms_ProtBoundConf>  (694) 
nan

>  <Num_Resolved_Atoms>  (694) 
nan

>  <Num_Not_Resolved_Atoms>  (694) 
nan

$$$$
CHEMBL4644571
     RDKit          3D

  0  0  0  0  0  0  0  0  0  0999 V3000
M  V30 BEGIN CTAB
M  V30 COUNTS 69 72 0 0 0
M  V30 BEGIN ATOM
M  V30 1 C 2.747539 -4.041332 6.448588 0
M  V30 2 O 2.386631 -2.768786 6.937603 0
M  V30 3 C 2.211786 -1.671673 6.102361 0
M  V30 4 C 2.382265 -1.764225 4.737476 0
M  V30 5 C 2.213020 -0.676603 3.871802 0
M  V30 6 C 2.443725 -0.995658 2.466553 0
M  V30 7 C 3.587835 -1.746774 2.172284 0
M  V30 8 N 3.956417 -2.133600 0.923728 0
M  V30 9 C 3.157421 -1.765776 -0.118826 0
M  V30 10 C 2.002896 -1.014056 0.128277 0
M  V30 11 C 1.198526 -0.657459 -1.033520 0
M  V30 12 C 0.960485 -1.701127 -1.901000 0
M  V30 13 C 0.224408 -1.574075 -3.060049 0
M  V30 14 C -0.318633 -0.359736 -3.406215 0
M  V30 15 N -1.096384 -0.095434 -4.566938 0
M  V30 16 C -1.657754 1.167938 -4.989553 0
M  V30 17 C -3.155251 1.132014 -4.780837 0
M  V30 18 N -3.659282 -0.164982 -5.143037 0
M  V30 19 C -3.995642 -0.990000 -4.022646 0
M  V30 20 C -4.517168 -2.331151 -4.453979 0
M  V30 21 C -5.056377 -0.250176 -3.207907 0
M  V30 22 C -2.804479 -0.844041 -6.098028 0
M  V30 23 C -1.433242 -1.153453 -5.518954 0
M  V30 24 C -0.081677 0.686482 -2.539556 0
M  V30 25 C 0.654188 0.561223 -1.380121 0
M  V30 26 C 1.654926 -0.637836 1.394314 0
M  V30 27 C 0.454845 0.143299 1.684282 0
M  V30 28 C 1.859642 0.523631 4.452297 0
M  V30 29 C 1.693506 0.597240 5.818888 0
M  V30 30 O 1.337887 1.818583 6.372620 0
M  V30 31 C 1.166665 2.915071 5.500297 0
M  V30 32 C 1.858234 -0.469044 6.678620 0
M  V30 33 O 1.688983 -0.379209 8.038179 0
M  V30 34 C 0.457507 -0.600967 8.697899 0
M  V30 35 H 2.157028 -4.360828 5.558733 0
M  V30 36 H 3.855233 -4.083496 6.257184 0
M  V30 37 H 2.524279 -4.786450 7.240624 0
M  V30 38 H 2.659253 -2.750691 4.383652 0
M  V30 39 H 4.278214 -2.079132 2.959371 0
M  V30 40 H 3.469892 -2.087102 -1.124076 0
M  V30 41 H 1.342646 -2.717737 -1.730947 0
M  V30 42 H 0.049503 -2.404648 -3.726880 0
M  V30 43 H -1.510388 1.328378 -6.096964 0
M  V30 44 H -1.213772 2.051009 -4.506574 0
M  V30 45 H -3.633736 1.916497 -5.433874 0
M  V30 46 H -3.449937 1.345630 -3.742673 0
M  V30 47 H -3.146052 -1.158457 -3.316457 0
M  V30 48 H -3.721505 -3.068762 -4.654449 0
M  V30 49 H -5.219389 -2.777493 -3.725307 0
M  V30 50 H -5.089342 -2.198655 -5.409881 0
M  V30 51 H -4.621630 0.352652 -2.401368 0
M  V30 52 H -5.663985 0.344161 -3.913476 0
M  V30 53 H -5.718781 -1.022206 -2.774301 0
M  V30 54 H -3.292509 -1.811460 -6.332122 0
M  V30 55 H -2.735390 -0.282462 -7.050856 0
M  V30 56 H -1.489779 -2.126193 -5.026109 0
M  V30 57 H -0.713445 -1.165650 -6.360281 0
M  V30 58 H -0.435914 1.712135 -2.659014 0
M  V30 59 H 0.865412 1.353547 -0.675611 0
M  V30 60 H -0.344901 -0.091558 0.928312 0
M  V30 61 H 0.561872 1.225465 1.684522 0
M  V30 62 H 0.007129 -0.241078 2.646792 0
M  V30 63 H 1.742885 1.326386 3.755360 0
M  V30 64 H 2.090197 3.264262 5.020051 0
M  V30 65 H 0.452741 2.658374 4.664791 0
M  V30 66 H 0.656122 3.773325 6.017329 0
M  V30 67 H 0.395871 -1.668609 9.004501 0
M  V30 68 H -0.425358 -0.424885 8.064724 0
M  V30 69 H 0.402926 0.091645 9.574695 0
M  V30 END ATOM
M  V30 BEGIN BOND
M  V30 1 1 1 2
M  V30 2 1 2 3
M  V30 3 2 3 4
M  V30 4 1 4 5
M  V30 5 1 5 6
M  V30 6 2 6 7
M  V30 7 1 7 8
M  V30 8 2 8 9
M  V30 9 1 9 10
M  V30 10 1 10 11
M  V30 11 2 11 12
M  V30 12 1 12 13
M  V30 13 2 13 14
M  V30 14 1 14 15
M  V30 15 1 15 16
M  V30 16 1 16 17
M  V30 17 1 17 18
M  V30 18 1 18 19
M  V30 19 1 19 20
M  V30 20 1 19 21
M  V30 21 1 18 22
M  V30 22 1 22 23
M  V30 23 1 14 24
M  V30 24 2 24 25
M  V30 25 2 10 26
M  V30 26 1 26 27
M  V30 27 2 5 28
M  V30 28 1 28 29
M  V30 29 1 29 30
M  V30 30 1 30 31
M  V30 31 2 29 32
M  V30 32 1 32 33
M  V30 33 1 33 34
M  V30 34 1 32 3
M  V30 35 1 26 6
M  V30 36 1 25 11
M  V30 37 1 23 15
M  V30 38 1 1 35
M  V30 39 1 1 36
M  V30 40 1 1 37
M  V30 41 1 4 38
M  V30 42 1 7 39
M  V30 43 1 9 40
M  V30 44 1 12 41
M  V30 45 1 13 42
M  V30 46 1 16 43
M  V30 47 1 16 44
M  V30 48 1 17 45
M  V30 49 1 17 46
M  V30 50 1 19 47
M  V30 51 1 20 48
M  V30 52 1 20 49
M  V30 53 1 20 50
M  V30 54 1 21 51
M  V30 55 1 21 52
M  V30 56 1 21 53
M  V30 57 1 22 54
M  V30 58 1 22 55
M  V30 59 1 23 56
M  V30 60 1 23 57
M  V30 61 1 24 58
M  V30 62 1 25 59
M  V30 63 1 27 60
M  V30 64 1 27 61
M  V30 65 1 27 62
M  V30 66 1 28 63
M  V30 67 1 31 64
M  V30 68 1 31 65
M  V30 69 1 31 66
M  V30 70 1 34 67
M  V30 71 1 34 68
M  V30 72 1 34 69
M  V30 END BOND
M  V30 END CTAB
M  END
>  <Dataset>  (695) 
ChEMBL_Kinases

>  <Ligand_Instance>  (695) 
nan

>  <PDB_ID>  (695) 
nan

>  <Standardized_SMILES>  (695) 
COc1cc(-c2cncc(-c3ccc(N4CCN(C(C)C)CC4)cc3)c2C)cc(OC)c1OC

>  <Name>  (695) 
nan

>  <Pocket>  (695) 
nan

>  <ATP_Site>  (695) 
nan

>  <Peripheral>  (695) 
nan

>  <Num_H_Atoms_ProtBoundConf>  (695) 
nan

>  <Num_Resolved_Atoms>  (695) 
nan

>  <Num_Not_Resolved_Atoms>  (695) 
nan

$$$$
CHEMBL4526375
     RDKit          3D

  0  0  0  0  0  0  0  0  0  0999 V3000
M  V30 BEGIN CTAB
M  V30 COUNTS 44 48 0 0 0
M  V30 BEGIN ATOM
M  V30 1 O 4.938335 -0.305845 -4.033876 0
M  V30 2 C 4.351760 -0.367607 -2.922802 0
M  V30 3 N 4.592922 -1.438272 -2.025080 0
M  V30 4 C 5.514846 -2.521852 -2.312798 0
M  V30 5 C 5.470913 -3.448657 -1.089212 0
M  V30 6 F 6.304750 -4.525701 -1.229287 0
M  V30 7 F 5.884021 -2.750961 0.045573 0
M  V30 8 F 4.172159 -3.843676 -0.861248 0
M  V30 9 C 3.422758 0.714404 -2.621201 0
M  V30 10 C 2.646804 0.966372 -1.564216 0
M  V30 11 C 1.838337 2.068368 -1.500088 0
M  V30 12 C 0.965836 2.409618 -0.382995 0
M  V30 13 C 0.818248 3.651432 0.198294 0
M  V30 14 N -0.096330 3.445150 1.182911 0
M  V30 15 N -0.476608 2.164291 1.196452 0
M  V30 16 C -1.355129 1.503136 1.989033 0
M  V30 17 C -1.572161 0.141306 1.787908 0
M  V30 18 C -2.494324 -0.679006 2.578864 0
M  V30 19 C -3.152669 -1.772686 2.003871 0
M  V30 20 C -4.010334 -2.512163 2.794319 0
M  V30 21 C -4.178050 -2.138891 4.112370 0
M  V30 22 C -4.980952 -2.734105 5.070628 0
M  V30 23 C -4.804077 -1.996157 6.223025 0
M  V30 24 O -3.967242 -1.041469 5.975348 0
M  V30 25 C -3.552937 -1.067640 4.731948 0
M  V30 26 C -2.697837 -0.348597 3.902758 0
M  V30 27 C -0.901835 -0.548015 0.787769 0
M  V30 28 N -0.041337 0.158603 0.030994 0
M  V30 29 C 0.161602 1.473526 0.232825 0
M  V30 30 C 1.905903 2.907445 -2.655894 0
M  V30 31 S 3.164379 1.986339 -3.737022 0
M  V30 32 H 4.032448 -1.367179 -1.123782 0
M  V30 33 H 5.216811 -3.136472 -3.182340 0
M  V30 34 H 6.530369 -2.175168 -2.513169 0
M  V30 35 H 2.688546 0.246257 -0.748128 0
M  V30 36 H 1.319803 4.559211 -0.078527 0
M  V30 37 H -1.900720 1.978140 2.774557 0
M  V30 38 H -2.991080 -2.020996 0.983718 0
M  V30 39 H -4.543346 -3.367709 2.395815 0
M  V30 40 H -5.645719 -3.595739 5.035406 0
M  V30 41 H -5.246119 -2.116508 7.216608 0
M  V30 42 H -2.198711 0.500271 4.383733 0
M  V30 43 H -1.011305 -1.600254 0.565390 0
M  V30 44 H 1.275156 3.876637 -2.740865 0
M  V30 END ATOM
M  V30 BEGIN BOND
M  V30 1 2 1 2
M  V30 2 1 2 3
M  V30 3 1 3 4
M  V30 4 1 4 5
M  V30 5 1 5 6
M  V30 6 1 5 7
M  V30 7 1 5 8
M  V30 8 1 2 9
M  V30 9 2 9 10
M  V30 10 1 10 11
M  V30 11 1 11 12
M  V30 12 1 12 13
M  V30 13 2 13 14
M  V30 14 1 14 15
M  V30 15 1 15 16
M  V30 16 2 16 17
M  V30 17 1 17 18
M  V30 18 2 18 19
M  V30 19 1 19 20
M  V30 20 2 20 21
M  V30 21 1 21 22
M  V30 22 2 22 23
M  V30 23 1 23 24
M  V30 24 1 24 25
M  V30 25 2 25 26
M  V30 26 1 17 27
M  V30 27 2 27 28
M  V30 28 1 28 29
M  V30 29 2 11 30
M  V30 30 1 30 31
M  V30 31 1 31 9
M  V30 32 2 29 12
M  V30 33 1 29 15
M  V30 34 1 26 18
M  V30 35 1 25 21
M  V30 36 1 3 32
M  V30 37 1 4 33
M  V30 38 1 4 34
M  V30 39 1 10 35
M  V30 40 1 13 36
M  V30 41 1 16 37
M  V30 42 1 19 38
M  V30 43 1 20 39
M  V30 44 1 22 40
M  V30 45 1 23 41
M  V30 46 1 26 42
M  V30 47 1 27 43
M  V30 48 1 30 44
M  V30 END BOND
M  V30 END CTAB
M  END
>  <Dataset>  (696) 
ChEMBL_Kinases

>  <Ligand_Instance>  (696) 
nan

>  <PDB_ID>  (696) 
nan

>  <Standardized_SMILES>  (696) 
O=C(NCC(F)(F)F)c1cc(-c2cnn3cc(-c4ccc5ccoc5c4)cnc23)cs1

>  <Name>  (696) 
nan

>  <Pocket>  (696) 
nan

>  <ATP_Site>  (696) 
nan

>  <Peripheral>  (696) 
nan

>  <Num_H_Atoms_ProtBoundConf>  (696) 
nan

>  <Num_Resolved_Atoms>  (696) 
nan

>  <Num_Not_Resolved_Atoms>  (696) 
nan

$$$$
CHEMBL4526693
     RDKit          3D

  0  0  0  0  0  0  0  0  0  0999 V3000
M  V30 BEGIN CTAB
M  V30 COUNTS 61 66 0 0 0
M  V30 BEGIN ATOM
M  V30 1 C 3.233735 -0.339745 5.582419 0
M  V30 2 O 2.870177 -0.933566 4.377023 0
M  V30 3 C 3.639061 -0.913765 3.228043 0
M  V30 4 O 4.740508 -0.285378 3.376796 0
M  V30 5 C 3.397177 -1.492417 1.879202 0
M  V30 6 C 2.205385 -0.940320 1.239719 0
M  V30 7 C 1.079773 -0.848416 2.053072 0
M  V30 8 C -0.125578 -0.348104 1.594013 0
M  V30 9 C -0.277264 0.098979 0.264769 0
M  V30 10 N -1.475684 0.565161 -0.273098 0
M  V30 11 C -2.047343 1.728064 -0.381104 0
M  V30 12 C -1.682802 3.050302 0.012569 0
M  V30 13 C -2.551324 4.083529 -0.268234 0
M  V30 14 C -2.296101 5.389463 0.066337 0
M  V30 15 C -1.155145 5.791448 0.710803 0
M  V30 16 N -0.305122 4.791062 0.987345 0
M  V30 17 C -0.577025 3.526915 0.650721 0
M  V30 18 N 0.455924 2.670806 1.043428 0
M  V30 19 N -3.196777 1.454659 -1.009543 0
M  V30 20 C -3.336480 0.158844 -1.284723 0
M  V30 21 C -4.417224 -0.427031 -1.927431 0
M  V30 22 C -4.327742 -1.805578 -2.099126 0
M  V30 23 C -3.201428 -2.441281 -1.625734 0
M  V30 24 C -3.008151 -3.880326 -1.754106 0
M  V30 25 C -1.869078 -4.476755 -1.268048 0
M  V30 26 C -1.587561 -5.827649 -1.337481 0
M  V30 27 C -2.537076 -6.639428 -1.948761 0
M  V30 28 C -3.694791 -6.078646 -2.449913 0
M  V30 29 C -3.908838 -4.736193 -2.347515 0
M  V30 30 N -2.211014 -1.769072 -1.015404 0
M  V30 31 C -2.203500 -0.440023 -0.802052 0
M  V30 32 C 0.853647 0.001222 -0.534437 0
M  V30 33 C 2.044914 -0.500054 -0.058237 0
M  V30 34 C 4.618171 -1.679941 1.046353 0
M  V30 35 C 4.229219 -3.123809 0.794449 0
M  V30 36 C 3.356990 -3.023190 2.053646 0
M  V30 37 H 2.389765 0.245674 5.967725 0
M  V30 38 H 3.440865 -1.143863 6.313018 0
M  V30 39 H 4.079372 0.381981 5.485046 0
M  V30 40 H 0.961729 -1.124896 3.078735 0
M  V30 41 H -1.048577 -0.238490 2.147637 0
M  V30 42 H -3.506444 3.910724 -0.781848 0
M  V30 43 H -3.035435 6.126125 -0.195105 0
M  V30 44 H -1.040125 6.821756 0.930661 0
M  V30 45 H 1.481018 2.495093 1.004610 0
M  V30 46 H 1.464308 2.462944 1.027507 0
M  V30 47 H -5.254095 0.154596 -2.262093 0
M  V30 48 H -5.124331 -2.343057 -2.589604 0
M  V30 49 H -1.105170 -3.885207 -0.786139 0
M  V30 50 H -0.682052 -6.268934 -0.945953 0
M  V30 51 H -2.382637 -7.699908 -2.036823 0
M  V30 52 H -4.426770 -6.721365 -2.923565 0
M  V30 53 H -4.820556 -4.338316 -2.749028 0
M  V30 54 H 0.807418 0.324786 -1.560432 0
M  V30 55 H 2.884631 -0.560308 -0.697216 0
M  V30 56 H 4.627579 -1.010683 0.172671 0
M  V30 57 H 5.579255 -1.583763 1.602886 0
M  V30 58 H 5.033994 -3.867944 0.842045 0
M  V30 59 H 3.585442 -3.294239 -0.070433 0
M  V30 60 H 2.366012 -3.474098 1.972769 0
M  V30 61 H 3.965356 -3.388988 2.912600 0
M  V30 END ATOM
M  V30 BEGIN BOND
M  V30 1 1 1 2
M  V30 2 1 2 3
M  V30 3 2 3 4
M  V30 4 1 3 5
M  V30 5 1 5 6
M  V30 6 2 6 7
M  V30 7 1 7 8
M  V30 8 2 8 9
M  V30 9 1 9 10
M  V30 10 1 10 11
M  V30 11 1 11 12
M  V30 12 2 12 13
M  V30 13 1 13 14
M  V30 14 2 14 15
M  V30 15 1 15 16
M  V30 16 2 16 17
M  V30 17 1 17 18
M  V30 18 2 11 19
M  V30 19 1 19 20
M  V30 20 2 20 21
M  V30 21 1 21 22
M  V30 22 2 22 23
M  V30 23 1 23 24
M  V30 24 2 24 25
M  V30 25 1 25 26
M  V30 26 2 26 27
M  V30 27 1 27 28
M  V30 28 2 28 29
M  V30 29 1 23 30
M  V30 30 2 30 31
M  V30 31 1 9 32
M  V30 32 2 32 33
M  V30 33 1 5 34
M  V30 34 1 34 35
M  V30 35 1 35 36
M  V30 36 1 36 5
M  V30 37 1 33 6
M  V30 38 1 31 10
M  V30 39 1 17 12
M  V30 40 1 31 20
M  V30 41 1 29 24
M  V30 42 1 1 37
M  V30 43 1 1 38
M  V30 44 1 1 39
M  V30 45 1 7 40
M  V30 46 1 8 41
M  V30 47 1 13 42
M  V30 48 1 14 43
M  V30 49 1 15 44
M  V30 50 1 18 45
M  V30 51 1 18 46
M  V30 52 1 21 47
M  V30 53 1 22 48
M  V30 54 1 25 49
M  V30 55 1 26 50
M  V30 56 1 27 51
M  V30 57 1 28 52
M  V30 58 1 29 53
M  V30 59 1 32 54
M  V30 60 1 33 55
M  V30 61 1 34 56
M  V30 62 1 34 57
M  V30 63 1 35 58
M  V30 64 1 35 59
M  V30 65 1 36 60
M  V30 66 1 36 61
M  V30 END BOND
M  V30 END CTAB
M  END
>  <Dataset>  (697) 
ChEMBL_Kinases

>  <Ligand_Instance>  (697) 
nan

>  <PDB_ID>  (697) 
nan

>  <Standardized_SMILES>  (697) 
COC(=O)C1(c2ccc(-n3c(-c4cccnc4N)nc4ccc(-c5ccccc5)nc43)cc2)CCC1

>  <Name>  (697) 
nan

>  <Pocket>  (697) 
nan

>  <ATP_Site>  (697) 
nan

>  <Peripheral>  (697) 
nan

>  <Num_H_Atoms_ProtBoundConf>  (697) 
nan

>  <Num_Resolved_Atoms>  (697) 
nan

>  <Num_Not_Resolved_Atoms>  (697) 
nan

$$$$
CHEMBL4645772
     RDKit          3D

  0  0  0  0  0  0  0  0  0  0999 V3000
M  V30 BEGIN CTAB
M  V30 COUNTS 47 51 0 0 0
M  V30 BEGIN ATOM
M  V30 1 C 3.704134 -6.277901 3.476757 0
M  V30 2 O 3.294116 -5.597139 2.305420 0
M  V30 3 C 3.870569 -4.364226 2.011341 0
M  V30 4 C 4.825752 -3.757840 2.797731 0
M  V30 5 C 5.409391 -2.546760 2.532991 0
M  V30 6 C 4.971278 -1.930735 1.380070 0
M  V30 7 C 4.011529 -2.454631 0.514502 0
M  V30 8 C 3.627384 -1.691872 -0.690288 0
M  V30 9 N 2.500107 -0.791705 -0.412025 0
M  V30 10 N 2.676892 0.465294 0.020341 0
M  V30 11 C 1.630890 1.273210 0.272769 0
M  V30 12 C 0.308460 0.865799 0.104944 0
M  V30 13 C -0.757690 1.705678 0.367975 0
M  V30 14 C -2.005836 1.155698 0.152983 0
M  V30 15 C -3.193646 1.966287 0.405132 0
M  V30 16 C -3.176432 2.935603 1.415827 0
M  V30 17 C -4.256404 3.734891 1.708907 0
M  V30 18 C -5.375005 3.535284 0.949935 0
M  V30 19 N -6.588532 4.157500 0.993479 0
M  V30 20 N -7.387005 3.632568 0.055985 0
M  V30 21 C -6.749996 2.666631 -0.628082 0
M  V30 22 C -5.494597 2.610279 -0.065650 0
M  V30 23 C -4.370721 1.844387 -0.302467 0
M  V30 24 C -2.257480 -0.127316 -0.290410 0
M  V30 25 C -1.142165 -0.936375 -0.541754 0
M  V30 26 C 0.150121 -0.437051 -0.342814 0
M  V30 27 C 1.252820 -1.261617 -0.599720 0
M  V30 28 O 0.978967 -2.432449 -1.004867 0
M  V30 29 C 3.487543 -3.674308 0.868930 0
M  V30 30 H 3.603111 -5.668454 4.377482 0
M  V30 31 H 3.079157 -7.204387 3.528832 0
M  V30 32 H 4.760646 -6.608818 3.311080 0
M  V30 33 H 5.151253 -4.278100 3.710516 0
M  V30 34 H 6.154225 -2.102230 3.171416 0
M  V30 35 H 5.396416 -0.957965 1.105570 0
M  V30 36 H 4.482677 -1.031328 -0.953033 0
M  V30 37 H 3.357335 -2.390606 -1.487554 0
M  V30 38 H 1.837536 2.291753 0.624547 0
M  V30 39 H -0.595361 2.704168 0.711794 0
M  V30 40 H -2.265352 3.066101 1.999553 0
M  V30 41 H -4.169435 4.460356 2.502418 0
M  V30 42 H -6.817373 4.929037 1.678012 0
M  V30 43 H -7.131909 2.075520 -1.429052 0
M  V30 44 H -4.383692 1.087120 -1.091653 0
M  V30 45 H -3.246377 -0.510026 -0.442704 0
M  V30 46 H -1.309682 -1.946144 -0.889884 0
M  V30 47 H 2.742469 -4.127452 0.236312 0
M  V30 END ATOM
M  V30 BEGIN BOND
M  V30 1 1 1 2
M  V30 2 1 2 3
M  V30 3 2 3 4
M  V30 4 1 4 5
M  V30 5 2 5 6
M  V30 6 1 6 7
M  V30 7 1 7 8
M  V30 8 1 8 9
M  V30 9 1 9 10
M  V30 10 2 10 11
M  V30 11 1 11 12
M  V30 12 2 12 13
M  V30 13 1 13 14
M  V30 14 1 14 15
M  V30 15 2 15 16
M  V30 16 1 16 17
M  V30 17 2 17 18
M  V30 18 1 18 19
M  V30 19 1 19 20
M  V30 20 2 20 21
M  V30 21 1 21 22
M  V30 22 2 22 23
M  V30 23 2 14 24
M  V30 24 1 24 25
M  V30 25 2 25 26
M  V30 26 1 26 27
M  V30 27 2 27 28
M  V30 28 2 7 29
M  V30 29 1 29 3
M  V30 30 1 27 9
M  V30 31 1 26 12
M  V30 32 1 23 15
M  V30 33 1 22 18
M  V30 34 1 1 30
M  V30 35 1 1 31
M  V30 36 1 1 32
M  V30 37 1 4 33
M  V30 38 1 5 34
M  V30 39 1 6 35
M  V30 40 1 8 36
M  V30 41 1 8 37
M  V30 42 1 11 38
M  V30 43 1 13 39
M  V30 44 1 16 40
M  V30 45 1 17 41
M  V30 46 1 19 42
M  V30 47 1 21 43
M  V30 48 1 23 44
M  V30 49 1 24 45
M  V30 50 1 25 46
M  V30 51 1 29 47
M  V30 END BOND
M  V30 END CTAB
M  END
>  <Dataset>  (698) 
ChEMBL_Kinases

>  <Ligand_Instance>  (698) 
nan

>  <PDB_ID>  (698) 
nan

>  <Standardized_SMILES>  (698) 
COc1cccc(Cn2ncc3cc(-c4ccc5[nH]ncc5c4)ccc3c2=O)c1

>  <Name>  (698) 
nan

>  <Pocket>  (698) 
nan

>  <ATP_Site>  (698) 
nan

>  <Peripheral>  (698) 
nan

>  <Num_H_Atoms_ProtBoundConf>  (698) 
nan

>  <Num_Resolved_Atoms>  (698) 
nan

>  <Num_Not_Resolved_Atoms>  (698) 
nan

$$$$
CHEMBL4645809
     RDKit          3D

  0  0  0  0  0  0  0  0  0  0999 V3000
M  V30 BEGIN CTAB
M  V30 COUNTS 50 53 0 0 0
M  V30 BEGIN ATOM
M  V30 1 C -2.082084 -5.332505 2.598617 0
M  V30 2 C -0.578245 -5.322918 2.867319 0
M  V30 3 O -0.097591 -4.123786 2.346427 0
M  V30 4 C 1.200264 -3.695166 2.365696 0
M  V30 5 O 1.766517 -4.652472 2.954937 0
M  V30 6 C 1.777483 -2.462113 1.845249 0
M  V30 7 C 3.157747 -2.409686 2.072762 0
M  V30 8 N 3.881572 -1.347282 1.667195 0
M  V30 9 C 3.307771 -0.306615 1.033757 0
M  V30 10 C 3.950977 0.825758 0.577994 0
M  V30 11 C 3.227012 1.813891 -0.056388 0
M  V30 12 C 1.868117 1.750566 -0.274521 0
M  V30 13 C 1.144424 2.802541 -0.941312 0
M  V30 14 C 1.667327 3.961264 -1.432613 0
M  V30 15 C 0.939323 4.948467 -2.067438 0
M  V30 16 Cl 1.750132 6.389632 -2.649005 0
M  V30 17 C -0.425398 4.773432 -2.230148 0
M  V30 18 O -1.100214 5.802805 -2.876511 0
M  V30 19 C -0.998921 3.609574 -1.745572 0
M  V30 20 Cl -2.718009 3.444077 -1.978460 0
M  V30 21 C -0.226859 2.652932 -1.118144 0
M  V30 22 N 1.258590 0.636400 0.178241 0
M  V30 23 C 1.944742 -0.343727 0.801612 0
M  V30 24 C 1.183849 -1.420988 1.207889 0
M  V30 25 N -0.209310 -1.560645 1.021380 0
M  V30 26 C -0.632620 -2.202920 -0.207995 0
M  V30 27 C -2.121050 -2.058789 -0.426457 0
M  V30 28 N -2.867654 -2.131920 0.790662 0
M  V30 29 C -2.521168 -1.161951 1.782514 0
M  V30 30 C -1.057741 -1.047073 2.076055 0
M  V30 31 H -2.185724 -5.297109 1.502304 0
M  V30 32 H -2.432650 -4.348118 3.027285 0
M  V30 33 H -2.585080 -6.162483 3.097631 0
M  V30 34 H -0.098438 -6.225509 2.480911 0
M  V30 35 H -0.500029 -5.382694 3.984955 0
M  V30 36 H 3.759835 -3.178246 2.573330 0
M  V30 37 H 5.022112 0.875897 0.749821 0
M  V30 38 H 3.810717 2.664257 -0.380142 0
M  V30 39 H 2.732137 4.120089 -1.316970 0
M  V30 40 H -2.095932 5.692260 -3.034172 0
M  V30 41 H -0.800937 1.791591 -0.787076 0
M  V30 42 H -0.143306 -1.717948 -1.087065 0
M  V30 43 H -0.374984 -3.265664 -0.248479 0
M  V30 44 H -2.344309 -1.080208 -0.915274 0
M  V30 45 H -2.516516 -2.847560 -1.097140 0
M  V30 46 H -3.124306 -3.064706 1.122033 0
M  V30 47 H -2.916090 -0.174968 1.399778 0
M  V30 48 H -3.132315 -1.361422 2.682440 0
M  V30 49 H -0.740333 -1.537973 3.018860 0
M  V30 50 H -0.821312 0.028291 2.212491 0
M  V30 END ATOM
M  V30 BEGIN BOND
M  V30 1 1 1 2
M  V30 2 1 2 3
M  V30 3 1 3 4
M  V30 4 2 4 5
M  V30 5 1 4 6
M  V30 6 2 6 7
M  V30 7 1 7 8
M  V30 8 2 8 9
M  V30 9 1 9 10
M  V30 10 2 10 11
M  V30 11 1 11 12
M  V30 12 1 12 13
M  V30 13 2 13 14
M  V30 14 1 14 15
M  V30 15 1 15 16
M  V30 16 2 15 17
M  V30 17 1 17 18
M  V30 18 1 17 19
M  V30 19 1 19 20
M  V30 20 2 19 21
M  V30 21 2 12 22
M  V30 22 1 22 23
M  V30 23 2 23 24
M  V30 24 1 24 25
M  V30 25 1 25 26
M  V30 26 1 26 27
M  V30 27 1 27 28
M  V30 28 1 28 29
M  V30 29 1 29 30
M  V30 30 1 24 6
M  V30 31 1 30 25
M  V30 32 1 23 9
M  V30 33 1 21 13
M  V30 34 1 1 31
M  V30 35 1 1 32
M  V30 36 1 1 33
M  V30 37 1 2 34
M  V30 38 1 2 35
M  V30 39 1 7 36
M  V30 40 1 10 37
M  V30 41 1 11 38
M  V30 42 1 14 39
M  V30 43 1 18 40
M  V30 44 1 21 41
M  V30 45 1 26 42
M  V30 46 1 26 43
M  V30 47 1 27 44
M  V30 48 1 27 45
M  V30 49 1 28 46
M  V30 50 1 29 47
M  V30 51 1 29 48
M  V30 52 1 30 49
M  V30 53 1 30 50
M  V30 END BOND
M  V30 END CTAB
M  END
>  <Dataset>  (699) 
ChEMBL_Kinases

>  <Ligand_Instance>  (699) 
nan

>  <PDB_ID>  (699) 
nan

>  <Standardized_SMILES>  (699) 
CCOC(=O)c1cnc2ccc(-c3cc(Cl)c(O)c(Cl)c3)nc2c1N1CCNCC1

>  <Name>  (699) 
nan

>  <Pocket>  (699) 
nan

>  <ATP_Site>  (699) 
nan

>  <Peripheral>  (699) 
nan

>  <Num_H_Atoms_ProtBoundConf>  (699) 
nan

>  <Num_Resolved_Atoms>  (699) 
nan

>  <Num_Not_Resolved_Atoms>  (699) 
nan

$$$$
CHEMBL4645917
     RDKit          3D

  0  0  0  0  0  0  0  0  0  0999 V3000
M  V30 BEGIN CTAB
M  V30 COUNTS 49 52 0 0 0
M  V30 BEGIN ATOM
M  V30 1 C -1.228758 -4.306839 4.050167 0
M  V30 2 O -1.793131 -5.079575 3.020378 0
M  V30 3 C -1.961578 -4.615559 1.735197 0
M  V30 4 C -1.556475 -3.318452 1.436788 0
M  V30 5 C -1.721848 -2.853180 0.155145 0
M  V30 6 C -1.320907 -1.503066 -0.221360 0
M  V30 7 C -0.224758 -1.011301 0.479226 0
M  V30 8 N 0.201548 0.222792 0.174765 0
M  V30 9 C -0.323929 1.040011 -0.744078 0
M  V30 10 C -0.026656 2.324152 -1.215050 0
M  V30 11 N 1.128913 2.994595 -0.560489 0
M  V30 12 C 1.355242 4.107648 0.330922 0
M  V30 13 C 2.213060 3.726442 1.507861 0 CFG=1
M  V30 14 C 1.580617 4.012763 2.846549 0
M  V30 15 O 2.466111 2.337092 1.476287 0
M  V30 16 C 3.225544 2.075699 0.337528 0 CFG=1
M  V30 17 C 3.615983 0.612904 0.427351 0
M  V30 18 C 2.410849 2.351017 -0.884487 0
M  V30 19 S -1.022582 2.813785 -2.386560 0
M  V30 20 N -2.069862 1.254785 -2.429898 0
M  V30 21 C -1.396772 0.587542 -1.444940 0
M  V30 22 C -1.882124 -0.676462 -1.175082 0
M  V30 23 C -2.276697 -3.627212 -0.849472 0
M  V30 24 C -2.689304 -4.922748 -0.580246 0
M  V30 25 C -2.509820 -5.355684 0.709171 0
M  V30 26 C -2.950487 -6.716978 0.971879 0
M  V30 27 O -3.472458 -7.487119 0.106164 0
M  V30 28 O -2.983755 -7.572737 2.046654 0
M  V30 29 H -0.728367 -5.043265 4.751643 0
M  V30 30 H -0.432288 -3.628067 3.715703 0
M  V30 31 H -2.014906 -3.800027 4.650743 0
M  V30 32 H -1.115155 -2.622346 2.114159 0
M  V30 33 H 0.351998 -1.490411 1.260503 0
M  V30 34 H 0.437672 4.586782 0.710034 0
M  V30 35 H 1.894238 4.906976 -0.267874 0
M  V30 36 H 3.226571 4.220399 1.429336 0
M  V30 37 H 2.208234 3.458116 3.597434 0
M  V30 38 H 0.591694 3.526826 2.859196 0
M  V30 39 H 1.537138 5.084090 3.083486 0
M  V30 40 H 4.117431 2.701338 0.378702 0
M  V30 41 H 3.169705 0.100099 1.318967 0
M  V30 42 H 3.228483 0.065205 -0.447399 0
M  V30 43 H 4.718381 0.503949 0.479957 0
M  V30 44 H 2.282298 1.387929 -1.418783 0
M  V30 45 H 3.009389 2.981823 -1.589530 0
M  V30 46 H -2.721152 -1.237565 -1.607637 0
M  V30 47 H -2.402562 -3.243117 -1.862559 0
M  V30 48 H -3.132858 -5.559381 -1.353225 0
M  V30 49 H -2.419009 -8.421122 2.122378 0
M  V30 END ATOM
M  V30 BEGIN BOND
M  V30 1 1 1 2
M  V30 2 1 2 3
M  V30 3 2 3 4
M  V30 4 1 4 5
M  V30 5 1 5 6
M  V30 6 1 6 7
M  V30 7 2 7 8
M  V30 8 1 8 9
M  V30 9 2 9 10
M  V30 10 1 10 11
M  V30 11 1 11 12
M  V30 12 1 12 13
M  V30 13 1 13 14
M  V30 14 1 13 15
M  V30 15 1 15 16
M  V30 16 1 16 17
M  V30 17 1 16 18
M  V30 18 1 10 19
M  V30 19 1 19 20
M  V30 20 2 20 21
M  V30 21 1 21 22
M  V30 22 2 5 23
M  V30 23 1 23 24
M  V30 24 2 24 25
M  V30 25 1 25 26
M  V30 26 2 26 27
M  V30 27 1 26 28
M  V30 28 1 25 3
M  V30 29 2 22 6
M  V30 30 1 21 9
M  V30 31 1 18 11
M  V30 32 1 1 29
M  V30 33 1 1 30
M  V30 34 1 1 31
M  V30 35 1 4 32
M  V30 36 1 7 33
M  V30 37 1 12 34
M  V30 38 1 12 35
M  V30 39 1 13 36 CFG=3
M  V30 40 1 14 37
M  V30 41 1 14 38
M  V30 42 1 14 39
M  V30 43 1 16 40 CFG=3
M  V30 44 1 17 41
M  V30 45 1 17 42
M  V30 46 1 17 43
M  V30 47 1 18 44
M  V30 48 1 18 45
M  V30 49 1 22 46
M  V30 50 1 23 47
M  V30 51 1 24 48
M  V30 52 1 28 49
M  V30 END BOND
M  V30 END CTAB
M  END
>  <Dataset>  (700) 
ChEMBL_Kinases

>  <Ligand_Instance>  (700) 
nan

>  <PDB_ID>  (700) 
nan

>  <Standardized_SMILES>  (700) 
COc1cc(-c2cnc3c(N4C[C@@H](C)O[C@@H](C)C4)snc3c2)ccc1C(=O)O

>  <Name>  (700) 
nan

>  <Pocket>  (700) 
nan

>  <ATP_Site>  (700) 
nan

>  <Peripheral>  (700) 
nan

>  <Num_H_Atoms_ProtBoundConf>  (700) 
nan

>  <Num_Resolved_Atoms>  (700) 
nan

>  <Num_Not_Resolved_Atoms>  (700) 
nan

$$$$
CHEMBL4646001
     RDKit          3D

  0  0  0  0  0  0  0  0  0  0999 V3000
M  V30 BEGIN CTAB
M  V30 COUNTS 69 74 0 0 0
M  V30 BEGIN ATOM
M  V30 1 C -0.496288 8.380634 -2.957609 0
M  V30 2 O -0.682543 7.003067 -2.611231 0
M  V30 3 C 0.416911 6.147945 -2.496748 0
M  V30 4 C 1.691749 6.631044 -2.719175 0
M  V30 5 C 2.784920 5.832523 -2.617666 0
M  V30 6 N 4.100663 6.323537 -2.845731 0
M  V30 7 C 5.316949 5.505465 -2.764173 0
M  V30 8 C 6.463743 6.487037 -2.790205 0
M  V30 9 O 5.819353 7.725493 -2.647534 0
M  V30 10 C 4.522340 7.634976 -3.187812 0
M  V30 11 O 3.785955 8.443608 -3.841883 0
M  V30 12 C 2.571077 4.520676 -2.283818 0
M  V30 13 C 1.306726 4.011191 -2.055940 0
M  V30 14 C 0.188298 4.839887 -2.162656 0
M  V30 15 N -1.116765 4.282269 -1.928988 0
M  V30 16 C -1.281868 2.915319 -1.569348 0
M  V30 17 N -1.365844 1.948962 -2.532505 0
M  V30 18 C -1.520780 0.753903 -1.933999 0
M  V30 19 C -1.642553 -0.471529 -2.560362 0
M  V30 20 C -1.790883 -1.561897 -1.723713 0
M  V30 21 C -1.813100 -1.409756 -0.351525 0
M  V30 22 C -1.965842 -2.570092 0.553487 0
M  V30 23 C -1.432349 -3.777055 0.156900 0
M  V30 24 C -1.592906 -4.854297 1.019659 0
M  V30 25 C -2.267018 -4.676551 2.215225 0
M  V30 26 N -2.477347 -5.710986 3.159038 0
M  V30 27 C -3.345237 -6.756065 3.541212 0
M  V30 28 O -4.364589 -6.892426 2.810192 0
M  V30 29 C -2.992805 -7.587553 4.746250 0 CFG=2
M  V30 30 C -2.976365 -6.771005 5.993719 0
M  V30 31 C -1.743958 -8.351942 4.560559 0
M  V30 32 C -0.448415 -7.918597 4.736445 0
M  V30 33 C 0.666024 -8.694120 4.528324 0
M  V30 34 C 0.501505 -9.999181 4.115024 0
M  V30 35 F 1.614520 -10.761442 3.909609 0
M  V30 36 C -0.746621 -10.528822 3.911016 0
M  V30 37 C -1.813753 -9.688062 4.140901 0
M  V30 38 C -2.777702 -3.433450 2.549386 0
M  V30 39 C -2.650255 -2.304736 1.723900 0
M  V30 40 C -1.682156 -0.131335 0.169794 0
M  V30 41 N -1.534898 0.964506 -0.600457 0
M  V30 42 N -1.390607 2.268804 -0.378898 0
M  V30 43 H -0.008860 8.513901 -3.934869 0
M  V30 44 H 0.143805 8.900212 -2.200876 0
M  V30 45 H -1.509222 8.827752 -2.986761 0
M  V30 46 H 1.759525 7.677638 -2.977509 0
M  V30 47 H 5.314947 4.852503 -1.886761 0
M  V30 48 H 5.368801 4.858497 -3.671398 0
M  V30 49 H 7.184482 6.323788 -1.973616 0
M  V30 50 H 7.047462 6.402731 -3.734754 0
M  V30 51 H 3.432556 3.852292 -2.194612 0
M  V30 52 H 1.212981 2.981706 -1.800880 0
M  V30 53 H -1.904716 4.931855 -2.039142 0
M  V30 54 H -1.622499 -0.567750 -3.638548 0
M  V30 55 H -1.893237 -2.559269 -2.121220 0
M  V30 56 H -0.913954 -3.882796 -0.778994 0
M  V30 57 H -1.201459 -5.830152 0.775599 0
M  V30 58 H -1.609225 -5.513566 3.700132 0
M  V30 59 H -3.831638 -8.333698 4.806154 0
M  V30 60 H -3.682278 -5.902438 5.951138 0
M  V30 61 H -1.939829 -6.346278 6.125543 0
M  V30 62 H -3.159973 -7.385354 6.895805 0
M  V30 63 H -0.305214 -6.918432 5.061029 0
M  V30 64 H 1.655820 -8.254514 4.695914 0
M  V30 65 H -0.922230 -11.544534 3.588010 0
M  V30 66 H -2.804634 -10.106313 3.979332 0
M  V30 67 H -3.312522 -3.267760 3.487173 0
M  V30 68 H -3.033965 -1.332598 1.956187 0
M  V30 69 H -1.693371 0.046851 1.243585 0
M  V30 END ATOM
M  V30 BEGIN BOND
M  V30 1 1 1 2
M  V30 2 1 2 3
M  V30 3 2 3 4
M  V30 4 1 4 5
M  V30 5 1 5 6
M  V30 6 1 6 7
M  V30 7 1 7 8
M  V30 8 1 8 9
M  V30 9 1 9 10
M  V30 10 2 10 11
M  V30 11 2 5 12
M  V30 12 1 12 13
M  V30 13 2 13 14
M  V30 14 1 14 15
M  V30 15 1 15 16
M  V30 16 1 16 17
M  V30 17 2 17 18
M  V30 18 1 18 19
M  V30 19 2 19 20
M  V30 20 1 20 21
M  V30 21 1 21 22
M  V30 22 2 22 23
M  V30 23 1 23 24
M  V30 24 2 24 25
M  V30 25 1 25 26
M  V30 26 1 26 27
M  V30 27 2 27 28
M  V30 28 1 27 29
M  V30 29 1 29 30
M  V30 30 1 29 31
M  V30 31 2 31 32
M  V30 32 1 32 33
M  V30 33 2 33 34
M  V30 34 1 34 35
M  V30 35 1 34 36
M  V30 36 2 36 37
M  V30 37 1 25 38
M  V30 38 2 38 39
M  V30 39 2 21 40
M  V30 40 1 40 41
M  V30 41 1 41 42
M  V30 42 1 14 3
M  V30 43 2 42 16
M  V30 44 1 10 6
M  V30 45 1 41 18
M  V30 46 1 39 22
M  V30 47 1 37 31
M  V30 48 1 1 43
M  V30 49 1 1 44
M  V30 50 1 1 45
M  V30 51 1 4 46
M  V30 52 1 7 47
M  V30 53 1 7 48
M  V30 54 1 8 49
M  V30 55 1 8 50
M  V30 56 1 12 51
M  V30 57 1 13 52
M  V30 58 1 15 53
M  V30 59 1 19 54
M  V30 60 1 20 55
M  V30 61 1 23 56
M  V30 62 1 24 57
M  V30 63 1 26 58
M  V30 64 1 29 59 CFG=1
M  V30 65 1 30 60
M  V30 66 1 30 61
M  V30 67 1 30 62
M  V30 68 1 32 63
M  V30 69 1 33 64
M  V30 70 1 36 65
M  V30 71 1 37 66
M  V30 72 1 38 67
M  V30 73 1 39 68
M  V30 74 1 40 69
M  V30 END BOND
M  V30 END CTAB
M  END
>  <Dataset>  (701) 
ChEMBL_Kinases

>  <Ligand_Instance>  (701) 
nan

>  <PDB_ID>  (701) 
nan

>  <Standardized_SMILES>  (701) 
COc1cc(N2CCOC2=O)ccc1Nc1nc2ccc(-c3ccc(NC(=O)[C@H](C)c4ccc(F)cc4)cc3)cn2n1

>  <Name>  (701) 
nan

>  <Pocket>  (701) 
nan

>  <ATP_Site>  (701) 
nan

>  <Peripheral>  (701) 
nan

>  <Num_H_Atoms_ProtBoundConf>  (701) 
nan

>  <Num_Resolved_Atoms>  (701) 
nan

>  <Num_Not_Resolved_Atoms>  (701) 
nan

$$$$
CHEMBL452336
     RDKit          3D

  0  0  0  0  0  0  0  0  0  0999 V3000
M  V30 BEGIN CTAB
M  V30 COUNTS 51 55 0 0 0
M  V30 BEGIN ATOM
M  V30 1 C 2.840993 -1.344551 3.893874 0
M  V30 2 N 4.050121 -0.883119 3.200715 0
M  V30 3 C 3.606624 -0.278959 1.933732 0
M  V30 4 C 3.098933 -1.418022 1.105303 0
M  V30 5 C 2.580389 -0.983814 -0.265084 0
M  V30 6 N 1.482846 -0.052232 -0.125410 0
M  V30 7 C 1.525167 1.297704 -0.064982 0
M  V30 8 C 2.650463 2.085874 -0.137254 0
M  V30 9 C 2.577045 3.482687 -0.062758 0
M  V30 10 C 1.293739 3.964348 0.086400 0
M  V30 11 O 1.214405 5.368157 0.161158 0
M  V30 12 C 0.188406 3.157915 0.156016 0
M  V30 13 C 0.257642 1.800171 0.083294 0
M  V30 14 C -0.565542 0.719479 0.112214 0
M  V30 15 C -1.901792 0.634741 0.240304 0
M  V30 16 C -2.526176 -0.588866 0.242393 0
M  V30 17 C -1.753179 -1.742793 0.110211 0
M  V30 18 C -2.317344 -3.090511 0.104119 0
M  V30 19 C -2.691640 -3.618934 -1.117590 0
M  V30 20 Cl -2.508919 -2.712455 -2.614262 0
M  V30 21 C -3.238089 -4.897713 -1.243479 0
M  V30 22 C -3.405465 -5.656281 -0.083833 0
M  V30 23 C -3.014601 -5.085100 1.126695 0
M  V30 24 C -2.471985 -3.818601 1.262515 0
M  V30 25 Cl -2.006697 -3.162458 2.798971 0
M  V30 26 C -0.396031 -1.658884 -0.019734 0
M  V30 27 C 0.200749 -0.417358 -0.018089 0
M  V30 28 C -3.974905 -0.519077 0.392190 0
M  V30 29 O -4.776371 -1.476549 0.424754 0
M  V30 30 N -4.214629 0.903931 0.486841 0
M  V30 31 C -2.964477 1.570812 0.393739 0
M  V30 32 O -3.035515 2.803587 0.460499 0
M  V30 33 H 1.924418 -0.839671 3.493327 0
M  V30 34 H 2.681507 -2.432485 3.687151 0
M  V30 35 H 2.867781 -1.124348 4.971462 0
M  V30 36 H 4.644424 -1.735645 3.000694 0
M  V30 37 H 4.454812 0.254253 1.499100 0
M  V30 38 H 2.747993 0.375077 2.212536 0
M  V30 39 H 3.856546 -2.198143 1.023115 0
M  V30 40 H 2.206021 -1.835119 1.647904 0
M  V30 41 H 3.414402 -0.405403 -0.725280 0
M  V30 42 H 2.330253 -1.853584 -0.872074 0
M  V30 43 H 3.631185 1.663181 -0.257463 0
M  V30 44 H 3.441035 4.123255 -0.120209 0
M  V30 45 H 0.473021 5.812101 -0.388547 0
M  V30 46 H -0.733194 3.667492 0.270465 0
M  V30 47 H -3.537496 -5.340754 -2.181238 0
M  V30 48 H -3.814222 -6.657476 -0.067445 0
M  V30 49 H -3.145310 -5.679227 2.030203 0
M  V30 50 H 0.218202 -2.543671 -0.126001 0
M  V30 51 H -5.217843 1.240332 0.603499 0
M  V30 END ATOM
M  V30 BEGIN BOND
M  V30 1 1 1 2
M  V30 2 1 2 3
M  V30 3 1 3 4
M  V30 4 1 4 5
M  V30 5 1 5 6
M  V30 6 1 6 7
M  V30 7 2 7 8
M  V30 8 1 8 9
M  V30 9 2 9 10
M  V30 10 1 10 11
M  V30 11 1 10 12
M  V30 12 2 12 13
M  V30 13 1 13 14
M  V30 14 2 14 15
M  V30 15 1 15 16
M  V30 16 2 16 17
M  V30 17 1 17 18
M  V30 18 2 18 19
M  V30 19 1 19 20
M  V30 20 1 19 21
M  V30 21 2 21 22
M  V30 22 1 22 23
M  V30 23 2 23 24
M  V30 24 1 24 25
M  V30 25 1 17 26
M  V30 26 2 26 27
M  V30 27 1 16 28
M  V30 28 2 28 29
M  V30 29 1 28 30
M  V30 30 1 30 31
M  V30 31 2 31 32
M  V30 32 1 27 6
M  V30 33 1 13 7
M  V30 34 1 27 14
M  V30 35 1 31 15
M  V30 36 1 24 18
M  V30 37 1 1 33
M  V30 38 1 1 34
M  V30 39 1 1 35
M  V30 40 1 2 36
M  V30 41 1 3 37
M  V30 42 1 3 38
M  V30 43 1 4 39
M  V30 44 1 4 40
M  V30 45 1 5 41
M  V30 46 1 5 42
M  V30 47 1 8 43
M  V30 48 1 9 44
M  V30 49 1 11 45
M  V30 50 1 12 46
M  V30 51 1 21 47
M  V30 52 1 22 48
M  V30 53 1 23 49
M  V30 54 1 26 50
M  V30 55 1 30 51
M  V30 END BOND
M  V30 END CTAB
M  END
>  <Dataset>  (702) 
ChEMBL_Kinases

>  <Ligand_Instance>  (702) 
nan

>  <PDB_ID>  (702) 
nan

>  <Standardized_SMILES>  (702) 
CNCCCn1c2ccc(O)cc2c2c3c(c(-c4c(Cl)cccc4Cl)cc21)C(=O)NC3=O

>  <Name>  (702) 
nan

>  <Pocket>  (702) 
nan

>  <ATP_Site>  (702) 
nan

>  <Peripheral>  (702) 
nan

>  <Num_H_Atoms_ProtBoundConf>  (702) 
nan

>  <Num_Resolved_Atoms>  (702) 
nan

>  <Num_Not_Resolved_Atoms>  (702) 
nan

$$$$
CHEMBL452315
     RDKit          3D

  0  0  0  0  0  0  0  0  0  0999 V3000
M  V30 BEGIN CTAB
M  V30 COUNTS 46 48 0 0 0
M  V30 BEGIN ATOM
M  V30 1 O -0.907782 -2.254197 1.822045 0
M  V30 2 C 0.376312 -2.266206 1.812645 0
M  V30 3 O 1.408815 -1.457225 2.320737 0
M  V30 4 C 2.333153 -1.403528 1.220598 0
M  V30 5 C 3.587062 -0.677474 1.583548 0
M  V30 6 O 4.308830 -1.213388 2.620256 0
M  V30 7 C 1.638733 -0.685838 0.107693 0
M  V30 8 O 1.322366 0.624242 0.598220 0
M  V30 9 C 0.649779 1.538903 -0.201838 0
M  V30 10 O 0.562986 0.760612 -1.175914 0
M  V30 11 C 0.237255 2.898560 0.087747 0
M  V30 12 C 0.427044 3.626910 1.239443 0
M  V30 13 C -0.074186 4.909358 1.246677 0
M  V30 14 C -0.738678 5.483509 0.185468 0
M  V30 15 C -1.214867 6.885829 0.365593 0
M  V30 16 F -0.058088 7.667668 0.353992 0
M  V30 17 F -2.081191 7.287212 -0.626126 0
M  V30 18 F -1.765214 7.072600 1.616003 0
M  V30 19 C -0.927646 4.738903 -0.980060 0
M  V30 20 C -0.426836 3.452111 -0.992438 0
M  V30 21 C 2.505149 -2.871364 0.961983 0
M  V30 22 C 1.107002 -3.346077 1.128151 0
M  V30 23 C 0.585392 -4.496959 0.763613 0
M  V30 24 C -0.766404 -4.999644 0.923755 0
M  V30 25 C -1.361122 -5.540819 -0.219345 0
M  V30 26 C -2.628920 -6.072940 -0.212104 0
M  V30 27 C -3.355259 -6.081978 0.956695 0
M  V30 28 C -2.806434 -5.554209 2.126523 0
M  V30 29 C -1.509715 -5.026125 2.055374 0
M  V30 30 H 3.263261 0.370139 1.857597 0
M  V30 31 H 4.175110 -0.550500 0.639259 0
M  V30 32 H 4.678671 -0.453747 3.168814 0
M  V30 33 H 0.637100 -1.185393 -0.032832 0
M  V30 34 H 2.229008 -0.646668 -0.834531 0
M  V30 35 H 0.946909 3.121713 2.017973 0
M  V30 36 H 0.087376 5.459809 2.160402 0
M  V30 37 H -1.453058 5.226490 -1.785856 0
M  V30 38 H -0.638151 2.976023 -1.955849 0
M  V30 39 H 3.150930 -3.249900 1.810223 0
M  V30 40 H 2.985793 -3.144123 0.029514 0
M  V30 41 H 1.261031 -5.206117 0.255153 0
M  V30 42 H -0.895350 -5.596803 -1.214919 0
M  V30 43 H -3.146202 -6.506138 -1.060219 0
M  V30 44 H -4.366276 -6.471450 1.102863 0
M  V30 45 H -3.350876 -5.544072 3.070010 0
M  V30 46 H -1.104516 -4.644173 2.971364 0
M  V30 END ATOM
M  V30 BEGIN BOND
M  V30 1 2 1 2
M  V30 2 1 2 3
M  V30 3 1 3 4
M  V30 4 1 4 5
M  V30 5 1 5 6
M  V30 6 1 4 7
M  V30 7 1 7 8
M  V30 8 1 8 9
M  V30 9 2 9 10
M  V30 10 1 9 11
M  V30 11 2 11 12
M  V30 12 1 12 13
M  V30 13 2 13 14
M  V30 14 1 14 15
M  V30 15 1 15 16
M  V30 16 1 15 17
M  V30 17 1 15 18
M  V30 18 1 14 19
M  V30 19 2 19 20
M  V30 20 1 4 21
M  V30 21 1 21 22
M  V30 22 2 22 23
M  V30 23 1 23 24
M  V30 24 2 24 25
M  V30 25 1 25 26
M  V30 26 2 26 27
M  V30 27 1 27 28
M  V30 28 2 28 29
M  V30 29 1 22 2
M  V30 30 1 29 24
M  V30 31 1 20 11
M  V30 32 1 5 30
M  V30 33 1 5 31
M  V30 34 1 6 32
M  V30 35 1 7 33
M  V30 36 1 7 34
M  V30 37 1 12 35
M  V30 38 1 13 36
M  V30 39 1 19 37
M  V30 40 1 20 38
M  V30 41 1 21 39
M  V30 42 1 21 40
M  V30 43 1 23 41
M  V30 44 1 25 42
M  V30 45 1 26 43
M  V30 46 1 27 44
M  V30 47 1 28 45
M  V30 48 1 29 46
M  V30 END BOND
M  V30 END CTAB
M  END
>  <Dataset>  (703) 
ChEMBL_Kinases

>  <Ligand_Instance>  (703) 
nan

>  <PDB_ID>  (703) 
nan

>  <Standardized_SMILES>  (703) 
O=C1OC(CO)(COC(=O)c2ccc(C(F)(F)F)cc2)C/C1=C/c1ccccc1

>  <Name>  (703) 
nan

>  <Pocket>  (703) 
nan

>  <ATP_Site>  (703) 
nan

>  <Peripheral>  (703) 
nan

>  <Num_H_Atoms_ProtBoundConf>  (703) 
nan

>  <Num_Resolved_Atoms>  (703) 
nan

>  <Num_Not_Resolved_Atoms>  (703) 
nan

$$$$
CHEMBL452314
     RDKit          3D

  0  0  0  0  0  0  0  0  0  0999 V3000
M  V30 BEGIN CTAB
M  V30 COUNTS 51 53 0 0 0
M  V30 BEGIN ATOM
M  V30 1 C 3.023892 -6.713947 4.253886 0
M  V30 2 N 2.333855 -5.454348 4.287884 0
M  V30 3 C 1.607146 -5.069993 5.468098 0
M  V30 4 C 2.377285 -4.605738 3.142890 0
M  V30 5 C 1.727780 -3.389972 3.194330 0
M  V30 6 C 1.695280 -2.493891 2.145848 0
M  V30 7 C 2.358723 -2.833359 0.957633 0
M  V30 8 C 2.372778 -1.934465 -0.218682 0
M  V30 9 O 2.916869 -2.160429 -1.328797 0
M  V30 10 O 1.720968 -0.745151 -0.055555 0
M  V30 11 C 1.579124 0.281841 -1.019990 0
M  V30 12 C 0.761490 1.359414 -0.289815 0
M  V30 13 C 1.522026 1.709508 0.971312 0
M  V30 14 O 0.790915 2.555253 1.801910 0
M  V30 15 C 0.410449 2.518993 -1.148206 0
M  V30 16 C -1.079196 2.389245 -1.278123 0
M  V30 17 C -1.968778 3.331473 -1.630362 0
M  V30 18 C -3.398757 3.088727 -1.719838 0
M  V30 19 C -4.214614 2.395093 -0.841935 0
M  V30 20 C -5.553670 2.247189 -1.077429 0
M  V30 21 C -6.174237 2.776902 -2.198456 0
M  V30 22 C -5.368491 3.480870 -3.096313 0
M  V30 23 C -4.027205 3.613984 -2.835338 0
M  V30 24 C -1.377737 0.979690 -0.956852 0
M  V30 25 O -2.312417 0.427089 -1.644162 0
M  V30 26 O -0.460463 0.707267 0.072748 0
M  V30 27 C 3.007107 -4.052815 0.914876 0
M  V30 28 C 3.032511 -4.947869 1.978977 0
M  V30 29 H 2.654679 -7.409102 3.476316 0
M  V30 30 H 3.002039 -7.221292 5.240387 0
M  V30 31 H 4.104243 -6.525477 4.026006 0
M  V30 32 H 2.196625 -4.476253 6.180381 0
M  V30 33 H 1.269021 -6.026501 5.964289 0
M  V30 34 H 0.630130 -4.569803 5.213832 0
M  V30 35 H 1.182282 -3.007973 4.042133 0
M  V30 36 H 1.199634 -1.534686 2.148003 0
M  V30 37 H 2.549231 0.718024 -1.335128 0
M  V30 38 H 1.046454 -0.045872 -1.938236 0
M  V30 39 H 1.708338 0.773014 1.532620 0
M  V30 40 H 2.505047 2.143636 0.697892 0
M  V30 41 H 0.355445 2.033812 2.507902 0
M  V30 42 H 0.592204 3.445072 -0.534346 0
M  V30 43 H 0.925899 2.573495 -2.111174 0
M  V30 44 H -1.618503 4.346007 -1.868135 0
M  V30 45 H -3.718749 1.996726 0.030106 0
M  V30 46 H -6.163436 1.705094 -0.381707 0
M  V30 47 H -7.228956 2.673356 -2.407101 0
M  V30 48 H -5.851750 3.895941 -3.974025 0
M  V30 49 H -3.469237 4.181699 -3.590734 0
M  V30 50 H 3.530396 -4.353399 0.016507 0
M  V30 51 H 3.544034 -5.902786 1.938334 0
M  V30 END ATOM
M  V30 BEGIN BOND
M  V30 1 1 1 2
M  V30 2 1 2 3
M  V30 3 1 2 4
M  V30 4 2 4 5
M  V30 5 1 5 6
M  V30 6 2 6 7
M  V30 7 1 7 8
M  V30 8 2 8 9
M  V30 9 1 8 10
M  V30 10 1 10 11
M  V30 11 1 11 12
M  V30 12 1 12 13
M  V30 13 1 13 14
M  V30 14 1 12 15
M  V30 15 1 15 16
M  V30 16 2 16 17
M  V30 17 1 17 18
M  V30 18 2 18 19
M  V30 19 1 19 20
M  V30 20 2 20 21
M  V30 21 1 21 22
M  V30 22 2 22 23
M  V30 23 1 16 24
M  V30 24 2 24 25
M  V30 25 1 24 26
M  V30 26 1 7 27
M  V30 27 2 27 28
M  V30 28 1 28 4
M  V30 29 1 26 12
M  V30 30 1 23 18
M  V30 31 1 1 29
M  V30 32 1 1 30
M  V30 33 1 1 31
M  V30 34 1 3 32
M  V30 35 1 3 33
M  V30 36 1 3 34
M  V30 37 1 5 35
M  V30 38 1 6 36
M  V30 39 1 11 37
M  V30 40 1 11 38
M  V30 41 1 13 39
M  V30 42 1 13 40
M  V30 43 1 14 41
M  V30 44 1 15 42
M  V30 45 1 15 43
M  V30 46 1 17 44
M  V30 47 1 19 45
M  V30 48 1 20 46
M  V30 49 1 21 47
M  V30 50 1 22 48
M  V30 51 1 23 49
M  V30 52 1 27 50
M  V30 53 1 28 51
M  V30 END BOND
M  V30 END CTAB
M  END
>  <Dataset>  (704) 
ChEMBL_Kinases

>  <Ligand_Instance>  (704) 
nan

>  <PDB_ID>  (704) 
nan

>  <Standardized_SMILES>  (704) 
CN(C)c1ccc(C(=O)OCC2(CO)C/C(=C/c3ccccc3)C(=O)O2)cc1

>  <Name>  (704) 
nan

>  <Pocket>  (704) 
nan

>  <ATP_Site>  (704) 
nan

>  <Peripheral>  (704) 
nan

>  <Num_H_Atoms_ProtBoundConf>  (704) 
nan

>  <Num_Resolved_Atoms>  (704) 
nan

>  <Num_Not_Resolved_Atoms>  (704) 
nan

$$$$
CHEMBL452308
     RDKit          3D

  0  0  0  0  0  0  0  0  0  0999 V3000
M  V30 BEGIN CTAB
M  V30 COUNTS 42 43 0 0 0
M  V30 BEGIN ATOM
M  V30 1 C -0.128445 -4.787051 -0.891624 0
M  V30 2 C -0.393763 -4.724926 0.608931 0
M  V30 3 C -1.748620 -4.134688 0.852277 0
M  V30 4 C 0.707673 -3.917038 1.244242 0
M  V30 5 O 1.452179 -4.402650 2.116050 0
M  V30 6 O 0.744425 -2.660724 0.737653 0
M  V30 7 C 1.595779 -1.619960 1.065779 0
M  V30 8 C 1.485500 -1.034022 2.429773 0
M  V30 9 C 1.997777 -1.805028 3.580692 0
M  V30 10 O 3.287963 -2.273658 3.337396 0
M  V30 11 C 2.191021 0.369721 2.389407 0
M  V30 12 C 1.242211 1.096473 1.522469 0
M  V30 13 C 1.341078 2.173260 0.738109 0
M  V30 14 C 0.358176 2.842052 -0.089603 0
M  V30 15 C 0.805189 3.060096 -1.399781 0
M  V30 16 C 0.048210 3.721483 -2.342885 0
M  V30 17 C -1.197482 4.185519 -1.979496 0
M  V30 18 F -1.997128 4.843935 -2.855459 0
M  V30 19 C -1.676342 3.991755 -0.698490 0
M  V30 20 Cl -3.257451 4.549693 -0.139462 0
M  V30 21 C -0.871586 3.314307 0.225332 0
M  V30 22 C -0.048114 0.375032 1.567786 0
M  V30 23 O -1.098256 0.536051 0.854081 0
M  V30 24 O 0.138388 -0.554667 2.596120 0
M  V30 25 H -0.883854 -5.509252 -1.284973 0
M  V30 26 H -0.382530 -3.786928 -1.298295 0
M  V30 27 H 0.911218 -5.092990 -1.028251 0
M  V30 28 H -0.361811 -5.724878 1.058191 0
M  V30 29 H -2.499530 -4.917010 1.160059 0
M  V30 30 H -1.753871 -3.342798 1.607067 0
M  V30 31 H -2.182623 -3.686845 -0.081291 0
M  V30 32 H 1.476317 -0.796626 0.289850 0
M  V30 33 H 2.656202 -2.026859 0.896704 0
M  V30 34 H 2.136967 -1.082623 4.467154 0
M  V30 35 H 1.325794 -2.576754 3.987086 0
M  V30 36 H 3.685398 -1.691334 2.623459 0
M  V30 37 H 2.273256 0.747340 3.407976 0
M  V30 38 H 3.170318 0.157319 1.929379 0
M  V30 39 H 2.357989 2.604222 0.745265 0
M  V30 40 H 1.781730 2.728015 -1.782370 0
M  V30 41 H 0.385373 3.893591 -3.352678 0
M  V30 42 H -1.209832 3.166900 1.218082 0
M  V30 END ATOM
M  V30 BEGIN BOND
M  V30 1 1 1 2
M  V30 2 1 2 3
M  V30 3 1 2 4
M  V30 4 2 4 5
M  V30 5 1 4 6
M  V30 6 1 6 7
M  V30 7 1 7 8
M  V30 8 1 8 9
M  V30 9 1 9 10
M  V30 10 1 8 11
M  V30 11 1 11 12
M  V30 12 2 12 13
M  V30 13 1 13 14
M  V30 14 2 14 15
M  V30 15 1 15 16
M  V30 16 2 16 17
M  V30 17 1 17 18
M  V30 18 1 17 19
M  V30 19 1 19 20
M  V30 20 2 19 21
M  V30 21 1 12 22
M  V30 22 2 22 23
M  V30 23 1 22 24
M  V30 24 1 24 8
M  V30 25 1 21 14
M  V30 26 1 1 25
M  V30 27 1 1 26
M  V30 28 1 1 27
M  V30 29 1 2 28
M  V30 30 1 3 29
M  V30 31 1 3 30
M  V30 32 1 3 31
M  V30 33 1 7 32
M  V30 34 1 7 33
M  V30 35 1 9 34
M  V30 36 1 9 35
M  V30 37 1 10 36
M  V30 38 1 11 37
M  V30 39 1 11 38
M  V30 40 1 13 39
M  V30 41 1 15 40
M  V30 42 1 16 41
M  V30 43 1 21 42
M  V30 END BOND
M  V30 END CTAB
M  END
>  <Dataset>  (705) 
ChEMBL_Kinases

>  <Ligand_Instance>  (705) 
nan

>  <PDB_ID>  (705) 
nan

>  <Standardized_SMILES>  (705) 
CC(C)C(=O)OCC1(CO)C/C(=C/c2ccc(F)c(Cl)c2)C(=O)O1

>  <Name>  (705) 
nan

>  <Pocket>  (705) 
nan

>  <ATP_Site>  (705) 
nan

>  <Peripheral>  (705) 
nan

>  <Num_H_Atoms_ProtBoundConf>  (705) 
nan

>  <Num_Resolved_Atoms>  (705) 
nan

>  <Num_Not_Resolved_Atoms>  (705) 
nan

$$$$
CHEMBL4646033
     RDKit          3D

  0  0  0  0  0  0  0  0  0  0999 V3000
M  V30 BEGIN CTAB
M  V30 COUNTS 73 76 0 0 0
M  V30 BEGIN ATOM
M  V30 1 C 3.755423 -2.105200 8.841366 0
M  V30 2 O 4.571884 -2.128346 7.660328 0
M  V30 3 C 4.017269 -1.863952 6.415590 0
M  V30 4 C 2.671874 -1.575484 6.302068 0
M  V30 5 C 2.160801 -1.316670 5.030302 0
M  V30 6 C 2.983247 -1.350491 3.926219 0
M  V30 7 C 2.376815 -1.069281 2.629892 0
M  V30 8 C 3.061311 -1.063156 1.432448 0
M  V30 9 C 2.409203 -0.785588 0.242257 0
M  V30 10 O 3.040992 -0.782191 -0.844583 0
M  V30 11 C 1.058408 -0.507479 0.218046 0
M  V30 12 C 0.352316 -0.223831 -0.932277 0
M  V30 13 O 1.015629 -0.211474 -2.145781 0
M  V30 14 C 1.592761 0.990983 -2.608534 0
M  V30 15 C -0.996877 0.038064 -0.826460 0
M  V30 16 C -1.810002 0.350482 -2.032609 0 CFG=1
M  V30 17 O -3.058667 -0.183536 -1.796938 0
M  V30 18 C -4.058208 0.182238 -2.665191 0 CFG=2
M  V30 19 C -4.251110 -0.773030 -3.790921 0
M  V30 20 O -5.107007 -0.667904 -4.735140 0
M  V30 21 N -3.415706 -1.920175 -3.843332 0
M  V30 22 C -3.326173 -3.031027 -4.770738 0 CFG=2
M  V30 23 C -3.661796 -4.328393 -4.067323 0
M  V30 24 C -1.946145 -3.113814 -5.400980 0
M  V30 25 F -1.020649 -3.289078 -4.392602 0
M  V30 26 F -1.960859 -4.153695 -6.308883 0
M  V30 27 F -1.628202 -1.941954 -6.056897 0
M  V30 28 C -3.928429 1.553702 -3.246175 0 CFG=1
M  V30 29 O -5.204567 2.064947 -3.474465 0
M  V30 30 C -3.211876 2.412991 -2.204301 0 CFG=2
M  V30 31 O -3.195173 3.722400 -2.643135 0
M  V30 32 C -1.785641 1.848173 -2.207240 0 CFG=1
M  V30 33 O -0.994505 2.494365 -1.296271 0
M  V30 34 C -1.625278 0.014648 0.418668 0
M  V30 35 O -2.981658 0.272398 0.570190 0
M  V30 36 C -3.638153 0.255292 1.810571 0
M  V30 37 C -0.902312 -0.273033 1.574353 0
M  V30 38 C 0.450052 -0.534856 1.462523 0
M  V30 39 O 1.092107 -0.803102 2.593228 0
M  V30 40 C 4.319690 -1.643562 4.092674 0
M  V30 41 C 4.874197 -1.907454 5.333313 0
M  V30 42 O 6.221589 -2.202516 5.497560 0
M  V30 43 C 7.003586 -2.217558 4.307311 0
M  V30 44 H 3.505797 -1.052596 9.086167 0
M  V30 45 H 4.248407 -2.590580 9.682321 0
M  V30 46 H 2.805854 -2.669478 8.649589 0
M  V30 47 H 1.998704 -1.541371 7.154163 0
M  V30 48 H 1.089619 -1.091303 4.975889 0
M  V30 49 H 4.116382 -1.279120 1.440498 0
M  V30 50 H 0.901397 1.431683 -3.354273 0
M  V30 51 H 2.607898 0.812040 -3.040528 0
M  V30 52 H 1.754055 1.746646 -1.809833 0
M  V30 53 H -1.373494 -0.167811 -2.913386 0
M  V30 54 H -4.991802 0.210174 -2.026697 0
M  V30 55 H -2.669747 -2.169092 -3.165757 0
M  V30 56 H -4.074302 -2.905643 -5.567473 0
M  V30 57 H -4.751368 -4.499371 -3.984497 0
M  V30 58 H -3.209101 -4.330904 -3.048643 0
M  V30 59 H -3.234879 -5.199368 -4.608819 0
M  V30 60 H -3.355315 1.542537 -4.201950 0
M  V30 61 H -5.865457 1.552403 -2.947628 0
M  V30 62 H -3.718830 2.300777 -1.246898 0
M  V30 63 H -3.842060 3.852918 -3.407416 0
M  V30 64 H -1.407260 2.063921 -3.226155 0
M  V30 65 H -0.308730 3.009165 -1.745212 0
M  V30 66 H -3.411729 1.167984 2.418353 0
M  V30 67 H -4.728679 0.245465 1.642823 0
M  V30 68 H -3.402640 -0.636620 2.430178 0
M  V30 69 H -1.393713 -0.289755 2.535727 0
M  V30 70 H 4.968631 -1.673366 3.247363 0
M  V30 71 H 6.590630 -2.907559 3.549218 0
M  V30 72 H 7.013312 -1.189036 3.857578 0
M  V30 73 H 8.058993 -2.481217 4.520291 0
M  V30 END ATOM
M  V30 BEGIN BOND
M  V30 1 1 1 2
M  V30 2 1 2 3
M  V30 3 2 3 4
M  V30 4 1 4 5
M  V30 5 2 5 6
M  V30 6 1 6 7
M  V30 7 2 7 8
M  V30 8 1 8 9
M  V30 9 2 9 10
M  V30 10 1 9 11
M  V30 11 2 11 12
M  V30 12 1 12 13
M  V30 13 1 13 14
M  V30 14 1 12 15
M  V30 15 1 15 16
M  V30 16 1 16 17
M  V30 17 1 17 18
M  V30 18 1 18 19
M  V30 19 2 19 20
M  V30 20 1 19 21
M  V30 21 1 21 22
M  V30 22 1 22 23
M  V30 23 1 22 24
M  V30 24 1 24 25
M  V30 25 1 24 26
M  V30 26 1 24 27
M  V30 27 1 18 28
M  V30 28 1 28 29
M  V30 29 1 28 30
M  V30 30 1 30 31
M  V30 31 1 30 32
M  V30 32 1 32 33
M  V30 33 2 15 34
M  V30 34 1 34 35
M  V30 35 1 35 36
M  V30 36 1 34 37
M  V30 37 2 37 38
M  V30 38 1 38 39
M  V30 39 1 6 40
M  V30 40 2 40 41
M  V30 41 1 41 42
M  V30 42 1 42 43
M  V30 43 1 41 3
M  V30 44 1 39 7
M  V30 45 1 38 11
M  V30 46 1 32 16
M  V30 47 1 1 44
M  V30 48 1 1 45
M  V30 49 1 1 46
M  V30 50 1 4 47
M  V30 51 1 5 48
M  V30 52 1 8 49
M  V30 53 1 14 50
M  V30 54 1 14 51
M  V30 55 1 14 52
M  V30 56 1 16 53 CFG=3
M  V30 57 1 18 54 CFG=1
M  V30 58 1 21 55
M  V30 59 1 22 56 CFG=3
M  V30 60 1 23 57
M  V30 61 1 23 58
M  V30 62 1 23 59
M  V30 63 1 28 60 CFG=3
M  V30 64 1 29 61
M  V30 65 1 30 62 CFG=1
M  V30 66 1 31 63
M  V30 67 1 32 64 CFG=3
M  V30 68 1 33 65
M  V30 69 1 36 66
M  V30 70 1 36 67
M  V30 71 1 36 68
M  V30 72 1 37 69
M  V30 73 1 40 70
M  V30 74 1 43 71
M  V30 75 1 43 72
M  V30 76 1 43 73
M  V30 END BOND
M  V30 END CTAB
M  END
>  <Dataset>  (706) 
ChEMBL_Kinases

>  <Ligand_Instance>  (706) 
nan

>  <PDB_ID>  (706) 
nan

>  <Standardized_SMILES>  (706) 
COc1ccc(-c2cc(=O)c3c(OC)c([C@H]4O[C@H](C(=O)N[C@H](C)C(F)(F)F)[C@@H](O)[C@H](O)[C@H]4O)c(OC)cc3o2)cc1OC

>  <Name>  (706) 
nan

>  <Pocket>  (706) 
nan

>  <ATP_Site>  (706) 
nan

>  <Peripheral>  (706) 
nan

>  <Num_H_Atoms_ProtBoundConf>  (706) 
nan

>  <Num_Resolved_Atoms>  (706) 
nan

>  <Num_Not_Resolved_Atoms>  (706) 
nan

$$$$
CHEMBL452305
     RDKit          3D

  0  0  0  0  0  0  0  0  0  0999 V3000
M  V30 BEGIN CTAB
M  V30 COUNTS 59 60 0 0 0
M  V30 BEGIN ATOM
M  V30 1 C -0.663769 0.108566 4.930305 0
M  V30 2 C 0.690173 -0.212857 4.313012 0
M  V30 3 C 1.430975 1.108623 4.214597 0
M  V30 4 C 2.802251 0.918170 3.600056 0
M  V30 5 C 3.482094 2.245680 3.528162 0
M  V30 6 C 4.848705 2.219276 2.903893 0
M  V30 7 C 4.751182 1.751564 1.473451 0
M  V30 8 O 5.707086 1.511421 0.669199 0
M  V30 9 O 3.520174 1.538396 0.898118 0
M  V30 10 C 3.335076 1.106122 -0.435939 0
M  V30 11 C 1.857436 0.967643 -0.709750 0
M  V30 12 C 1.140474 2.268317 -0.439906 0
M  V30 13 O -0.242031 2.134560 -0.533771 0
M  V30 14 C 1.353181 -0.130688 0.220790 0
M  V30 15 C 0.371264 -0.851187 -0.624948 0
M  V30 16 C -0.344853 -1.909063 -0.291273 0
M  V30 17 C -1.304133 -2.618258 -1.113699 0
M  V30 18 C -1.263620 -3.081197 -2.397912 0
M  V30 19 C -2.348446 -3.722638 -2.952109 0
M  V30 20 C -3.536390 -3.935584 -2.246858 0
M  V30 21 N -4.655463 -4.612301 -2.798547 0
M  V30 22 C -5.880054 -4.771203 -1.997818 0
M  V30 23 C -4.626386 -5.172135 -4.135988 0
M  V30 24 C -3.603153 -3.476746 -0.946295 0
M  V30 25 C -2.497987 -2.833563 -0.408281 0
M  V30 26 C 0.328080 -0.148344 -1.886674 0
M  V30 27 O -0.702262 -0.245903 -2.631254 0
M  V30 28 O 1.545014 0.546318 -2.006728 0
M  V30 29 H -0.508841 0.352981 5.997398 0
M  V30 30 H -1.365328 -0.745312 4.861500 0
M  V30 31 H -1.088797 1.028874 4.438588 0
M  V30 32 H 1.269181 -0.831791 5.057884 0
M  V30 33 H 0.629424 -0.759361 3.371686 0
M  V30 34 H 0.847207 1.794646 3.576803 0
M  V30 35 H 1.476082 1.504503 5.238189 0
M  V30 36 H 2.753638 0.337393 2.687895 0
M  V30 37 H 3.390668 0.303693 4.329752 0
M  V30 38 H 2.851903 2.980860 2.952559 0
M  V30 39 H 3.569400 2.698483 4.549596 0
M  V30 40 H 5.475921 1.432718 3.409243 0
M  V30 41 H 5.343439 3.190846 2.914250 0
M  V30 42 H 3.692057 1.935606 -1.112231 0
M  V30 43 H 3.885639 0.188576 -0.679312 0
M  V30 44 H 1.412497 2.994022 -1.258395 0
M  V30 45 H 1.409315 2.705237 0.528563 0
M  V30 46 H -0.573910 1.366849 0.006922 0
M  V30 47 H 2.173394 -0.854891 0.438602 0
M  V30 48 H 0.912005 0.253242 1.149382 0
M  V30 49 H -0.161193 -2.264745 0.739741 0
M  V30 50 H -0.330712 -2.898845 -2.889954 0
M  V30 51 H -2.296147 -4.075223 -3.952848 0
M  V30 52 H -5.739478 -5.433743 -1.143857 0
M  V30 53 H -6.174403 -3.766851 -1.579063 0
M  V30 54 H -6.723706 -5.104959 -2.611752 0
M  V30 55 H -5.646360 -5.429242 -4.448910 0
M  V30 56 H -3.943523 -6.049727 -4.179320 0
M  V30 57 H -4.165676 -4.413622 -4.803487 0
M  V30 58 H -4.517887 -3.638520 -0.404409 0
M  V30 59 H -2.681556 -2.519625 0.630699 0
M  V30 END ATOM
M  V30 BEGIN BOND
M  V30 1 1 1 2
M  V30 2 1 2 3
M  V30 3 1 3 4
M  V30 4 1 4 5
M  V30 5 1 5 6
M  V30 6 1 6 7
M  V30 7 2 7 8
M  V30 8 1 7 9
M  V30 9 1 9 10
M  V30 10 1 10 11
M  V30 11 1 11 12
M  V30 12 1 12 13
M  V30 13 1 11 14
M  V30 14 1 14 15
M  V30 15 2 15 16
M  V30 16 1 16 17
M  V30 17 2 17 18
M  V30 18 1 18 19
M  V30 19 2 19 20
M  V30 20 1 20 21
M  V30 21 1 21 22
M  V30 22 1 21 23
M  V30 23 1 20 24
M  V30 24 2 24 25
M  V30 25 1 15 26
M  V30 26 2 26 27
M  V30 27 1 26 28
M  V30 28 1 28 11
M  V30 29 1 25 17
M  V30 30 1 1 29
M  V30 31 1 1 30
M  V30 32 1 1 31
M  V30 33 1 2 32
M  V30 34 1 2 33
M  V30 35 1 3 34
M  V30 36 1 3 35
M  V30 37 1 4 36
M  V30 38 1 4 37
M  V30 39 1 5 38
M  V30 40 1 5 39
M  V30 41 1 6 40
M  V30 42 1 6 41
M  V30 43 1 10 42
M  V30 44 1 10 43
M  V30 45 1 12 44
M  V30 46 1 12 45
M  V30 47 1 13 46
M  V30 48 1 14 47
M  V30 49 1 14 48
M  V30 50 1 16 49
M  V30 51 1 18 50
M  V30 52 1 19 51
M  V30 53 1 22 52
M  V30 54 1 22 53
M  V30 55 1 22 54
M  V30 56 1 23 55
M  V30 57 1 23 56
M  V30 58 1 23 57
M  V30 59 1 24 58
M  V30 60 1 25 59
M  V30 END BOND
M  V30 END CTAB
M  END
>  <Dataset>  (707) 
ChEMBL_Kinases

>  <Ligand_Instance>  (707) 
nan

>  <PDB_ID>  (707) 
nan

>  <Standardized_SMILES>  (707) 
CCCCCCC(=O)OCC1(CO)C/C(=C/c2ccc(N(C)C)cc2)C(=O)O1

>  <Name>  (707) 
nan

>  <Pocket>  (707) 
nan

>  <ATP_Site>  (707) 
nan

>  <Peripheral>  (707) 
nan

>  <Num_H_Atoms_ProtBoundConf>  (707) 
nan

>  <Num_Resolved_Atoms>  (707) 
nan

>  <Num_Not_Resolved_Atoms>  (707) 
nan

$$$$
CHEMBL4646074
     RDKit          3D

  0  0  0  0  0  0  0  0  0  0999 V3000
M  V30 BEGIN CTAB
M  V30 COUNTS 45 48 0 0 0
M  V30 BEGIN ATOM
M  V30 1 N 2.653400 -5.202800 2.042354 0
M  V30 2 C 2.336762 -4.228579 1.062113 0
M  V30 3 C 1.021197 -3.855103 0.963790 0
M  V30 4 C 0.567548 -2.920103 0.057846 0
M  V30 5 C 1.436313 -2.299299 -0.814734 0
M  V30 6 C 1.200079 -1.294592 -1.822879 0
M  V30 7 C 1.688306 -1.646619 -3.088628 0
M  V30 8 N 1.506586 -0.798404 -4.126307 0
M  V30 9 C 0.872214 0.386256 -4.010931 0
M  V30 10 C 0.377849 0.769317 -2.782296 0
M  V30 11 C -0.281675 1.950206 -2.522369 0
M  V30 12 C -0.739119 2.248706 -1.232940 0
M  V30 13 C -0.542924 1.360994 -0.166486 0
M  V30 14 O -1.087214 1.905879 0.965381 0
M  V30 15 C -1.051378 1.253311 2.204538 0
M  V30 16 C -0.171028 2.012854 3.205658 0
M  V30 17 C -0.192687 1.126454 4.438144 0
M  V30 18 N -1.485171 1.288291 5.019609 0
M  V30 19 C -2.586638 0.949087 4.205443 0
M  V30 20 C -2.430437 1.024321 2.746740 0
M  V30 21 C 0.117826 0.194097 -0.462558 0
M  V30 22 C 0.565611 -0.097465 -1.729674 0
M  V30 23 C 2.773705 -2.696758 -0.695956 0
M  V30 24 C 3.219514 -3.627332 0.206659 0
M  V30 25 H 2.223291 -5.064134 3.001580 0
M  V30 26 H 3.278643 -6.026120 1.850152 0
M  V30 27 H 0.248537 -4.282258 1.605332 0
M  V30 28 H -0.460383 -2.616713 -0.047058 0
M  V30 29 H 2.217375 -2.554203 -3.353456 0
M  V30 30 H 0.716750 1.074956 -4.822530 0
M  V30 31 H -0.407477 2.599659 -3.376615 0
M  V30 32 H -1.239120 3.230686 -1.221379 0
M  V30 33 H -0.533552 0.286944 2.077743 0
M  V30 34 H 0.828197 2.077844 2.775011 0
M  V30 35 H -0.607921 3.010977 3.402457 0
M  V30 36 H -0.067430 0.071517 4.102991 0
M  V30 37 H 0.574562 1.402616 5.176383 0
M  V30 38 H -1.521911 0.827252 5.947863 0
M  V30 39 H -2.935853 -0.070648 4.542498 0
M  V30 40 H -3.446800 1.617651 4.495596 0
M  V30 41 H -2.783318 0.064328 2.280654 0
M  V30 42 H -3.084636 1.800976 2.275946 0
M  V30 43 H 0.239834 -0.429262 0.395482 0
M  V30 44 H 3.563857 -2.279811 -1.330583 0
M  V30 45 H 4.257549 -3.917982 0.279561 0
M  V30 END ATOM
M  V30 BEGIN BOND
M  V30 1 1 1 2
M  V30 2 2 2 3
M  V30 3 1 3 4
M  V30 4 2 4 5
M  V30 5 1 5 6
M  V30 6 2 6 7
M  V30 7 1 7 8
M  V30 8 2 8 9
M  V30 9 1 9 10
M  V30 10 2 10 11
M  V30 11 1 11 12
M  V30 12 2 12 13
M  V30 13 1 13 14
M  V30 14 1 14 15
M  V30 15 1 15 16
M  V30 16 1 16 17
M  V30 17 1 17 18
M  V30 18 1 18 19
M  V30 19 1 19 20
M  V30 20 1 13 21
M  V30 21 2 21 22
M  V30 22 1 5 23
M  V30 23 2 23 24
M  V30 24 1 24 2
M  V30 25 1 22 6
M  V30 26 1 22 10
M  V30 27 1 20 15
M  V30 28 1 1 25
M  V30 29 1 1 26
M  V30 30 1 3 27
M  V30 31 1 4 28
M  V30 32 1 7 29
M  V30 33 1 9 30
M  V30 34 1 11 31
M  V30 35 1 12 32
M  V30 36 1 15 33
M  V30 37 1 16 34
M  V30 38 1 16 35
M  V30 39 1 17 36
M  V30 40 1 17 37
M  V30 41 1 18 38
M  V30 42 1 19 39
M  V30 43 1 19 40
M  V30 44 1 20 41
M  V30 45 1 20 42
M  V30 46 1 21 43
M  V30 47 1 23 44
M  V30 48 1 24 45
M  V30 END BOND
M  V30 END CTAB
M  END
>  <Dataset>  (708) 
ChEMBL_Kinases

>  <Ligand_Instance>  (708) 
nan

>  <PDB_ID>  (708) 
nan

>  <Standardized_SMILES>  (708) 
Nc1ccc(-c2cncc3ccc(OC4CCNCC4)cc23)cc1

>  <Name>  (708) 
nan

>  <Pocket>  (708) 
nan

>  <ATP_Site>  (708) 
nan

>  <Peripheral>  (708) 
nan

>  <Num_H_Atoms_ProtBoundConf>  (708) 
nan

>  <Num_Resolved_Atoms>  (708) 
nan

>  <Num_Not_Resolved_Atoms>  (708) 
nan

$$$$
CHEMBL4644798
     RDKit          3D

  0  0  0  0  0  0  0  0  0  0999 V3000
M  V30 BEGIN CTAB
M  V30 COUNTS 42 46 0 0 0
M  V30 BEGIN ATOM
M  V30 1 C 2.662774 -5.524404 1.894844 0
M  V30 2 C 3.973145 -5.690367 2.289038 0
M  V30 3 C 4.778297 -4.579304 2.398611 0
M  V30 4 C 4.165136 -3.364317 2.089788 0
M  V30 5 S 4.706888 -1.585635 2.050711 0
M  V30 6 C 3.073807 -0.934827 1.510891 0
M  V30 7 C 3.019095 0.519473 1.336307 0
M  V30 8 C 4.088201 1.363847 1.551503 0
M  V30 9 N 4.075609 2.690760 1.402945 0
M  V30 10 C 2.948400 3.292244 1.013088 0
M  V30 11 C 1.844194 2.501058 0.781983 0
M  V30 12 C 0.695314 3.151403 0.380625 0
M  V30 13 C -0.424238 2.381571 0.142780 0
M  V30 14 C -0.446493 0.989971 0.288322 0
M  V30 15 O -1.561277 0.211804 0.052756 0
M  V30 16 C -2.807410 0.659110 -0.354209 0 CFG=1
M  V30 17 C -3.292051 -0.006480 -1.627925 0
M  V30 18 C -4.417811 -0.914456 -1.200614 0
M  V30 19 N -5.043566 -0.122620 -0.150041 0
M  V30 20 C -3.909151 0.277234 0.635538 0
M  V30 21 C 0.748867 0.387496 0.697854 0
M  V30 22 C 1.870050 1.130830 0.939084 0
M  V30 23 N 2.452267 -1.929431 1.441296 0
M  V30 24 C 2.802068 -3.159399 1.676197 0
M  V30 25 C 2.065401 -4.322385 1.591959 0
M  V30 26 H 2.078565 -6.458210 1.829318 0
M  V30 27 H 4.482418 -6.606445 2.535350 0
M  V30 28 H 5.798765 -4.459120 2.678323 0
M  V30 29 H 5.045395 0.976528 1.869034 0
M  V30 30 H 2.896487 4.362262 0.881260 0
M  V30 31 H 0.673514 4.227781 0.256791 0
M  V30 32 H -1.297051 2.900614 -0.164882 0
M  V30 33 H -2.897224 1.742457 -0.498215 0
M  V30 34 H -2.495430 -0.518465 -2.184964 0
M  V30 35 H -3.752449 0.747108 -2.330200 0
M  V30 36 H -5.108900 -1.165385 -2.017276 0
M  V30 37 H -3.928290 -1.821927 -0.767177 0
M  V30 38 H -5.674331 -0.719333 0.424096 0
M  V30 39 H -3.573863 -0.536278 1.312196 0
M  V30 40 H -4.153267 1.140138 1.284602 0
M  V30 41 H 0.671746 -0.662955 0.790396 0
M  V30 42 H 1.031289 -4.364495 1.299727 0
M  V30 END ATOM
M  V30 BEGIN BOND
M  V30 1 2 1 2
M  V30 2 1 2 3
M  V30 3 2 3 4
M  V30 4 1 4 5
M  V30 5 1 5 6
M  V30 6 1 6 7
M  V30 7 2 7 8
M  V30 8 1 8 9
M  V30 9 2 9 10
M  V30 10 1 10 11
M  V30 11 2 11 12
M  V30 12 1 12 13
M  V30 13 2 13 14
M  V30 14 1 14 15
M  V30 15 1 15 16
M  V30 16 1 16 17
M  V30 17 1 17 18
M  V30 18 1 18 19
M  V30 19 1 19 20
M  V30 20 1 14 21
M  V30 21 2 21 22
M  V30 22 2 6 23
M  V30 23 1 23 24
M  V30 24 2 24 25
M  V30 25 1 25 1
M  V30 26 1 24 4
M  V30 27 1 22 7
M  V30 28 1 22 11
M  V30 29 1 20 16
M  V30 30 1 1 26
M  V30 31 1 2 27
M  V30 32 1 3 28
M  V30 33 1 8 29
M  V30 34 1 10 30
M  V30 35 1 12 31
M  V30 36 1 13 32
M  V30 37 1 16 33 CFG=3
M  V30 38 1 17 34
M  V30 39 1 17 35
M  V30 40 1 18 36
M  V30 41 1 18 37
M  V30 42 1 19 38
M  V30 43 1 20 39
M  V30 44 1 20 40
M  V30 45 1 21 41
M  V30 46 1 25 42
M  V30 END BOND
M  V30 END CTAB
M  END
>  <Dataset>  (709) 
ChEMBL_Kinases

>  <Ligand_Instance>  (709) 
nan

>  <PDB_ID>  (709) 
nan

>  <Standardized_SMILES>  (709) 
c1ccc2sc(-c3cncc4ccc(O[C@H]5CCNC5)cc34)nc2c1

>  <Name>  (709) 
nan

>  <Pocket>  (709) 
nan

>  <ATP_Site>  (709) 
nan

>  <Peripheral>  (709) 
nan

>  <Num_H_Atoms_ProtBoundConf>  (709) 
nan

>  <Num_Resolved_Atoms>  (709) 
nan

>  <Num_Not_Resolved_Atoms>  (709) 
nan

$$$$
CHEMBL4646085
     RDKit          3D

  0  0  0  0  0  0  0  0  0  0999 V3000
M  V30 BEGIN CTAB
M  V30 COUNTS 45 48 0 0 0
M  V30 BEGIN ATOM
M  V30 1 C -3.141595 -0.230906 1.996949 0
M  V30 2 C -1.895436 -0.969925 1.397053 0 CFG=1
M  V30 3 C -1.507258 -1.876425 2.476971 0
M  V30 4 C -0.263800 -2.658237 2.475709 0
M  V30 5 C 1.021359 -1.918715 2.688024 0
M  V30 6 O 1.381029 -0.942866 1.749737 0
M  V30 7 C 2.565998 -0.190885 1.914809 0
M  V30 8 N 3.675999 -0.479464 2.652934 0
M  V30 9 N 4.561684 0.502004 2.535353 0
M  V30 10 C 5.894924 0.748302 3.075444 0
M  V30 11 C 4.081960 1.464385 1.727721 0
M  V30 12 C 2.855986 1.024741 1.353352 0
M  V30 13 C 1.730366 1.411521 0.539325 0
M  V30 14 O 1.138841 2.386356 0.995357 0
M  V30 15 N 1.083939 1.018552 -0.619830 0
M  V30 16 C 0.300554 0.795622 -1.722263 0
M  V30 17 C 0.280605 1.273278 -2.997062 0
M  V30 18 C -0.738080 0.737474 -3.738565 0
M  V30 19 C -1.621761 -0.178973 -3.223448 0
M  V30 20 C -1.564076 -0.632170 -1.940337 0
M  V30 21 N -0.577848 -0.124195 -1.187223 0
M  V30 22 C -2.296068 -1.570377 -1.143544 0
M  V30 23 N -3.019950 -2.534744 -1.725672 0
M  V30 24 N -3.602187 -3.287175 -0.799352 0
M  V30 25 C -3.196168 -2.732410 0.361995 0
M  V30 26 N -2.374171 -1.650831 0.186935 0
M  V30 27 H -3.683044 0.123855 1.102593 0
M  V30 28 H -2.814426 0.561772 2.681163 0
M  V30 29 H -3.746969 -1.033107 2.446749 0
M  V30 30 H -1.264165 -0.165901 1.079830 0
M  V30 31 H -2.421542 -2.523961 2.699597 0
M  V30 32 H -1.477085 -1.241024 3.426479 0
M  V30 33 H -0.345158 -3.356712 3.370307 0
M  V30 34 H -0.180362 -3.384390 1.628284 0
M  V30 35 H 1.891371 -2.610892 2.795002 0
M  V30 36 H 0.956592 -1.357003 3.666723 0
M  V30 37 H 6.036727 1.775251 3.422433 0
M  V30 38 H 6.093103 0.062589 3.939312 0
M  V30 39 H 6.620435 0.430128 2.284693 0
M  V30 40 H 4.289337 2.426268 1.280099 0
M  V30 41 H 1.782599 0.385007 -0.864480 0
M  V30 42 H 1.114725 1.934756 -2.996953 0
M  V30 43 H -0.752917 1.108774 -4.724693 0
M  V30 44 H -2.430859 -0.622015 -3.768790 0
M  V30 45 H -3.614376 -3.270338 1.221429 0
M  V30 END ATOM
M  V30 BEGIN BOND
M  V30 1 1 1 2
M  V30 2 1 2 3
M  V30 3 1 3 4
M  V30 4 1 4 5
M  V30 5 1 5 6
M  V30 6 1 6 7
M  V30 7 2 7 8
M  V30 8 1 8 9
M  V30 9 1 9 10
M  V30 10 1 9 11
M  V30 11 2 11 12
M  V30 12 1 12 13
M  V30 13 2 13 14
M  V30 14 1 13 15
M  V30 15 1 15 16
M  V30 16 1 16 17
M  V30 17 2 17 18
M  V30 18 1 18 19
M  V30 19 2 19 20
M  V30 20 1 20 21
M  V30 21 1 20 22
M  V30 22 2 22 23
M  V30 23 1 23 24
M  V30 24 2 24 25
M  V30 25 1 25 26
M  V30 26 1 26 2
M  V30 27 1 12 7
M  V30 28 2 21 16
M  V30 29 1 26 22
M  V30 30 1 1 27
M  V30 31 1 1 28
M  V30 32 1 1 29
M  V30 33 1 2 30 CFG=3
M  V30 34 1 3 31
M  V30 35 1 3 32
M  V30 36 1 4 33
M  V30 37 1 4 34
M  V30 38 1 5 35
M  V30 39 1 5 36
M  V30 40 1 10 37
M  V30 41 1 10 38
M  V30 42 1 10 39
M  V30 43 1 11 40
M  V30 44 1 15 41
M  V30 45 1 17 42
M  V30 46 1 18 43
M  V30 47 1 19 44
M  V30 48 1 25 45
M  V30 END BOND
M  V30 END CTAB
M  END
>  <Dataset>  (710) 
ChEMBL_Kinases

>  <Ligand_Instance>  (710) 
nan

>  <PDB_ID>  (710) 
nan

>  <Standardized_SMILES>  (710) 
C[C@H]1CCCOc2nn(C)cc2C(=O)Nc2cccc(n2)-c2nncn21

>  <Name>  (710) 
nan

>  <Pocket>  (710) 
nan

>  <ATP_Site>  (710) 
nan

>  <Peripheral>  (710) 
nan

>  <Num_H_Atoms_ProtBoundConf>  (710) 
nan

>  <Num_Resolved_Atoms>  (710) 
nan

>  <Num_Not_Resolved_Atoms>  (710) 
nan

$$$$
CHEMBL4522851
     RDKit          3D

  0  0  0  0  0  0  0  0  0  0999 V3000
M  V30 BEGIN CTAB
M  V30 COUNTS 44 46 0 0 0
M  V30 BEGIN ATOM
M  V30 1 C -0.236532 -4.955961 -0.363527 0
M  V30 2 C 0.474411 -3.641866 -0.614496 0
M  V30 3 C -0.096868 -2.645974 0.388913 0
M  V30 4 C 0.160179 -3.139428 1.796994 0
M  V30 5 C -1.588310 -2.539026 0.184689 0
M  V30 6 N -2.170911 -1.610864 1.111947 0
M  V30 7 C 0.603924 -1.343536 0.239190 0
M  V30 8 C 1.584834 -1.201526 -0.748877 0
M  V30 9 C 2.283737 -0.029387 -0.951472 0
M  V30 10 C 3.324092 0.105482 -2.006714 0
M  V30 11 C 2.028475 1.069319 -0.162711 0
M  V30 12 C 1.064908 0.950251 0.817468 0
M  V30 13 C 0.828382 2.139039 1.631379 0
M  V30 14 C 1.981802 2.780967 2.099046 0
M  V30 15 C 1.879338 3.911380 2.879189 0
M  V30 16 N 0.672808 4.439634 3.220163 0
M  V30 17 C -0.436049 3.823886 2.771427 0
M  V30 18 N -1.773593 4.064326 2.909411 0
M  V30 19 N -2.473698 3.129242 2.247286 0
M  V30 20 C -1.618898 2.259367 1.663387 0
M  V30 21 C -0.371991 2.690385 1.988351 0
M  V30 22 C 0.386303 -0.237299 0.991204 0
M  V30 23 H -1.169128 -4.951116 -0.979508 0
M  V30 24 H -0.398917 -5.149025 0.701591 0
M  V30 25 H 0.441127 -5.766304 -0.732537 0
M  V30 26 H 0.279910 -3.262446 -1.616294 0
M  V30 27 H 1.545681 -3.761324 -0.460876 0
M  V30 28 H 0.417168 -2.280412 2.464260 0
M  V30 29 H -0.750375 -3.630385 2.189377 0
M  V30 30 H 1.045555 -3.797008 1.773466 0
M  V30 31 H -1.777055 -2.287824 -0.875961 0
M  V30 32 H -1.996727 -3.558180 0.340132 0
M  V30 33 H -3.189243 -1.490925 0.868023 0
M  V30 34 H -2.116612 -2.032952 2.062059 0
M  V30 35 H 1.866390 -1.997571 -1.424699 0
M  V30 36 H 4.310907 0.018355 -1.493331 0
M  V30 37 H 3.281372 1.080995 -2.514445 0
M  V30 38 H 3.254140 -0.760080 -2.683044 0
M  V30 39 H 2.567695 1.990485 -0.311198 0
M  V30 40 H 3.011900 2.471786 1.906056 0
M  V30 41 H 2.709737 4.475472 3.286444 0
M  V30 42 H -2.197664 4.859896 3.451060 0
M  V30 43 H -1.900164 1.407641 1.066895 0
M  V30 44 H -0.344154 -0.268308 1.767874 0
M  V30 END ATOM
M  V30 BEGIN BOND
M  V30 1 1 1 2
M  V30 2 1 2 3
M  V30 3 1 3 4
M  V30 4 1 3 5
M  V30 5 1 5 6
M  V30 6 1 3 7
M  V30 7 2 7 8
M  V30 8 1 8 9
M  V30 9 1 9 10
M  V30 10 2 9 11
M  V30 11 1 11 12
M  V30 12 1 12 13
M  V30 13 2 13 14
M  V30 14 1 14 15
M  V30 15 2 15 16
M  V30 16 1 16 17
M  V30 17 1 17 18
M  V30 18 1 18 19
M  V30 19 2 19 20
M  V30 20 1 20 21
M  V30 21 2 12 22
M  V30 22 1 22 7
M  V30 23 1 21 13
M  V30 24 2 21 17
M  V30 25 1 1 23
M  V30 26 1 1 24
M  V30 27 1 1 25
M  V30 28 1 2 26
M  V30 29 1 2 27
M  V30 30 1 4 28
M  V30 31 1 4 29
M  V30 32 1 4 30
M  V30 33 1 5 31
M  V30 34 1 5 32
M  V30 35 1 6 33
M  V30 36 1 6 34
M  V30 37 1 8 35
M  V30 38 1 10 36
M  V30 39 1 10 37
M  V30 40 1 10 38
M  V30 41 1 11 39
M  V30 42 1 14 40
M  V30 43 1 15 41
M  V30 44 1 18 42
M  V30 45 1 20 43
M  V30 46 1 22 44
M  V30 END BOND
M  V30 END CTAB
M  END
>  <Dataset>  (711) 
ChEMBL_Kinases

>  <Ligand_Instance>  (711) 
nan

>  <PDB_ID>  (711) 
nan

>  <Standardized_SMILES>  (711) 
CCC(C)(CN)c1cc(C)cc(-c2ccnc3[nH]ncc23)c1

>  <Name>  (711) 
nan

>  <Pocket>  (711) 
nan

>  <ATP_Site>  (711) 
nan

>  <Peripheral>  (711) 
nan

>  <Num_H_Atoms_ProtBoundConf>  (711) 
nan

>  <Num_Resolved_Atoms>  (711) 
nan

>  <Num_Not_Resolved_Atoms>  (711) 
nan

$$$$
CHEMBL4522820
     RDKit          3D

  0  0  0  0  0  0  0  0  0  0999 V3000
M  V30 BEGIN CTAB
M  V30 COUNTS 48 51 0 0 0
M  V30 BEGIN ATOM
M  V30 1 C 2.352504 -2.724389 3.214204 0
M  V30 2 N 3.463423 -3.466752 2.626813 0
M  V30 3 N 4.168154 -4.408142 3.196420 0
M  V30 4 C 5.118560 -4.881453 2.369827 0
M  V30 5 C 4.952594 -4.140863 1.196429 0
M  V30 6 C 3.922504 -3.272228 1.380039 0
M  V30 7 C 3.391443 -2.300205 0.424780 0
M  V30 8 C 3.859658 -2.096725 -0.857191 0
M  V30 9 C 3.068695 -1.095093 -1.386370 0
M  V30 10 C 2.152452 -0.722281 -0.422048 0
M  V30 11 C 1.121499 0.305989 -0.556407 0
M  V30 12 O 1.019917 0.936505 -1.629791 0
M  V30 13 N 0.263259 0.548463 0.560843 0
M  V30 14 C -0.816711 1.546460 0.578685 0 CFG=2
M  V30 15 C -0.528987 2.558210 1.665998 0
M  V30 16 N -0.869523 2.049292 2.971125 0
M  V30 17 C -2.295682 1.907427 3.137887 0
M  V30 18 C -2.989800 1.633548 1.836059 0
M  V30 19 C -2.094204 0.832519 0.931533 0 CFG=1
M  V30 20 C -2.850422 0.342411 -0.251513 0
M  V30 21 C -3.072402 -1.023549 -0.410022 0
M  V30 22 C -3.766511 -1.570281 -1.480943 0
M  V30 23 C -4.247579 -0.681570 -2.418970 0
M  V30 24 Cl -5.127355 -1.355905 -3.779240 0
M  V30 25 C -4.062490 0.700731 -2.324393 0
M  V30 26 C -3.359693 1.192856 -1.230573 0
M  V30 27 O 2.403392 -1.474028 0.615100 0
M  V30 28 H 2.021031 -3.208405 4.161588 0
M  V30 29 H 2.690972 -1.687074 3.436248 0
M  V30 30 H 1.458843 -2.733240 2.545317 0
M  V30 31 H 5.882779 -5.628940 2.440020 0
M  V30 32 H 5.542611 -4.232912 0.279126 0
M  V30 33 H 4.682467 -2.621997 -1.341646 0
M  V30 34 H 3.194121 -0.712828 -2.386293 0
M  V30 35 H 0.414332 -0.029505 1.436525 0
M  V30 36 H -0.840843 2.050082 -0.385298 0
M  V30 37 H -1.126514 3.461222 1.477912 0
M  V30 38 H 0.531807 2.873876 1.662385 0
M  V30 39 H -0.308392 1.248715 3.284462 0
M  V30 40 H -2.683031 2.894247 3.526056 0
M  V30 41 H -2.571881 1.180501 3.916815 0
M  V30 42 H -3.859937 0.973580 2.074271 0
M  V30 43 H -3.330511 2.581817 1.387448 0
M  V30 44 H -1.835385 -0.102285 1.506367 0
M  V30 45 H -2.705440 -1.759701 0.314518 0
M  V30 46 H -3.921143 -2.633055 -1.574177 0
M  V30 47 H -4.463203 1.327993 -3.088280 0
M  V30 48 H -3.205356 2.249750 -1.136922 0
M  V30 END ATOM
M  V30 BEGIN BOND
M  V30 1 1 1 2
M  V30 2 1 2 3
M  V30 3 2 3 4
M  V30 4 1 4 5
M  V30 5 2 5 6
M  V30 6 1 6 7
M  V30 7 2 7 8
M  V30 8 1 8 9
M  V30 9 2 9 10
M  V30 10 1 10 11
M  V30 11 2 11 12
M  V30 12 1 11 13
M  V30 13 1 13 14
M  V30 14 1 14 15
M  V30 15 1 15 16
M  V30 16 1 16 17
M  V30 17 1 17 18
M  V30 18 1 18 19
M  V30 19 1 19 20
M  V30 20 2 20 21
M  V30 21 1 21 22
M  V30 22 2 22 23
M  V30 23 1 23 24
M  V30 24 1 23 25
M  V30 25 2 25 26
M  V30 26 1 10 27
M  V30 27 1 6 2
M  V30 28 1 27 7
M  V30 29 1 19 14
M  V30 30 1 26 20
M  V30 31 1 1 28
M  V30 32 1 1 29
M  V30 33 1 1 30
M  V30 34 1 4 31
M  V30 35 1 5 32
M  V30 36 1 8 33
M  V30 37 1 9 34
M  V30 38 1 13 35
M  V30 39 1 14 36 CFG=3
M  V30 40 1 15 37
M  V30 41 1 15 38
M  V30 42 1 16 39
M  V30 43 1 17 40
M  V30 44 1 17 41
M  V30 45 1 18 42
M  V30 46 1 18 43
M  V30 47 1 19 44 CFG=1
M  V30 48 1 21 45
M  V30 49 1 22 46
M  V30 50 1 25 47
M  V30 51 1 26 48
M  V30 END BOND
M  V30 END CTAB
M  END
>  <Dataset>  (712) 
ChEMBL_Kinases

>  <Ligand_Instance>  (712) 
nan

>  <PDB_ID>  (712) 
nan

>  <Standardized_SMILES>  (712) 
Cn1nccc1-c1ccc(C(=O)N[C@@H]2CNCC[C@H]2c2ccc(Cl)cc2)o1

>  <Name>  (712) 
nan

>  <Pocket>  (712) 
nan

>  <ATP_Site>  (712) 
nan

>  <Peripheral>  (712) 
nan

>  <Num_H_Atoms_ProtBoundConf>  (712) 
nan

>  <Num_Resolved_Atoms>  (712) 
nan

>  <Num_Not_Resolved_Atoms>  (712) 
nan

$$$$
CHEMBL4522719
     RDKit          3D

  0  0  0  0  0  0  0  0  0  0999 V3000
M  V30 BEGIN CTAB
M  V30 COUNTS 50 53 0 0 0
M  V30 BEGIN ATOM
M  V30 1 C 3.024074 -4.756996 -3.612123 0
M  V30 2 N 3.957263 -3.664641 -3.819762 0
M  V30 3 N 4.901638 -3.695751 -4.721977 0
M  V30 4 C 5.572156 -2.523386 -4.635316 0
M  V30 5 C 4.985911 -1.783663 -3.636700 0
M  V30 6 C 3.955068 -2.515904 -3.118356 0
M  V30 7 C 3.082929 -2.073831 -2.033061 0
M  V30 8 C 3.722479 -1.488643 -0.948826 0
M  V30 9 C 3.014939 -1.027930 0.143489 0
M  V30 10 C 1.639571 -1.146059 0.170300 0
M  V30 11 C 0.874207 -0.664954 1.316779 0
M  V30 12 O 1.451020 -0.134718 2.300434 0
M  V30 13 N -0.542608 -0.812863 1.290078 0
M  V30 14 C -1.442600 -0.378022 2.368017 0 CFG=2
M  V30 15 C -2.087923 -1.585659 3.016622 0
M  V30 16 N -3.241241 -2.034870 2.222257 0
M  V30 17 C -4.252834 -1.040687 2.431683 0
M  V30 18 C -3.851183 0.362582 2.193056 0
M  V30 19 C -2.424560 0.632960 1.902140 0 CFG=1
M  V30 20 C -2.093309 1.969465 2.518231 0
M  V30 21 C -1.716086 3.088544 1.847250 0
M  V30 22 C -1.453179 4.224605 2.597088 0
M  V30 23 C -1.558890 4.257214 3.968647 0
M  V30 24 C -1.945345 3.096340 4.606284 0
M  V30 25 F -2.043943 3.153411 5.976679 0
M  V30 26 C -2.216564 1.943263 3.897681 0
M  V30 27 N 1.041602 -1.716512 -0.891695 0
M  V30 28 C 1.703832 -2.174692 -1.969929 0
M  V30 29 H 3.574695 -5.731144 -3.645421 0
M  V30 30 H 2.267948 -4.726349 -4.433111 0
M  V30 31 H 2.482563 -4.688317 -2.643875 0
M  V30 32 H 6.408176 -2.185032 -5.211163 0
M  V30 33 H 5.287358 -0.802408 -3.321114 0
M  V30 34 H 4.806274 -1.365989 -0.908993 0
M  V30 35 H 3.503417 -0.569732 0.994411 0
M  V30 36 H -1.094613 -1.244333 0.505112 0
M  V30 37 H -0.787237 0.061777 3.147792 0
M  V30 38 H -2.498345 -1.303531 4.007796 0
M  V30 39 H -1.396748 -2.419715 3.128646 0
M  V30 40 H -3.562925 -2.919951 2.675738 0
M  V30 41 H -5.146108 -1.351226 1.815728 0
M  V30 42 H -4.617454 -1.197228 3.489396 0
M  V30 43 H -4.221223 0.991226 3.051183 0
M  V30 44 H -4.466450 0.741529 1.325355 0
M  V30 45 H -2.282783 0.807986 0.798624 0
M  V30 46 H -1.647727 3.015113 0.781524 0
M  V30 47 H -1.152766 5.120267 2.077501 0
M  V30 48 H -1.342460 5.165445 4.495276 0
M  V30 49 H -2.511992 1.085475 4.488659 0
M  V30 50 H 1.243500 -2.633906 -2.828771 0
M  V30 END ATOM
M  V30 BEGIN BOND
M  V30 1 1 1 2
M  V30 2 1 2 3
M  V30 3 2 3 4
M  V30 4 1 4 5
M  V30 5 2 5 6
M  V30 6 1 6 7
M  V30 7 2 7 8
M  V30 8 1 8 9
M  V30 9 2 9 10
M  V30 10 1 10 11
M  V30 11 2 11 12
M  V30 12 1 11 13
M  V30 13 1 13 14
M  V30 14 1 14 15
M  V30 15 1 15 16
M  V30 16 1 16 17
M  V30 17 1 17 18
M  V30 18 1 18 19
M  V30 19 1 19 20
M  V30 20 2 20 21
M  V30 21 1 21 22
M  V30 22 2 22 23
M  V30 23 1 23 24
M  V30 24 1 24 25
M  V30 25 2 24 26
M  V30 26 1 10 27
M  V30 27 2 27 28
M  V30 28 1 6 2
M  V30 29 1 28 7
M  V30 30 1 19 14
M  V30 31 1 26 20
M  V30 32 1 1 29
M  V30 33 1 1 30
M  V30 34 1 1 31
M  V30 35 1 4 32
M  V30 36 1 5 33
M  V30 37 1 8 34
M  V30 38 1 9 35
M  V30 39 1 13 36
M  V30 40 1 14 37 CFG=1
M  V30 41 1 15 38
M  V30 42 1 15 39
M  V30 43 1 16 40
M  V30 44 1 17 41
M  V30 45 1 17 42
M  V30 46 1 18 43
M  V30 47 1 18 44
M  V30 48 1 19 45 CFG=3
M  V30 49 1 21 46
M  V30 50 1 22 47
M  V30 51 1 23 48
M  V30 52 1 26 49
M  V30 53 1 28 50
M  V30 END BOND
M  V30 END CTAB
M  END
>  <Dataset>  (713) 
ChEMBL_Kinases

>  <Ligand_Instance>  (713) 
nan

>  <PDB_ID>  (713) 
nan

>  <Standardized_SMILES>  (713) 
Cn1nccc1-c1ccc(C(=O)N[C@@H]2CNCC[C@H]2c2cccc(F)c2)nc1

>  <Name>  (713) 
nan

>  <Pocket>  (713) 
nan

>  <ATP_Site>  (713) 
nan

>  <Peripheral>  (713) 
nan

>  <Num_H_Atoms_ProtBoundConf>  (713) 
nan

>  <Num_Resolved_Atoms>  (713) 
nan

>  <Num_Not_Resolved_Atoms>  (713) 
nan

$$$$
CHEMBL4522691
     RDKit          3D

  0  0  0  0  0  0  0  0  0  0999 V3000
M  V30 BEGIN CTAB
M  V30 COUNTS 47 49 0 0 0
M  V30 BEGIN ATOM
M  V30 1 C 1.142977 -4.171608 0.616673 0
M  V30 2 N 0.691067 -3.772800 1.909861 0
M  V30 3 C 0.691255 -4.863381 2.830864 0
M  V30 4 C 1.252157 -2.566771 2.428800 0
M  V30 5 C 0.617322 -2.358534 3.809741 0
M  V30 6 C 2.732419 -2.624160 2.656920 0
M  V30 7 C 0.932207 -1.357727 1.613448 0
M  V30 8 N -0.492146 -1.082117 1.494132 0
M  V30 9 C -0.921809 0.046010 0.739812 0
M  V30 10 C -0.010084 0.856083 0.138066 0
M  V30 11 C -0.375196 1.959783 -0.602634 0
M  V30 12 C 0.608640 2.825642 -1.246271 0
M  V30 13 C 1.977239 2.660074 -1.199869 0
M  V30 14 C 2.842989 3.524983 -1.837031 0
M  V30 15 N 2.368902 4.573938 -2.534717 0
M  V30 16 C 1.047374 4.784803 -2.614578 0
M  V30 17 C 0.185605 3.918133 -1.976398 0
M  V30 18 N -1.685970 2.236064 -0.727990 0
M  V30 19 C -2.637129 1.476586 -0.159083 0
M  V30 20 C -3.970200 1.805201 -0.319317 0
M  V30 21 N -4.880532 1.027705 0.259964 0
M  V30 22 C -4.565850 -0.063603 0.994627 0
M  V30 23 C -3.229258 -0.367739 1.137864 0
M  V30 24 C -2.242690 0.381340 0.574360 0
M  V30 25 H 0.258829 -4.496169 0.005508 0
M  V30 26 H 1.680247 -3.427584 0.032542 0
M  V30 27 H 1.760678 -5.112452 0.692214 0
M  V30 28 H 1.509699 -4.859266 3.573723 0
M  V30 29 H -0.323784 -4.912375 3.319343 0
M  V30 30 H 0.786610 -5.832001 2.277257 0
M  V30 31 H 0.516037 -1.265101 4.042518 0
M  V30 32 H -0.393128 -2.773704 3.854835 0
M  V30 33 H 1.216590 -2.801804 4.616153 0
M  V30 34 H 2.917193 -3.181929 3.583594 0
M  V30 35 H 3.094542 -1.586774 2.813501 0
M  V30 36 H 3.306539 -3.055235 1.815322 0
M  V30 37 H 1.465032 -0.468985 2.010760 0
M  V30 38 H 1.371885 -1.486678 0.580020 0
M  V30 39 H -1.087238 -1.770821 1.996850 0
M  V30 40 H 1.039888 0.594035 0.266488 0
M  V30 41 H 2.365816 1.825649 -0.645429 0
M  V30 42 H 3.919171 3.347693 -1.768171 0
M  V30 43 H 0.626140 5.624119 -3.170766 0
M  V30 44 H -0.872750 4.108935 -2.055423 0
M  V30 45 H -4.309096 2.655970 -0.887439 0
M  V30 46 H -5.337245 -0.678179 1.455077 0
M  V30 47 H -3.000860 -1.239518 1.725874 0
M  V30 END ATOM
M  V30 BEGIN BOND
M  V30 1 1 1 2
M  V30 2 1 2 3
M  V30 3 1 2 4
M  V30 4 1 4 5
M  V30 5 1 4 6
M  V30 6 1 4 7
M  V30 7 1 7 8
M  V30 8 1 8 9
M  V30 9 2 9 10
M  V30 10 1 10 11
M  V30 11 1 11 12
M  V30 12 2 12 13
M  V30 13 1 13 14
M  V30 14 2 14 15
M  V30 15 1 15 16
M  V30 16 2 16 17
M  V30 17 2 11 18
M  V30 18 1 18 19
M  V30 19 2 19 20
M  V30 20 1 20 21
M  V30 21 2 21 22
M  V30 22 1 22 23
M  V30 23 2 23 24
M  V30 24 1 24 9
M  V30 25 1 17 12
M  V30 26 1 24 19
M  V30 27 1 1 25
M  V30 28 1 1 26
M  V30 29 1 1 27
M  V30 30 1 3 28
M  V30 31 1 3 29
M  V30 32 1 3 30
M  V30 33 1 5 31
M  V30 34 1 5 32
M  V30 35 1 5 33
M  V30 36 1 6 34
M  V30 37 1 6 35
M  V30 38 1 6 36
M  V30 39 1 7 37
M  V30 40 1 7 38
M  V30 41 1 8 39
M  V30 42 1 10 40
M  V30 43 1 13 41
M  V30 44 1 14 42
M  V30 45 1 16 43
M  V30 46 1 17 44
M  V30 47 1 20 45
M  V30 48 1 22 46
M  V30 49 1 23 47
M  V30 END BOND
M  V30 END CTAB
M  END
>  <Dataset>  (714) 
ChEMBL_Kinases

>  <Ligand_Instance>  (714) 
nan

>  <PDB_ID>  (714) 
nan

>  <Standardized_SMILES>  (714) 
CN(C)C(C)(C)CNc1cc(-c2ccncc2)nc2cnccc12

>  <Name>  (714) 
nan

>  <Pocket>  (714) 
nan

>  <ATP_Site>  (714) 
nan

>  <Peripheral>  (714) 
nan

>  <Num_H_Atoms_ProtBoundConf>  (714) 
nan

>  <Num_Resolved_Atoms>  (714) 
nan

>  <Num_Not_Resolved_Atoms>  (714) 
nan

$$$$
CHEMBL4646170
     RDKit          3D

  0  0  0  0  0  0  0  0  0  0999 V3000
M  V30 BEGIN CTAB
M  V30 COUNTS 36 38 0 0 0
M  V30 BEGIN ATOM
M  V30 1 N 2.486880 -1.566603 3.229247 0
M  V30 2 C 1.215478 -1.821001 3.250478 0
M  V30 3 N 0.662461 -3.144332 3.348501 0
M  V30 4 N 0.328689 -0.687072 3.175579 0
M  V30 5 C 0.542848 0.413660 2.289775 0
M  V30 6 C 0.320370 0.096558 0.847901 0
M  V30 7 C -1.145765 -0.352510 0.733922 0
M  V30 8 C -1.505213 -0.596617 -0.709738 0
M  V30 9 C -0.642643 -1.726024 -1.220988 0
M  V30 10 C 0.787104 -1.270453 -1.148995 0
M  V30 11 C 0.967557 -0.050167 -1.992823 0
M  V30 12 C 0.126588 1.070167 -1.413698 0
M  V30 13 C -1.314272 0.667716 -1.499141 0
M  V30 14 C 0.523122 1.359705 -0.006709 0
M  V30 15 C 1.215353 -0.962861 0.275695 0
M  V30 16 H 2.872940 -0.623989 3.159371 0
M  V30 17 H 0.604393 -3.752946 4.212488 0
M  V30 18 H 0.771369 -3.440197 4.339053 0
M  V30 19 H -0.515808 -0.709382 3.818541 0
M  V30 20 H 1.563624 0.849905 2.402174 0
M  V30 21 H -0.186316 1.215882 2.564445 0
M  V30 22 H -1.776686 0.422667 1.168662 0
M  V30 23 H -1.189489 -1.326010 1.267662 0
M  V30 24 H -2.570838 -0.908983 -0.718650 0
M  V30 25 H -0.871029 -2.610847 -0.610276 0
M  V30 26 H -0.886412 -1.843122 -2.297747 0
M  V30 27 H 1.414699 -2.108474 -1.502054 0
M  V30 28 H 2.023377 0.284040 -2.025734 0
M  V30 29 H 0.622184 -0.214993 -3.032291 0
M  V30 30 H 0.330788 1.989774 -2.031163 0
M  V30 31 H -1.640462 0.556160 -2.535550 0
M  V30 32 H -1.937916 1.443809 -1.006010 0
M  V30 33 H 1.621246 1.521739 0.006588 0
M  V30 34 H -0.041319 2.209602 0.384113 0
M  V30 35 H 2.253216 -0.588044 0.228866 0
M  V30 36 H 1.183547 -1.923630 0.843490 0
M  V30 END ATOM
M  V30 BEGIN BOND
M  V30 1 2 1 2 CFG=2
M  V30 2 1 2 3
M  V30 3 1 2 4
M  V30 4 1 4 5
M  V30 5 1 5 6
M  V30 6 1 6 7
M  V30 7 1 7 8
M  V30 8 1 8 9
M  V30 9 1 9 10
M  V30 10 1 10 11
M  V30 11 1 11 12
M  V30 12 1 12 13
M  V30 13 1 12 14
M  V30 14 1 10 15
M  V30 15 1 14 6
M  V30 16 1 15 6
M  V30 17 1 13 8
M  V30 18 1 1 16
M  V30 19 1 3 17
M  V30 20 1 3 18
M  V30 21 1 4 19
M  V30 22 1 5 20
M  V30 23 1 5 21
M  V30 24 1 7 22
M  V30 25 1 7 23
M  V30 26 1 8 24
M  V30 27 1 9 25
M  V30 28 1 9 26
M  V30 29 1 10 27
M  V30 30 1 11 28
M  V30 31 1 11 29
M  V30 32 1 12 30
M  V30 33 1 13 31
M  V30 34 1 13 32
M  V30 35 1 14 33
M  V30 36 1 14 34
M  V30 37 1 15 35
M  V30 38 1 15 36
M  V30 END BOND
M  V30 END CTAB
M  END
>  <Dataset>  (715) 
ChEMBL_Kinases

>  <Ligand_Instance>  (715) 
nan

>  <PDB_ID>  (715) 
nan

>  <Standardized_SMILES>  (715) 
N=C(N)NCC12CC3CC(CC(C3)C1)C2

>  <Name>  (715) 
nan

>  <Pocket>  (715) 
nan

>  <ATP_Site>  (715) 
nan

>  <Peripheral>  (715) 
nan

>  <Num_H_Atoms_ProtBoundConf>  (715) 
nan

>  <Num_Resolved_Atoms>  (715) 
nan

>  <Num_Not_Resolved_Atoms>  (715) 
nan

$$$$
CHEMBL4522601
     RDKit          3D

  0  0  0  0  0  0  0  0  0  0999 V3000
M  V30 BEGIN CTAB
M  V30 COUNTS 75 79 0 0 0
M  V30 BEGIN ATOM
M  V30 1 N 4.302198 0.627673 4.121879 0
M  V30 2 C 3.702355 -0.033883 3.025564 0
M  V30 3 O 3.600768 -1.277695 3.174305 0
M  V30 4 C 3.284991 0.774614 1.887686 0
M  V30 5 C 3.462361 2.159192 1.859512 0
M  V30 6 C 3.045297 2.857320 0.754804 0
M  V30 7 C 3.246228 4.306210 0.757911 0
M  V30 8 C 4.353321 4.762294 1.441855 0
M  V30 9 C 4.563440 6.145926 1.456587 0
M  V30 10 C 3.658969 6.948521 0.793511 0
M  V30 11 C 2.563991 6.463942 0.120020 0
M  V30 12 C 2.337395 5.089861 0.093676 0
M  V30 13 C 2.459012 2.222173 -0.319420 0
M  V30 14 C 2.293059 0.862372 -0.274042 0
M  V30 15 C 1.743866 -0.019576 -1.195845 0
M  V30 16 C 1.181971 0.327977 -2.507858 0
M  V30 17 C -0.290493 0.605129 -2.305279 0
M  V30 18 C -1.006668 -0.681158 -1.897304 0
M  V30 19 N -0.788706 -1.736764 -2.838250 0
M  V30 20 S -2.259981 -2.392825 -3.401771 0
M  V30 21 O -2.058720 -3.395270 -4.475782 0
M  V30 22 O -3.060488 -1.240334 -3.978757 0
M  V30 23 C -3.231713 -3.111760 -2.105018 0
M  V30 24 C -2.449398 -4.227232 -1.448139 0
M  V30 25 C -3.168575 -4.898694 -0.348596 0
M  V30 26 N -3.575369 -4.142137 0.770066 0
M  V30 27 C -4.235026 -4.952577 1.695320 0
M  V30 28 C -4.227391 -4.636038 3.126119 0
M  V30 29 C -4.225640 -3.176039 3.484074 0
M  V30 30 C -2.790365 -2.776137 3.650623 0
M  V30 31 C -2.002425 -3.377030 2.519679 0
M  V30 32 C -2.745224 -3.105027 1.222680 0
M  V30 33 C 0.017403 -1.353418 -3.957918 0
M  V30 34 C 1.333779 -0.729531 -3.548972 0
M  V30 35 C 1.852127 -1.252138 -0.598059 0
M  V30 36 N 2.426515 -1.162618 0.612464 0
M  V30 37 C 2.701575 0.126200 0.823567 0
M  V30 38 H 4.177302 0.482920 5.160107 0
M  V30 39 H 4.353869 0.679565 5.160051 0
M  V30 40 H 3.929367 2.564767 2.744826 0
M  V30 41 H 5.056587 4.140300 1.957118 0
M  V30 42 H 5.423639 6.532546 1.985230 0
M  V30 43 H 3.795394 8.037869 0.786115 0
M  V30 44 H 1.877818 7.097699 -0.385544 0
M  V30 45 H 1.501336 4.606174 -0.410513 0
M  V30 46 H 2.149921 2.805645 -1.157662 0
M  V30 47 H 1.640634 1.306824 -2.832308 0
M  V30 48 H -0.391628 1.304496 -1.454807 0
M  V30 49 H -0.763144 1.085964 -3.185214 0
M  V30 50 H -0.597764 -0.996759 -0.934960 0
M  V30 51 H -2.083352 -0.435584 -1.892013 0
M  V30 52 H -4.104100 -3.590342 -2.627889 0
M  V30 53 H -3.647357 -2.373549 -1.414605 0
M  V30 54 H -2.347739 -5.002052 -2.261933 0
M  V30 55 H -1.405330 -3.941723 -1.216766 0
M  V30 56 H -4.087316 -5.364204 -0.795300 0
M  V30 57 H -2.544505 -5.749306 -0.002834 0
M  V30 58 H -3.865255 -6.010687 1.574713 0
M  V30 59 H -5.315120 -5.039230 1.370616 0
M  V30 60 H -5.142502 -5.079014 3.618249 0
M  V30 61 H -3.391953 -5.124506 3.684138 0
M  V30 62 H -4.693823 -3.052213 4.498110 0
M  V30 63 H -4.820215 -2.554913 2.812040 0
M  V30 64 H -2.641460 -1.677858 3.637328 0
M  V30 65 H -2.414056 -3.204486 4.596854 0
M  V30 66 H -1.003442 -2.854440 2.552657 0
M  V30 67 H -1.812420 -4.445656 2.586350 0
M  V30 68 H -1.952241 -2.803826 0.511678 0
M  V30 69 H -3.367418 -2.189163 1.375209 0
M  V30 70 H -0.541806 -0.614644 -4.570989 0
M  V30 71 H 0.280757 -2.264708 -4.538237 0
M  V30 72 H 1.756277 -0.256744 -4.464676 0
M  V30 73 H 2.045284 -1.543910 -3.273520 0
M  V30 74 H 1.502872 -2.150438 -1.084448 0
M  V30 75 H 2.584565 -2.007454 1.202782 0
M  V30 END ATOM
M  V30 BEGIN BOND
M  V30 1 1 1 2
M  V30 2 2 2 3
M  V30 3 1 2 4
M  V30 4 2 4 5
M  V30 5 1 5 6
M  V30 6 1 6 7
M  V30 7 2 7 8
M  V30 8 1 8 9
M  V30 9 2 9 10
M  V30 10 1 10 11
M  V30 11 2 11 12
M  V30 12 2 6 13
M  V30 13 1 13 14
M  V30 14 1 14 15
M  V30 15 1 15 16
M  V30 16 1 16 17
M  V30 17 1 17 18
M  V30 18 1 18 19
M  V30 19 1 19 20
M  V30 20 2 20 21
M  V30 21 2 20 22
M  V30 22 1 20 23
M  V30 23 1 23 24
M  V30 24 1 24 25
M  V30 25 1 25 26
M  V30 26 1 26 27
M  V30 27 1 27 28
M  V30 28 1 28 29
M  V30 29 1 29 30
M  V30 30 1 30 31
M  V30 31 1 31 32
M  V30 32 1 19 33
M  V30 33 1 33 34
M  V30 34 2 15 35
M  V30 35 1 35 36
M  V30 36 1 36 37
M  V30 37 1 37 4
M  V30 38 1 12 7
M  V30 39 2 37 14
M  V30 40 1 34 16
M  V30 41 1 32 26
M  V30 42 1 1 38
M  V30 43 1 1 39
M  V30 44 1 5 40
M  V30 45 1 8 41
M  V30 46 1 9 42
M  V30 47 1 10 43
M  V30 48 1 11 44
M  V30 49 1 12 45
M  V30 50 1 13 46
M  V30 51 1 16 47
M  V30 52 1 17 48
M  V30 53 1 17 49
M  V30 54 1 18 50
M  V30 55 1 18 51
M  V30 56 1 23 52
M  V30 57 1 23 53
M  V30 58 1 24 54
M  V30 59 1 24 55
M  V30 60 1 25 56
M  V30 61 1 25 57
M  V30 62 1 27 58
M  V30 63 1 27 59
M  V30 64 1 28 60
M  V30 65 1 28 61
M  V30 66 1 29 62
M  V30 67 1 29 63
M  V30 68 1 30 64
M  V30 69 1 30 65
M  V30 70 1 31 66
M  V30 71 1 31 67
M  V30 72 1 32 68
M  V30 73 1 32 69
M  V30 74 1 33 70
M  V30 75 1 33 71
M  V30 76 1 34 72
M  V30 77 1 34 73
M  V30 78 1 35 74
M  V30 79 1 36 75
M  V30 END BOND
M  V30 END CTAB
M  END
>  <Dataset>  (716) 
ChEMBL_Kinases

>  <Ligand_Instance>  (716) 
nan

>  <PDB_ID>  (716) 
nan

>  <Standardized_SMILES>  (716) 
NC(=O)c1cc(-c2ccccc2)cc2c(C3CCN(S(=O)(=O)CCCN4CCCCCC4)CC3)c[nH]c12

>  <Name>  (716) 
nan

>  <Pocket>  (716) 
nan

>  <ATP_Site>  (716) 
nan

>  <Peripheral>  (716) 
nan

>  <Num_H_Atoms_ProtBoundConf>  (716) 
nan

>  <Num_Resolved_Atoms>  (716) 
nan

>  <Num_Not_Resolved_Atoms>  (716) 
nan

$$$$
CHEMBL4522598
     RDKit          3D

  0  0  0  0  0  0  0  0  0  0999 V3000
M  V30 BEGIN CTAB
M  V30 COUNTS 74 77 0 0 0
M  V30 BEGIN ATOM
M  V30 1 C 5.486528 -5.021584 3.805154 0
M  V30 2 N 4.304616 -5.841551 3.842901 0
M  V30 3 C 3.089204 -5.043128 3.886309 0
M  V30 4 C 4.283124 -6.752287 2.699389 0
M  V30 5 C 4.095101 -5.970866 1.469283 0
M  V30 6 C 3.022046 -6.210117 0.721427 0
M  V30 7 C 2.906223 -5.382819 -0.495537 0
M  V30 8 O 3.773680 -4.532212 -0.791561 0
M  V30 9 N 1.801743 -5.504892 -1.400139 0
M  V30 10 C 2.010258 -4.569321 -2.455367 0
M  V30 11 C 2.657191 -4.979786 -3.627822 0
M  V30 12 C 2.863818 -4.062776 -4.638426 0
M  V30 13 C 2.427693 -2.770187 -4.461634 0
M  V30 14 C 1.781897 -2.350373 -3.296774 0
M  V30 15 S 1.331845 -0.672206 -3.278396 0
M  V30 16 O 1.545696 -0.196276 -1.846854 0
M  V30 17 O 2.327247 0.154176 -4.088744 0
M  V30 18 N -0.232978 -0.335343 -3.788793 0
M  V30 19 C -1.313377 -0.883928 -3.054898 0
M  V30 20 C -2.557942 -0.046813 -3.076054 0
M  V30 21 C -2.226334 1.328085 -2.579993 0
M  V30 22 N -1.692074 1.216780 -1.240739 0
M  V30 23 C -2.056936 1.902707 -0.071709 0
M  V30 24 O -2.996211 2.776949 -0.125446 0
M  V30 25 C -1.450761 1.707561 1.225933 0
M  V30 26 N -0.467839 0.814224 1.471978 0
M  V30 27 N -0.116767 0.856423 2.743864 0
M  V30 28 C -0.902439 1.804498 3.315153 0
M  V30 29 C -1.766231 2.371740 2.383291 0
M  V30 30 N -2.696154 3.375744 2.640267 0
M  V30 31 C -4.038659 3.478876 3.038744 0
M  V30 32 O -4.529973 2.358512 3.207171 0
M  V30 33 C -4.836659 4.651156 3.253920 0
M  V30 34 C -6.144331 4.404607 3.694458 0
M  V30 35 Cl -6.760014 2.776540 3.968963 0
M  V30 36 C -7.036579 5.408210 3.945223 0
M  V30 37 C -6.710631 6.733083 3.781369 0
M  V30 38 C -5.436576 7.023898 3.349753 0
M  V30 39 C -4.575163 5.990413 3.110588 0
M  V30 40 Cl -2.990620 6.437589 2.563544 0
M  V30 41 C -1.167377 1.918099 -3.455811 0
M  V30 42 C -0.445391 0.956143 -4.344828 0
M  V30 43 C 1.578998 -3.272428 -2.293994 0
M  V30 44 H 6.031670 -5.198870 2.855036 0
M  V30 45 H 6.215474 -5.294329 4.621043 0
M  V30 46 H 5.164854 -3.951267 3.922964 0
M  V30 47 H 3.283894 -3.959821 3.932958 0
M  V30 48 H 2.495180 -5.380414 4.761289 0
M  V30 49 H 2.492941 -5.284784 2.978683 0
M  V30 50 H 3.528255 -7.519605 2.866297 0
M  V30 51 H 5.278748 -7.249966 2.670152 0
M  V30 52 H 4.834171 -5.226198 1.208103 0
M  V30 53 H 2.258157 -6.938450 0.934486 0
M  V30 54 H 1.045511 -6.205983 -1.193485 0
M  V30 55 H 2.956156 -6.003769 -3.662133 0
M  V30 56 H 3.363357 -4.375498 -5.549758 0
M  V30 57 H 2.622501 -2.107386 -5.299164 0
M  V30 58 H -1.075640 -1.223844 -2.026784 0
M  V30 59 H -1.601893 -1.843493 -3.587763 0
M  V30 60 H -2.897787 0.012685 -4.150636 0
M  V30 61 H -3.345248 -0.544700 -2.473784 0
M  V30 62 H -3.125688 1.999570 -2.595199 0
M  V30 63 H -0.938071 0.551880 -1.069424 0
M  V30 64 H 0.608209 0.289190 3.246720 0
M  V30 65 H -0.824171 2.051675 4.375622 0
M  V30 66 H -2.155075 4.239312 2.466065 0
M  V30 67 H -8.046025 5.211910 4.285753 0
M  V30 68 H -7.433602 7.497787 3.987194 0
M  V30 69 H -5.146757 8.050619 3.209972 0
M  V30 70 H -1.656185 2.698881 -4.100162 0
M  V30 71 H -0.464276 2.489215 -2.819992 0
M  V30 72 H 0.538621 1.406564 -4.586228 0
M  V30 73 H -0.988135 0.846553 -5.305380 0
M  V30 74 H 1.078176 -2.899787 -1.416142 0
M  V30 END ATOM
M  V30 BEGIN BOND
M  V30 1 1 1 2
M  V30 2 1 2 3
M  V30 3 1 2 4
M  V30 4 1 4 5
M  V30 5 2 5 6
M  V30 6 1 6 7
M  V30 7 2 7 8
M  V30 8 1 7 9
M  V30 9 1 9 10
M  V30 10 2 10 11
M  V30 11 1 11 12
M  V30 12 2 12 13
M  V30 13 1 13 14
M  V30 14 1 14 15
M  V30 15 2 15 16
M  V30 16 2 15 17
M  V30 17 1 15 18
M  V30 18 1 18 19
M  V30 19 1 19 20
M  V30 20 1 20 21
M  V30 21 1 21 22
M  V30 22 1 22 23
M  V30 23 2 23 24
M  V30 24 1 23 25
M  V30 25 2 25 26
M  V30 26 1 26 27
M  V30 27 1 27 28
M  V30 28 2 28 29
M  V30 29 1 29 30
M  V30 30 1 30 31
M  V30 31 2 31 32
M  V30 32 1 31 33
M  V30 33 2 33 34
M  V30 34 1 34 35
M  V30 35 1 34 36
M  V30 36 2 36 37
M  V30 37 1 37 38
M  V30 38 2 38 39
M  V30 39 1 39 40
M  V30 40 1 21 41
M  V30 41 1 41 42
M  V30 42 2 14 43
M  V30 43 1 43 10
M  V30 44 1 42 18
M  V30 45 1 29 25
M  V30 46 1 39 33
M  V30 47 1 1 44
M  V30 48 1 1 45
M  V30 49 1 1 46
M  V30 50 1 3 47
M  V30 51 1 3 48
M  V30 52 1 3 49
M  V30 53 1 4 50
M  V30 54 1 4 51
M  V30 55 1 5 52
M  V30 56 1 6 53
M  V30 57 1 9 54
M  V30 58 1 11 55
M  V30 59 1 12 56
M  V30 60 1 13 57
M  V30 61 1 19 58
M  V30 62 1 19 59
M  V30 63 1 20 60
M  V30 64 1 20 61
M  V30 65 1 21 62
M  V30 66 1 22 63
M  V30 67 1 27 64
M  V30 68 1 28 65
M  V30 69 1 30 66
M  V30 70 1 36 67
M  V30 71 1 37 68
M  V30 72 1 38 69
M  V30 73 1 41 70
M  V30 74 1 41 71
M  V30 75 1 42 72
M  V30 76 1 42 73
M  V30 77 1 43 74
M  V30 END BOND
M  V30 END CTAB
M  END
>  <Dataset>  (717) 
ChEMBL_Kinases

>  <Ligand_Instance>  (717) 
nan

>  <PDB_ID>  (717) 
nan

>  <Standardized_SMILES>  (717) 
CN(C)C/C=C/C(=O)Nc1cccc(S(=O)(=O)N2CCC(NC(=O)c3n[nH]cc3NC(=O)c3c(Cl)cccc3Cl)CC2)c1

>  <Name>  (717) 
nan

>  <Pocket>  (717) 
nan

>  <ATP_Site>  (717) 
nan

>  <Peripheral>  (717) 
nan

>  <Num_H_Atoms_ProtBoundConf>  (717) 
nan

>  <Num_Resolved_Atoms>  (717) 
nan

>  <Num_Not_Resolved_Atoms>  (717) 
nan

$$$$
CHEMBL4522564
     RDKit          3D

  0  0  0  0  0  0  0  0  0  0999 V3000
M  V30 BEGIN CTAB
M  V30 COUNTS 63 66 0 0 0
M  V30 BEGIN ATOM
M  V30 1 C 4.693269 -1.405249 2.372315 0
M  V30 2 C 4.526954 -1.141923 1.080065 0
M  V30 3 C 3.546918 -0.231914 0.510751 0
M  V30 4 O 3.525391 -0.099924 -0.736545 0
M  V30 5 N 2.628368 0.503126 1.277658 0
M  V30 6 C 1.628613 1.415720 0.869555 0
M  V30 7 C 1.324020 1.797539 -0.404902 0
M  V30 8 C 0.340111 2.691767 -0.766090 0
M  V30 9 C -0.418928 3.266369 0.231272 0
M  V30 10 C -0.142931 2.907067 1.533767 0
M  V30 11 S -1.076145 3.606704 2.836326 0
M  V30 12 O -1.574960 4.952879 2.358616 0
M  V30 13 O -0.237931 3.818664 4.063127 0
M  V30 14 N -2.429937 2.641174 3.160360 0
M  V30 15 C -3.350802 2.495203 2.093511 0
M  V30 16 C -3.913751 1.095071 1.963367 0
M  V30 17 C -2.687562 0.185687 2.002848 0
M  V30 18 N -3.005905 -1.138282 1.510212 0
M  V30 19 C -2.402918 -1.732819 0.343568 0
M  V30 20 O -1.536139 -1.148788 -0.359668 0
M  V30 21 C -2.835900 -3.085079 -0.022709 0
M  V30 22 N -3.727568 -3.859749 0.585124 0
M  V30 23 N -3.789205 -4.985159 -0.097878 0
M  V30 24 C -2.948193 -4.968473 -1.154047 0
M  V30 25 C -2.323119 -3.731631 -1.110973 0
M  V30 26 N -1.361351 -3.391801 -2.102694 0
M  V30 27 C -0.013964 -3.702058 -1.877740 0
M  V30 28 O -0.033007 -4.257786 -0.730600 0
M  V30 29 C 1.195152 -3.505091 -2.652060 0
M  V30 30 C 1.424998 -2.940106 -3.880899 0
M  V30 31 Cl 0.030153 -2.330836 -4.701436 0
M  V30 32 C 2.640688 -2.829371 -4.481290 0
M  V30 33 C 3.737359 -3.318116 -3.816219 0
M  V30 34 C 3.567878 -3.893443 -2.584720 0
M  V30 35 C 2.341063 -3.990347 -2.009194 0
M  V30 36 Cl 2.303092 -4.758350 -0.422941 0
M  V30 37 C -2.212499 0.182905 3.424403 0
M  V30 38 C -2.235766 1.542845 4.017184 0
M  V30 39 C 0.845449 2.014947 1.828500 0
M  V30 40 H 5.409355 -2.076027 2.853207 0
M  V30 41 H 4.251439 -1.103460 3.306193 0
M  V30 42 H 5.216476 -1.690431 0.473564 0
M  V30 43 H 2.742102 0.310552 2.302358 0
M  V30 44 H 1.883026 1.382417 -1.228127 0
M  V30 45 H 0.149611 2.950784 -1.787897 0
M  V30 46 H -1.191317 3.968057 -0.051445 0
M  V30 47 H -4.203208 3.188271 2.252959 0
M  V30 48 H -2.892069 2.739748 1.113022 0
M  V30 49 H -4.502681 1.008396 1.054768 0
M  V30 50 H -4.530575 0.847234 2.844038 0
M  V30 51 H -1.923414 0.628051 1.338054 0
M  V30 52 H -3.718824 -1.681756 2.045670 0
M  V30 53 H -4.454448 -5.727343 0.244567 0
M  V30 54 H -2.837293 -5.785972 -1.847968 0
M  V30 55 H -1.559229 -2.924098 -3.002616 0
M  V30 56 H 2.710879 -2.367849 -5.449207 0
M  V30 57 H 4.700609 -3.239110 -4.274353 0
M  V30 58 H 4.453416 -4.256047 -2.113568 0
M  V30 59 H -2.928499 -0.489189 3.977742 0
M  V30 60 H -1.231355 -0.337651 3.536132 0
M  V30 61 H -2.996385 1.596448 4.838791 0
M  V30 62 H -1.258926 1.684403 4.555989 0
M  V30 63 H 1.014853 1.770631 2.888494 0
M  V30 END ATOM
M  V30 BEGIN BOND
M  V30 1 2 1 2
M  V30 2 1 2 3
M  V30 3 2 3 4
M  V30 4 1 3 5
M  V30 5 1 5 6
M  V30 6 2 6 7
M  V30 7 1 7 8
M  V30 8 2 8 9
M  V30 9 1 9 10
M  V30 10 1 10 11
M  V30 11 2 11 12
M  V30 12 2 11 13
M  V30 13 1 11 14
M  V30 14 1 14 15
M  V30 15 1 15 16
M  V30 16 1 16 17
M  V30 17 1 17 18
M  V30 18 1 18 19
M  V30 19 2 19 20
M  V30 20 1 19 21
M  V30 21 2 21 22
M  V30 22 1 22 23
M  V30 23 1 23 24
M  V30 24 2 24 25
M  V30 25 1 25 26
M  V30 26 1 26 27
M  V30 27 2 27 28
M  V30 28 1 27 29
M  V30 29 2 29 30
M  V30 30 1 30 31
M  V30 31 1 30 32
M  V30 32 2 32 33
M  V30 33 1 33 34
M  V30 34 2 34 35
M  V30 35 1 35 36
M  V30 36 1 17 37
M  V30 37 1 37 38
M  V30 38 2 10 39
M  V30 39 1 39 6
M  V30 40 1 38 14
M  V30 41 1 25 21
M  V30 42 1 35 29
M  V30 43 1 1 40
M  V30 44 1 1 41
M  V30 45 1 2 42
M  V30 46 1 5 43
M  V30 47 1 7 44
M  V30 48 1 8 45
M  V30 49 1 9 46
M  V30 50 1 15 47
M  V30 51 1 15 48
M  V30 52 1 16 49
M  V30 53 1 16 50
M  V30 54 1 17 51
M  V30 55 1 18 52
M  V30 56 1 23 53
M  V30 57 1 24 54
M  V30 58 1 26 55
M  V30 59 1 32 56
M  V30 60 1 33 57
M  V30 61 1 34 58
M  V30 62 1 37 59
M  V30 63 1 37 60
M  V30 64 1 38 61
M  V30 65 1 38 62
M  V30 66 1 39 63
M  V30 END BOND
M  V30 END CTAB
M  END
>  <Dataset>  (718) 
ChEMBL_Kinases

>  <Ligand_Instance>  (718) 
nan

>  <PDB_ID>  (718) 
nan

>  <Standardized_SMILES>  (718) 
C=CC(=O)Nc1cccc(S(=O)(=O)N2CCC(NC(=O)c3n[nH]cc3NC(=O)c3c(Cl)cccc3Cl)CC2)c1

>  <Name>  (718) 
nan

>  <Pocket>  (718) 
nan

>  <ATP_Site>  (718) 
nan

>  <Peripheral>  (718) 
nan

>  <Num_H_Atoms_ProtBoundConf>  (718) 
nan

>  <Num_Resolved_Atoms>  (718) 
nan

>  <Num_Not_Resolved_Atoms>  (718) 
nan

$$$$
CHEMBL4646187
     RDKit          3D

  0  0  0  0  0  0  0  0  0  0999 V3000
M  V30 BEGIN CTAB
M  V30 COUNTS 72 75 0 0 0
M  V30 BEGIN ATOM
M  V30 1 C 4.965322 -4.615759 4.292943 0
M  V30 2 C 4.505173 -5.132043 2.955064 0
M  V30 3 C 5.612604 -4.942017 1.963975 0
M  V30 4 C 3.176417 -4.613380 2.524173 0
M  V30 5 N 3.125937 -3.179193 2.394372 0
M  V30 6 C 1.896942 -2.535276 1.986607 0
M  V30 7 O 1.349554 -3.655219 1.918742 0
M  V30 8 C 1.845406 -1.092850 1.853996 0
M  V30 9 C 2.972308 -0.415285 2.224302 0
M  V30 10 N 2.926348 0.915062 2.150654 0
M  V30 11 C 1.854460 1.595927 1.741360 0
M  V30 12 C 1.858807 2.969512 1.686494 0
M  V30 13 C 0.770442 3.705659 1.271176 0
M  V30 14 C -0.346646 2.994353 0.905418 0
M  V30 15 C -1.539278 3.700429 0.460043 0
M  V30 16 C -2.691559 3.043103 0.088931 0
M  V30 17 C -3.864514 3.631990 -0.347901 0
M  V30 18 Cl -5.271100 2.697691 -0.792672 0
M  V30 19 C -3.886815 5.013557 -0.420643 0
M  V30 20 O -5.031908 5.669216 -0.851248 0
M  V30 21 C -2.750593 5.719160 -0.057376 0
M  V30 22 Cl -2.813188 7.470893 -0.163176 0
M  V30 23 C -1.609819 5.061645 0.371540 0
M  V30 24 N -0.307068 1.658243 0.974131 0
M  V30 25 C 0.728450 0.910057 1.370826 0
M  V30 26 C 0.687735 -0.486273 1.415532 0
M  V30 27 N -0.492211 -1.163517 0.977042 0
M  V30 28 C -1.164661 -2.353956 0.689462 0 CFG=1
M  V30 29 C -2.645318 -2.075067 0.387762 0
M  V30 30 C -2.825835 -1.317624 -0.918348 0
M  V30 31 C -2.033422 -1.940827 -2.029433 0 CFG=2
M  V30 32 C -2.731125 -1.998918 -3.338667 0
M  V30 33 N -3.127892 -0.775076 -3.915706 0
M  V30 34 C -4.180581 -0.043289 -3.301393 0
M  V30 35 C -2.031859 0.055447 -4.362288 0
M  V30 36 C -1.658453 -3.343568 -1.530852 0
M  V30 37 C -0.595433 -3.139785 -0.475105 0
M  V30 38 H 4.162418 -4.726718 5.075916 0
M  V30 39 H 5.794601 -5.300861 4.610395 0
M  V30 40 H 5.362614 -3.597559 4.272166 0
M  V30 41 H 4.377581 -6.250062 3.069209 0
M  V30 42 H 6.275809 -4.133454 2.333653 0
M  V30 43 H 6.259365 -5.845157 1.904780 0
M  V30 44 H 5.237560 -4.607907 0.976085 0
M  V30 45 H 2.957563 -5.091487 1.537658 0
M  V30 46 H 2.425748 -5.014596 3.250098 0
M  V30 47 H 4.050881 -2.688277 2.620643 0
M  V30 48 H 3.924956 -0.752500 2.576857 0
M  V30 49 H 2.801513 3.442771 1.999890 0
M  V30 50 H 0.870466 4.765493 1.263091 0
M  V30 51 H -2.723101 1.963096 0.130636 0
M  V30 52 H -5.273485 6.520339 -0.342160 0
M  V30 53 H -0.790351 5.689297 0.628017 0
M  V30 54 H -1.221564 -0.449212 0.762146 0
M  V30 55 H -1.199677 -3.009372 1.594015 0
M  V30 56 H -3.264477 -2.957434 0.492759 0
M  V30 57 H -2.945018 -1.344986 1.196304 0
M  V30 58 H -2.518772 -0.244002 -0.767264 0
M  V30 59 H -3.910092 -1.376404 -1.154064 0
M  V30 60 H -1.034766 -1.435141 -2.157171 0
M  V30 61 H -2.113171 -2.553005 -4.109448 0
M  V30 62 H -3.652667 -2.644032 -3.263407 0
M  V30 63 H -4.560719 0.669017 -4.104902 0
M  V30 64 H -3.912798 0.617912 -2.472684 0
M  V30 65 H -5.083580 -0.670464 -3.089210 0
M  V30 66 H -2.455308 1.009668 -4.700628 0
M  V30 67 H -1.484600 -0.482829 -5.153901 0
M  V30 68 H -1.303779 0.270543 -3.553878 0
M  V30 69 H -2.542309 -3.897475 -1.158968 0
M  V30 70 H -1.267864 -3.956475 -2.375189 0
M  V30 71 H -0.294665 -4.187353 -0.169432 0
M  V30 72 H 0.257329 -2.642529 -0.951115 0
M  V30 END ATOM
M  V30 BEGIN BOND
M  V30 1 1 1 2
M  V30 2 1 2 3
M  V30 3 1 2 4
M  V30 4 1 4 5
M  V30 5 1 5 6
M  V30 6 2 6 7
M  V30 7 1 6 8
M  V30 8 2 8 9
M  V30 9 1 9 10
M  V30 10 2 10 11
M  V30 11 1 11 12
M  V30 12 2 12 13
M  V30 13 1 13 14
M  V30 14 1 14 15
M  V30 15 2 15 16
M  V30 16 1 16 17
M  V30 17 1 17 18
M  V30 18 2 17 19
M  V30 19 1 19 20
M  V30 20 1 19 21
M  V30 21 1 21 22
M  V30 22 2 21 23
M  V30 23 2 14 24
M  V30 24 1 24 25
M  V30 25 2 25 26
M  V30 26 1 26 27
M  V30 27 1 27 28
M  V30 28 1 28 29
M  V30 29 1 29 30
M  V30 30 1 30 31
M  V30 31 1 31 32
M  V30 32 1 32 33
M  V30 33 1 33 34
M  V30 34 1 33 35
M  V30 35 1 31 36
M  V30 36 1 36 37
M  V30 37 1 26 8
M  V30 38 1 37 28
M  V30 39 1 25 11
M  V30 40 1 23 15
M  V30 41 1 1 38
M  V30 42 1 1 39
M  V30 43 1 1 40
M  V30 44 1 2 41
M  V30 45 1 3 42
M  V30 46 1 3 43
M  V30 47 1 3 44
M  V30 48 1 4 45
M  V30 49 1 4 46
M  V30 50 1 5 47
M  V30 51 1 9 48
M  V30 52 1 12 49
M  V30 53 1 13 50
M  V30 54 1 16 51
M  V30 55 1 20 52
M  V30 56 1 23 53
M  V30 57 1 27 54
M  V30 58 1 28 55 CFG=1
M  V30 59 1 29 56
M  V30 60 1 29 57
M  V30 61 1 30 58
M  V30 62 1 30 59
M  V30 63 1 31 60 CFG=3
M  V30 64 1 32 61
M  V30 65 1 32 62
M  V30 66 1 34 63
M  V30 67 1 34 64
M  V30 68 1 34 65
M  V30 69 1 35 66
M  V30 70 1 35 67
M  V30 71 1 35 68
M  V30 72 1 36 69
M  V30 73 1 36 70
M  V30 74 1 37 71
M  V30 75 1 37 72
M  V30 END BOND
M  V30 END CTAB
M  END
>  <Dataset>  (719) 
ChEMBL_Kinases

>  <Ligand_Instance>  (719) 
nan

>  <PDB_ID>  (719) 
nan

>  <Standardized_SMILES>  (719) 
CC(C)CNC(=O)c1cnc2ccc(-c3cc(Cl)c(O)c(Cl)c3)nc2c1N[C@H]1CC[C@H](CN(C)C)CC1

>  <Name>  (719) 
nan

>  <Pocket>  (719) 
nan

>  <ATP_Site>  (719) 
nan

>  <Peripheral>  (719) 
nan

>  <Num_H_Atoms_ProtBoundConf>  (719) 
nan

>  <Num_Resolved_Atoms>  (719) 
nan

>  <Num_Not_Resolved_Atoms>  (719) 
nan

$$$$
CHEMBL4522448
     RDKit          3D

  0  0  0  0  0  0  0  0  0  0999 V3000
M  V30 BEGIN CTAB
M  V30 COUNTS 46 48 0 0 0
M  V30 BEGIN ATOM
M  V30 1 C 1.390041 -4.054236 0.125413 0
M  V30 2 C 1.003866 -2.620247 0.460478 0
M  V30 3 C 0.694618 -2.524117 1.905757 0
M  V30 4 C 2.016247 -1.649171 -0.076773 0
M  V30 5 N 3.343632 -1.789334 0.379333 0
M  V30 6 C 3.670875 -1.482160 1.712549 0
M  V30 7 C 3.597710 -0.040894 2.048921 0
M  V30 8 O 3.310252 0.873876 1.241361 0
M  V30 9 O 3.851707 0.423591 3.332622 0
M  V30 10 N -0.235827 -2.349945 -0.290912 0
M  V30 11 C -1.001304 -1.132242 -0.191805 0
M  V30 12 N -0.633595 -0.139371 0.622740 0
M  V30 13 C -1.281826 1.023653 0.788458 0
M  V30 14 C -0.799987 2.049275 1.707774 0
M  V30 15 C -1.451806 3.253484 1.840945 0
M  V30 16 C -0.870780 4.136151 2.743906 0
M  V30 17 N 0.252232 3.856942 3.452126 0
M  V30 18 C 0.889116 2.693156 3.328778 0
M  V30 19 C 0.342531 1.793788 2.443653 0
M  V30 20 N -2.419266 1.220552 0.065807 0
M  V30 21 C -2.855738 0.255031 -0.783535 0
M  V30 22 C -4.011474 0.443168 -1.524259 0
M  V30 23 N -4.470064 -0.514252 -2.385752 0
M  V30 24 C -3.766087 -1.665231 -2.503870 0
M  V30 25 C -2.615388 -1.879814 -1.781725 0
M  V30 26 C -2.153377 -0.921162 -0.917364 0
M  V30 27 H 0.441319 -4.616320 0.019618 0
M  V30 28 H 1.864731 -4.091551 -0.889275 0
M  V30 29 H 1.985937 -4.548963 0.889621 0
M  V30 30 H 0.840384 -1.551031 2.382425 0
M  V30 31 H -0.413862 -2.730548 2.037171 0
M  V30 32 H 1.163189 -3.342046 2.515910 0
M  V30 33 H 2.033934 -1.822078 -1.186415 0
M  V30 34 H 1.593416 -0.628120 0.025433 0
M  V30 35 H 4.042987 -1.484227 -0.321275 0
M  V30 36 H 3.162451 -2.069112 2.469996 0
M  V30 37 H 4.770163 -1.740693 1.839473 0
M  V30 38 H 4.179017 1.368449 3.513278 0
M  V30 39 H -0.561122 -3.088985 -0.921099 0
M  V30 40 H -2.335247 3.480072 1.287746 0
M  V30 41 H -1.332679 5.108499 2.899120 0
M  V30 42 H 1.791247 2.432411 3.879363 0
M  V30 43 H 0.812818 0.833401 2.306808 0
M  V30 44 H -4.593045 1.360782 -1.443233 0
M  V30 45 H -4.210260 -2.352536 -3.204650 0
M  V30 46 H -2.143391 -2.824361 -1.956742 0
M  V30 END ATOM
M  V30 BEGIN BOND
M  V30 1 1 1 2
M  V30 2 1 2 3
M  V30 3 1 2 4
M  V30 4 1 4 5
M  V30 5 1 5 6
M  V30 6 1 6 7
M  V30 7 2 7 8
M  V30 8 1 7 9
M  V30 9 1 2 10
M  V30 10 1 10 11
M  V30 11 2 11 12
M  V30 12 1 12 13
M  V30 13 1 13 14
M  V30 14 2 14 15
M  V30 15 1 15 16
M  V30 16 2 16 17
M  V30 17 1 17 18
M  V30 18 2 18 19
M  V30 19 2 13 20
M  V30 20 1 20 21
M  V30 21 2 21 22
M  V30 22 1 22 23
M  V30 23 2 23 24
M  V30 24 1 24 25
M  V30 25 2 25 26
M  V30 26 1 26 11
M  V30 27 1 19 14
M  V30 28 1 26 21
M  V30 29 1 1 27
M  V30 30 1 1 28
M  V30 31 1 1 29
M  V30 32 1 3 30
M  V30 33 1 3 31
M  V30 34 1 3 32
M  V30 35 1 4 33
M  V30 36 1 4 34
M  V30 37 1 5 35
M  V30 38 1 6 36
M  V30 39 1 6 37
M  V30 40 1 9 38
M  V30 41 1 10 39
M  V30 42 1 15 40
M  V30 43 1 16 41
M  V30 44 1 18 42
M  V30 45 1 19 43
M  V30 46 1 22 44
M  V30 47 1 24 45
M  V30 48 1 25 46
M  V30 END BOND
M  V30 END CTAB
M  END
>  <Dataset>  (720) 
ChEMBL_Kinases

>  <Ligand_Instance>  (720) 
nan

>  <PDB_ID>  (720) 
nan

>  <Standardized_SMILES>  (720) 
CC(C)(CNCC(=O)O)Nc1nc(-c2ccncc2)nc2cnccc12

>  <Name>  (720) 
nan

>  <Pocket>  (720) 
nan

>  <ATP_Site>  (720) 
nan

>  <Peripheral>  (720) 
nan

>  <Num_H_Atoms_ProtBoundConf>  (720) 
nan

>  <Num_Resolved_Atoms>  (720) 
nan

>  <Num_Not_Resolved_Atoms>  (720) 
nan

$$$$
CHEMBL4522291
     RDKit          3D

  0  0  0  0  0  0  0  0  0  0999 V3000
M  V30 BEGIN CTAB
M  V30 COUNTS 61 63 0 0 0
M  V30 BEGIN ATOM
M  V30 1 C 5.494740 -1.013128 3.688115 0
M  V30 2 C 5.428333 -2.453535 3.270328 0
M  V30 3 C 6.478920 -2.867249 2.320514 0
M  V30 4 C 6.619483 -2.193337 1.024610 0
M  V30 5 C 5.484080 -2.225168 0.055559 0 CFG=2
M  V30 6 N 4.267335 -1.630277 0.494037 0
M  V30 7 C 3.840612 -0.381281 -0.100355 0
M  V30 8 O 4.549244 0.159712 -0.995881 0
M  V30 9 C 2.622117 0.377216 0.224430 0
M  V30 10 C 2.363222 1.528377 -0.463208 0
M  V30 11 C 1.202864 2.248753 -0.149594 0
M  V30 12 C 0.291208 1.860172 0.827319 0
M  V30 13 C -0.886781 2.710585 1.053708 0
M  V30 14 N -2.034131 2.372688 0.254027 0
M  V30 15 C -2.914309 1.295898 0.447225 0
M  V30 16 O -2.714999 0.516694 1.413602 0
M  V30 17 C -4.063508 1.002243 -0.398768 0
M  V30 18 C -4.532027 1.669566 -1.524693 0
M  V30 19 N -5.606964 0.999107 -1.923916 0
M  V30 20 N -5.878350 -0.043733 -1.158273 0
M  V30 21 C -6.948076 -0.987394 -1.280658 0
M  V30 22 C -8.184188 -0.538304 -0.855241 0
M  V30 23 C -9.283117 -1.388701 -0.935690 0
M  V30 24 C -9.126223 -2.661079 -1.435805 0
M  V30 25 C -7.877295 -3.083538 -1.854119 0
M  V30 26 C -6.765871 -2.258490 -1.785692 0
M  V30 27 C -4.923000 -0.057683 -0.198279 0
M  V30 28 N -4.879719 -1.046727 0.826172 0
M  V30 29 C 0.577143 0.695637 1.505258 0
M  V30 30 C 1.718762 -0.006178 1.191178 0
M  V30 31 C 5.286311 -3.611618 -0.459868 0
M  V30 32 N 3.951219 -4.130759 -0.445593 0
M  V30 33 O 5.669575 -4.702145 -0.954002 0
M  V30 34 H 4.465124 -0.681512 3.932201 0
M  V30 35 H 6.090083 -0.850352 4.622525 0
M  V30 36 H 5.848003 -0.353192 2.866945 0
M  V30 37 H 5.676638 -3.022231 4.244225 0
M  V30 38 H 4.403891 -2.750049 3.078527 0
M  V30 39 H 7.472415 -2.905787 2.836048 0
M  V30 40 H 6.279366 -3.965420 2.092001 0
M  V30 41 H 7.020266 -1.145944 1.099293 0
M  V30 42 H 7.473105 -2.725095 0.484703 0
M  V30 43 H 5.831775 -1.586910 -0.821012 0
M  V30 44 H 3.523352 -1.869053 1.178193 0
M  V30 45 H 2.989457 1.936874 -1.242885 0
M  V30 46 H 1.003891 3.169698 -0.705787 0
M  V30 47 H -1.186202 2.587194 2.115450 0
M  V30 48 H -0.646587 3.782151 0.908731 0
M  V30 49 H -2.271621 2.979653 -0.579571 0
M  V30 50 H -4.036455 2.548281 -1.906901 0
M  V30 51 H -8.362816 0.445688 -0.455432 0
M  V30 52 H -10.262346 -1.029427 -0.597046 0
M  V30 53 H -9.972705 -3.343717 -1.507734 0
M  V30 54 H -7.689697 -4.066843 -2.254488 0
M  V30 55 H -5.763472 -2.540014 -2.100427 0
M  V30 56 H -4.245214 -1.814523 1.137356 0
M  V30 57 H -5.633107 -1.151826 1.546570 0
M  V30 58 H -0.111587 0.367651 2.270086 0
M  V30 59 H 1.869462 -0.904254 1.766816 0
M  V30 60 H 3.003540 -4.413460 -0.837594 0
M  V30 61 H 2.977019 -4.514520 -0.411810 0
M  V30 END ATOM
M  V30 BEGIN BOND
M  V30 1 1 1 2
M  V30 2 1 2 3
M  V30 3 1 3 4
M  V30 4 1 4 5
M  V30 5 1 5 6
M  V30 6 1 6 7
M  V30 7 2 7 8
M  V30 8 1 7 9
M  V30 9 2 9 10
M  V30 10 1 10 11
M  V30 11 2 11 12
M  V30 12 1 12 13
M  V30 13 1 13 14
M  V30 14 1 14 15
M  V30 15 2 15 16
M  V30 16 1 15 17
M  V30 17 1 17 18
M  V30 18 2 18 19
M  V30 19 1 19 20
M  V30 20 1 20 21
M  V30 21 2 21 22
M  V30 22 1 22 23
M  V30 23 2 23 24
M  V30 24 1 24 25
M  V30 25 2 25 26
M  V30 26 1 20 27
M  V30 27 1 27 28
M  V30 28 1 12 29
M  V30 29 2 29 30
M  V30 30 1 5 31
M  V30 31 1 31 32
M  V30 32 2 31 33
M  V30 33 1 30 9
M  V30 34 2 27 17
M  V30 35 1 26 21
M  V30 36 1 1 34
M  V30 37 1 1 35
M  V30 38 1 1 36
M  V30 39 1 2 37
M  V30 40 1 2 38
M  V30 41 1 3 39
M  V30 42 1 3 40
M  V30 43 1 4 41
M  V30 44 1 4 42
M  V30 45 1 5 43 CFG=3
M  V30 46 1 6 44
M  V30 47 1 10 45
M  V30 48 1 11 46
M  V30 49 1 13 47
M  V30 50 1 13 48
M  V30 51 1 14 49
M  V30 52 1 18 50
M  V30 53 1 22 51
M  V30 54 1 23 52
M  V30 55 1 24 53
M  V30 56 1 25 54
M  V30 57 1 26 55
M  V30 58 1 28 56
M  V30 59 1 28 57
M  V30 60 1 29 58
M  V30 61 1 30 59
M  V30 62 1 32 60
M  V30 63 1 32 61
M  V30 END BOND
M  V30 END CTAB
M  END
>  <Dataset>  (721) 
ChEMBL_Kinases

>  <Ligand_Instance>  (721) 
nan

>  <PDB_ID>  (721) 
nan

>  <Standardized_SMILES>  (721) 
CCCC[C@H](NC(=O)c1ccc(CNC(=O)c2cnn(-c3ccccc3)c2N)cc1)C(N)=O

>  <Name>  (721) 
nan

>  <Pocket>  (721) 
nan

>  <ATP_Site>  (721) 
nan

>  <Peripheral>  (721) 
nan

>  <Num_H_Atoms_ProtBoundConf>  (721) 
nan

>  <Num_Resolved_Atoms>  (721) 
nan

>  <Num_Not_Resolved_Atoms>  (721) 
nan

$$$$
CHEMBL4522938
     RDKit          3D

  0  0  0  0  0  0  0  0  0  0999 V3000
M  V30 BEGIN CTAB
M  V30 COUNTS 41 43 0 0 0
M  V30 BEGIN ATOM
M  V30 1 C -0.684627 -3.785960 3.172230 0
M  V30 2 C -0.265561 -3.355523 1.807738 0
M  V30 3 N 0.071497 -1.950287 1.684180 0
M  V30 4 C -0.396706 -0.771047 1.039162 0
M  V30 5 N 0.544350 -0.297686 0.167319 0
M  V30 6 C 0.359351 0.803164 -0.581828 0
M  V30 7 C 1.384816 1.282470 -1.504017 0
M  V30 8 C 2.579649 0.601406 -1.610444 0
M  V30 9 C 3.594404 1.011517 -2.474253 0
M  V30 10 N 3.362491 2.111980 -3.211028 0
M  V30 11 C 2.192822 2.769712 -3.099716 0
M  V30 12 C 1.158038 2.408653 -2.263622 0
M  V30 13 F -0.000135 3.102990 -2.186753 0
M  V30 14 N -0.808659 1.458965 -0.458104 0
M  V30 15 C -1.783796 1.061002 0.374319 0
M  V30 16 C -3.001912 1.656382 0.571633 0
M  V30 17 N -3.912795 1.165828 1.440735 0
M  V30 18 C -3.666703 0.041949 2.174442 0
M  V30 19 C -2.462698 -0.614255 2.031627 0
M  V30 20 C -1.576334 -0.068866 1.133352 0
M  V30 21 C 1.290773 -1.742040 2.470786 0
M  V30 22 C 1.765053 -0.312518 2.474722 0
M  V30 23 C 2.419172 -2.554967 1.859556 0
M  V30 24 H -0.592644 -3.027916 3.962797 0
M  V30 25 H -0.107588 -4.725187 3.419291 0
M  V30 26 H -1.756273 -4.136042 3.211665 0
M  V30 27 H -1.132568 -3.616179 1.125717 0
M  V30 28 H 0.557121 -4.009363 1.389336 0
M  V30 29 H 2.729865 -0.280929 -1.000475 0
M  V30 30 H 4.536879 0.469144 -2.553319 0
M  V30 31 H 2.074878 3.644448 -3.721930 0
M  V30 32 H -3.200013 2.562073 -0.021036 0
M  V30 33 H -4.449232 -0.308330 2.865562 0
M  V30 34 H -2.258968 -1.501493 2.606996 0
M  V30 35 H 1.132366 -2.072510 3.497745 0
M  V30 36 H 0.971678 0.436421 2.620485 0
M  V30 37 H 2.409683 -0.218129 3.396472 0
M  V30 38 H 2.425658 -0.149991 1.616874 0
M  V30 39 H 2.292655 -2.480755 0.759668 0
M  V30 40 H 3.374663 -2.083175 2.186779 0
M  V30 41 H 2.382183 -3.621008 2.180421 0
M  V30 END ATOM
M  V30 BEGIN BOND
M  V30 1 1 1 2
M  V30 2 1 2 3
M  V30 3 1 3 4
M  V30 4 2 4 5
M  V30 5 1 5 6
M  V30 6 1 6 7
M  V30 7 2 7 8
M  V30 8 1 8 9
M  V30 9 2 9 10
M  V30 10 1 10 11
M  V30 11 2 11 12
M  V30 12 1 12 13
M  V30 13 2 6 14
M  V30 14 1 14 15
M  V30 15 2 15 16
M  V30 16 1 16 17
M  V30 17 2 17 18
M  V30 18 1 18 19
M  V30 19 2 19 20
M  V30 20 1 3 21
M  V30 21 1 21 22
M  V30 22 1 21 23
M  V30 23 1 20 4
M  V30 24 1 12 7
M  V30 25 1 20 15
M  V30 26 1 1 24
M  V30 27 1 1 25
M  V30 28 1 1 26
M  V30 29 1 2 27
M  V30 30 1 2 28
M  V30 31 1 8 29
M  V30 32 1 9 30
M  V30 33 1 11 31
M  V30 34 1 16 32
M  V30 35 1 18 33
M  V30 36 1 19 34
M  V30 37 1 21 35
M  V30 38 1 22 36
M  V30 39 1 22 37
M  V30 40 1 22 38
M  V30 41 1 23 39
M  V30 42 1 23 40
M  V30 43 1 23 41
M  V30 END BOND
M  V30 END CTAB
M  END
>  <Dataset>  (722) 
ChEMBL_Kinases

>  <Ligand_Instance>  (722) 
nan

>  <PDB_ID>  (722) 
nan

>  <Standardized_SMILES>  (722) 
CCN(c1nc(-c2ccncc2F)nc2cnccc12)C(C)C

>  <Name>  (722) 
nan

>  <Pocket>  (722) 
nan

>  <ATP_Site>  (722) 
nan

>  <Peripheral>  (722) 
nan

>  <Num_H_Atoms_ProtBoundConf>  (722) 
nan

>  <Num_Resolved_Atoms>  (722) 
nan

>  <Num_Not_Resolved_Atoms>  (722) 
nan

$$$$
CHEMBL4644825
     RDKit          3D

  0  0  0  0  0  0  0  0  0  0999 V3000
M  V30 BEGIN CTAB
M  V30 COUNTS 64 68 0 0 0
M  V30 BEGIN ATOM
M  V30 1 C 6.474175 -0.711931 5.881756 0
M  V30 2 C 5.665006 -1.317115 4.761063 0
M  V30 3 S 4.010227 -0.731221 4.733763 0
M  V30 4 O 4.046376 0.788161 4.643570 0
M  V30 5 O 3.338361 -1.093098 6.032338 0
M  V30 6 N 3.090654 -1.409183 3.449207 0
M  V30 7 C 3.640059 -1.054312 2.177310 0
M  V30 8 C 2.787563 -1.511045 1.015371 0
M  V30 9 N 1.386518 -1.173122 1.151463 0
M  V30 10 C 0.466183 -0.508293 0.277321 0
M  V30 11 C 0.141098 0.763284 0.757226 0
M  V30 12 C -0.720980 1.527221 -0.020723 0
M  V30 13 C -1.251856 1.087088 -1.218166 0
M  V30 14 C -2.160984 1.904090 -1.998641 0
M  V30 15 C -2.931761 2.574306 -2.634654 0
M  V30 16 C -3.882965 3.420327 -3.401584 0
M  V30 17 C -3.193816 3.848510 -4.654299 0
M  V30 18 O -4.175644 4.590142 -2.683027 0
M  V30 19 C -5.156422 2.720589 -3.623665 0
M  V30 20 N -6.357015 3.046143 -3.700942 0
M  V30 21 C -7.295494 2.144981 -3.922939 0
M  V30 22 C -6.971046 0.765934 -4.082055 0
M  V30 23 S -5.098111 0.876731 -3.874247 0
M  V30 24 C -0.918024 -0.187942 -1.688634 0
M  V30 25 C -0.055950 -0.978834 -0.927515 0
M  V30 26 N 0.355227 -2.282377 -1.285067 0
M  V30 27 C 0.103753 -3.462984 -0.544150 0
M  V30 28 N 1.152927 -4.281305 -0.346871 0
M  V30 29 C 1.032574 -5.417096 0.329534 0
M  V30 30 N -0.173164 -5.727757 0.813075 0
M  V30 31 C -1.275260 -4.985400 0.672026 0
M  V30 32 N -2.578987 -5.097574 1.052679 0
M  V30 33 C -3.232669 -4.022344 0.599970 0
M  V30 34 C -2.364488 -3.172226 -0.095173 0
M  V30 35 C -1.140665 -3.795977 -0.037880 0
M  V30 36 C 0.947681 -1.650401 2.451153 0
M  V30 37 C 1.734183 -0.980533 3.562373 0
M  V30 38 H 7.169798 -1.479861 6.321164 0
M  V30 39 H 5.852748 -0.372579 6.721945 0
M  V30 40 H 7.148507 0.094446 5.511982 0
M  V30 41 H 5.668044 -2.427753 4.966345 0
M  V30 42 H 6.182709 -1.104847 3.798833 0
M  V30 43 H 3.780488 0.050033 2.164186 0
M  V30 44 H 4.624454 -1.571565 2.081655 0
M  V30 45 H 3.225714 -1.043740 0.095210 0
M  V30 46 H 2.876764 -2.601188 0.979231 0
M  V30 47 H 0.494696 1.192079 1.666816 0
M  V30 48 H -1.028707 2.531612 0.283285 0
M  V30 49 H -2.135424 4.085117 -4.453601 0
M  V30 50 H -3.348770 3.164394 -5.516633 0
M  V30 51 H -3.676527 4.820226 -4.967254 0
M  V30 52 H -4.222208 4.332097 -1.729053 0
M  V30 53 H -8.294236 2.606238 -3.958287 0
M  V30 54 H -7.902165 0.080250 -4.270616 0
M  V30 55 H -1.292599 -0.604073 -2.614199 0
M  V30 56 H 0.902241 -2.343905 -2.193927 0
M  V30 57 H 1.728014 -6.198018 0.604060 0
M  V30 58 H -2.959265 -5.905432 1.607750 0
M  V30 59 H -4.277001 -3.773230 0.711259 0
M  V30 60 H -2.605191 -2.216389 -0.586614 0
M  V30 61 H -0.122438 -1.398383 2.647037 0
M  V30 62 H 1.070254 -2.737449 2.557350 0
M  V30 63 H 1.291997 -1.389950 4.506288 0
M  V30 64 H 1.621307 0.121051 3.578537 0
M  V30 END ATOM
M  V30 BEGIN BOND
M  V30 1 1 1 2
M  V30 2 1 2 3
M  V30 3 2 3 4
M  V30 4 2 3 5
M  V30 5 1 3 6
M  V30 6 1 6 7
M  V30 7 1 7 8
M  V30 8 1 8 9
M  V30 9 1 9 10
M  V30 10 2 10 11
M  V30 11 1 11 12
M  V30 12 2 12 13
M  V30 13 1 13 14
M  V30 14 3 14 15
M  V30 15 1 15 16
M  V30 16 1 16 17
M  V30 17 1 16 18
M  V30 18 1 16 19
M  V30 19 2 19 20
M  V30 20 1 20 21
M  V30 21 2 21 22
M  V30 22 1 22 23
M  V30 23 1 13 24
M  V30 24 2 24 25
M  V30 25 1 25 26
M  V30 26 1 26 27
M  V30 27 2 27 28
M  V30 28 1 28 29
M  V30 29 2 29 30
M  V30 30 1 30 31
M  V30 31 1 31 32
M  V30 32 1 32 33
M  V30 33 2 33 34
M  V30 34 1 34 35
M  V30 35 1 9 36
M  V30 36 1 36 37
M  V30 37 1 37 6
M  V30 38 1 25 10
M  V30 39 1 35 27
M  V30 40 1 23 19
M  V30 41 2 35 31
M  V30 42 1 1 38
M  V30 43 1 1 39
M  V30 44 1 1 40
M  V30 45 1 2 41
M  V30 46 1 2 42
M  V30 47 1 7 43
M  V30 48 1 7 44
M  V30 49 1 8 45
M  V30 50 1 8 46
M  V30 51 1 11 47
M  V30 52 1 12 48
M  V30 53 1 17 49
M  V30 54 1 17 50
M  V30 55 1 17 51
M  V30 56 1 18 52
M  V30 57 1 21 53
M  V30 58 1 22 54
M  V30 59 1 24 55
M  V30 60 1 26 56
M  V30 61 1 29 57
M  V30 62 1 32 58
M  V30 63 1 33 59
M  V30 64 1 34 60
M  V30 65 1 36 61
M  V30 66 1 36 62
M  V30 67 1 37 63
M  V30 68 1 37 64
M  V30 END BOND
M  V30 END CTAB
M  END
>  <Dataset>  (723) 
ChEMBL_Kinases

>  <Ligand_Instance>  (723) 
nan

>  <PDB_ID>  (723) 
nan

>  <Standardized_SMILES>  (723) 
CCS(=O)(=O)N1CCN(c2ccc(C#CC(C)(O)c3nccs3)cc2Nc2ncnc3[nH]ccc23)CC1

>  <Name>  (723) 
nan

>  <Pocket>  (723) 
nan

>  <ATP_Site>  (723) 
nan

>  <Peripheral>  (723) 
nan

>  <Num_H_Atoms_ProtBoundConf>  (723) 
nan

>  <Num_Resolved_Atoms>  (723) 
nan

>  <Num_Not_Resolved_Atoms>  (723) 
nan

$$$$
CHEMBL4644831
     RDKit          3D

  0  0  0  0  0  0  0  0  0  0999 V3000
M  V30 BEGIN CTAB
M  V30 COUNTS 51 55 0 0 0
M  V30 BEGIN ATOM
M  V30 1 N 7.416465 2.211866 -3.604517 0
M  V30 2 C 7.494197 1.961180 -2.459507 0
M  V30 3 C 7.594537 1.661687 -1.067191 0
M  V30 4 C 8.775985 1.342728 -0.442199 0
M  V30 5 C 8.818717 1.059891 0.915720 0
M  V30 6 C 7.651083 1.093191 1.685613 0
M  V30 7 C 6.453499 1.411612 1.076260 0
M  V30 8 C 6.462853 1.685013 -0.276845 0
M  V30 9 N 5.200423 2.006991 -0.855310 0
M  V30 10 C 3.933389 2.080930 -0.214268 0
M  V30 11 N 3.145951 2.987695 0.426079 0
M  V30 12 C 2.007208 2.386784 0.815232 0
M  V30 13 C 0.954799 2.965412 1.493007 0
M  V30 14 C -0.114898 2.143103 1.785688 0
M  V30 15 C -0.072676 0.820786 1.393632 0
M  V30 16 C -1.125723 -0.158472 1.633817 0
M  V30 17 C -0.908110 -1.506752 1.824158 0
M  V30 18 C -1.925003 -2.411494 2.049247 0
M  V30 19 C -3.221696 -1.939351 2.084871 0
M  V30 20 N -4.368438 -2.786066 2.312274 0
M  V30 21 C -4.880112 -3.286169 1.102490 0
M  V30 22 O -4.408821 -3.036145 -0.039782 0
M  V30 23 C -6.062438 -4.183672 1.071500 0
M  V30 24 C -6.446037 -4.605967 -0.300454 0
M  V30 25 C -7.620028 -5.515569 -0.539622 0
M  V30 26 C -7.762464 -4.050443 -0.805055 0
M  V30 27 C -3.493429 -0.580346 1.897405 0
M  V30 28 C -2.439303 0.300150 1.672880 0
M  V30 29 C 1.024160 0.321859 0.716486 0
M  V30 30 N 2.094778 1.106051 0.412595 0
M  V30 31 N 3.248607 0.919322 -0.205061 0
M  V30 32 H 9.684140 1.317867 -1.048696 0
M  V30 33 H 9.751315 0.806442 1.417018 0
M  V30 34 H 7.723956 0.866236 2.745675 0
M  V30 35 H 5.536569 1.443910 1.649538 0
M  V30 36 H 5.129571 2.226687 -1.874895 0
M  V30 37 H 0.949902 3.993903 1.784285 0
M  V30 38 H -0.994747 2.479189 2.310720 0
M  V30 39 H 0.127542 -1.835012 1.788340 0
M  V30 40 H -1.748990 -3.466146 2.197462 0
M  V30 41 H -4.815987 -3.038079 3.241637 0
M  V30 42 H -5.902779 -5.099758 1.679717 0
M  V30 43 H -6.905674 -3.643445 1.540746 0
M  V30 44 H -5.650904 -4.597837 -1.102994 0
M  V30 45 H -7.574910 -6.201503 -1.422118 0
M  V30 46 H -8.064405 -5.939562 0.378590 0
M  V30 47 H -8.455544 -3.531039 -0.113404 0
M  V30 48 H -7.847168 -3.705201 -1.853379 0
M  V30 49 H -4.519491 -0.229871 1.928988 0
M  V30 50 H -2.714358 1.334782 1.535888 0
M  V30 51 H 1.112187 -0.714078 0.382404 0
M  V30 END ATOM
M  V30 BEGIN BOND
M  V30 1 3 1 2
M  V30 2 1 2 3
M  V30 3 2 3 4
M  V30 4 1 4 5
M  V30 5 2 5 6
M  V30 6 1 6 7
M  V30 7 2 7 8
M  V30 8 1 8 9
M  V30 9 1 9 10
M  V30 10 1 10 11
M  V30 11 2 11 12
M  V30 12 1 12 13
M  V30 13 2 13 14
M  V30 14 1 14 15
M  V30 15 1 15 16
M  V30 16 2 16 17
M  V30 17 1 17 18
M  V30 18 2 18 19
M  V30 19 1 19 20
M  V30 20 1 20 21
M  V30 21 2 21 22
M  V30 22 1 21 23
M  V30 23 1 23 24
M  V30 24 1 24 25
M  V30 25 1 25 26
M  V30 26 1 19 27
M  V30 27 2 27 28
M  V30 28 2 15 29
M  V30 29 1 29 30
M  V30 30 1 30 31
M  V30 31 1 8 3
M  V30 32 2 31 10
M  V30 33 1 30 12
M  V30 34 1 28 16
M  V30 35 1 26 24
M  V30 36 1 4 32
M  V30 37 1 5 33
M  V30 38 1 6 34
M  V30 39 1 7 35
M  V30 40 1 9 36
M  V30 41 1 13 37
M  V30 42 1 14 38
M  V30 43 1 17 39
M  V30 44 1 18 40
M  V30 45 1 20 41
M  V30 46 1 23 42
M  V30 47 1 23 43
M  V30 48 1 24 44
M  V30 49 1 25 45
M  V30 50 1 25 46
M  V30 51 1 26 47
M  V30 52 1 26 48
M  V30 53 1 27 49
M  V30 54 1 28 50
M  V30 55 1 29 51
M  V30 END BOND
M  V30 END CTAB
M  END
>  <Dataset>  (724) 
ChEMBL_Kinases

>  <Ligand_Instance>  (724) 
nan

>  <PDB_ID>  (724) 
nan

>  <Standardized_SMILES>  (724) 
N#Cc1ccccc1Nc1nc2ccc(-c3ccc(NC(=O)CC4CC4)cc3)cn2n1

>  <Name>  (724) 
nan

>  <Pocket>  (724) 
nan

>  <ATP_Site>  (724) 
nan

>  <Peripheral>  (724) 
nan

>  <Num_H_Atoms_ProtBoundConf>  (724) 
nan

>  <Num_Resolved_Atoms>  (724) 
nan

>  <Num_Not_Resolved_Atoms>  (724) 
nan

$$$$
CHEMBL4644898
     RDKit          3D

  0  0  0  0  0  0  0  0  0  0999 V3000
M  V30 BEGIN CTAB
M  V30 COUNTS 38 41 0 0 0
M  V30 BEGIN ATOM
M  V30 1 C -1.378569 -3.438141 3.670953 0
M  V30 2 C -0.792698 -2.317782 2.845685 0
M  V30 3 C -1.337668 -2.182401 1.461178 0
M  V30 4 N -0.736022 -1.089467 0.722002 0
M  V30 5 C 0.368785 -1.135912 -0.057030 0
M  V30 6 C 0.632303 0.124287 -0.599848 0
M  V30 7 C 1.779128 0.343747 -1.483642 0
M  V30 8 C 3.001849 -0.212476 -1.093285 0
M  V30 9 C 4.113067 -0.027275 -1.903363 0
M  V30 10 N 4.049455 0.669749 -3.050371 0
M  V30 11 C 2.872165 1.216492 -3.445086 0
M  V30 12 C 1.726585 1.063112 -2.673281 0
M  V30 13 C -0.363842 0.956668 -0.119450 0
M  V30 14 C -0.529427 2.281705 -0.373268 0
M  V30 15 C -1.624734 2.893790 0.239579 0
M  V30 16 N -2.442199 2.175758 1.027228 0
M  V30 17 C -2.248893 0.863315 1.257660 0
M  V30 18 C -1.183887 0.179605 0.686680 0
M  V30 19 C 0.703667 -2.324207 2.969028 0
M  V30 20 O 0.515147 -1.661112 4.205839 0
M  V30 21 C -0.561201 -1.013767 3.553135 0
M  V30 22 H -2.467784 -3.492923 3.470461 0
M  V30 23 H -0.896534 -4.404562 3.448691 0
M  V30 24 H -1.205362 -3.197920 4.747222 0
M  V30 25 H -2.428353 -2.159506 1.436694 0
M  V30 26 H -1.050913 -3.116412 0.896035 0
M  V30 27 H 0.931804 -2.047742 -0.204614 0
M  V30 28 H 3.049913 -0.778521 -0.160212 0
M  V30 29 H 5.022426 -0.488843 -1.532282 0
M  V30 30 H 2.816385 1.778885 -4.368545 0
M  V30 31 H 0.771874 1.475743 -2.941515 0
M  V30 32 H 0.144266 2.839190 -1.012748 0
M  V30 33 H -1.829947 3.938842 0.092860 0
M  V30 34 H -2.912300 0.301567 1.890987 0
M  V30 35 H 1.246156 -1.600513 2.298663 0
M  V30 36 H 1.192400 -3.300449 3.090477 0
M  V30 37 H -1.345578 -0.653102 4.226993 0
M  V30 38 H -0.126744 -0.280554 2.862671 0
M  V30 END ATOM
M  V30 BEGIN BOND
M  V30 1 1 1 2
M  V30 2 1 2 3
M  V30 3 1 3 4
M  V30 4 1 4 5
M  V30 5 2 5 6
M  V30 6 1 6 7
M  V30 7 2 7 8
M  V30 8 1 8 9
M  V30 9 2 9 10
M  V30 10 1 10 11
M  V30 11 2 11 12
M  V30 12 1 6 13
M  V30 13 2 13 14
M  V30 14 1 14 15
M  V30 15 2 15 16
M  V30 16 1 16 17
M  V30 17 2 17 18
M  V30 18 1 2 19
M  V30 19 1 19 20
M  V30 20 1 20 21
M  V30 21 1 21 2
M  V30 22 1 18 4
M  V30 23 1 12 7
M  V30 24 1 18 13
M  V30 25 1 1 22
M  V30 26 1 1 23
M  V30 27 1 1 24
M  V30 28 1 3 25
M  V30 29 1 3 26
M  V30 30 1 5 27
M  V30 31 1 8 28
M  V30 32 1 9 29
M  V30 33 1 11 30
M  V30 34 1 12 31
M  V30 35 1 14 32
M  V30 36 1 15 33
M  V30 37 1 17 34
M  V30 38 1 19 35
M  V30 39 1 19 36
M  V30 40 1 21 37
M  V30 41 1 21 38
M  V30 END BOND
M  V30 END CTAB
M  END
>  <Dataset>  (725) 
ChEMBL_Kinases

>  <Ligand_Instance>  (725) 
nan

>  <PDB_ID>  (725) 
nan

>  <Standardized_SMILES>  (725) 
CC1(Cn2cc(-c3ccncc3)c3ccncc32)COC1

>  <Name>  (725) 
nan

>  <Pocket>  (725) 
nan

>  <ATP_Site>  (725) 
nan

>  <Peripheral>  (725) 
nan

>  <Num_H_Atoms_ProtBoundConf>  (725) 
nan

>  <Num_Resolved_Atoms>  (725) 
nan

>  <Num_Not_Resolved_Atoms>  (725) 
nan

$$$$
CHEMBL4644912
     RDKit          3D

  0  0  0  0  0  0  0  0  0  0999 V3000
M  V30 BEGIN CTAB
M  V30 COUNTS 46 48 0 0 0
M  V30 BEGIN ATOM
M  V30 1 N 1.495310 -3.561372 4.727834 0
M  V30 2 C 1.116932 -3.368374 3.374262 0
M  V30 3 O 0.632259 -4.497888 3.154415 0
M  V30 4 C 1.328868 -2.131691 2.655769 0
M  V30 5 C 1.933883 -1.091062 3.302240 0
M  V30 6 N 2.115566 0.030232 2.603211 0
M  V30 7 C 1.724611 0.137103 1.321940 0
M  V30 8 N 1.903106 1.327692 0.522989 0
M  V30 9 C 1.275006 1.417458 -0.786640 0
M  V30 10 C 1.903121 2.469664 -1.634211 0
M  V30 11 C 1.918142 3.822264 -1.003077 0
M  V30 12 C 1.909740 3.703044 0.488697 0
M  V30 13 N 2.426265 4.896603 1.137928 0
M  V30 14 C 2.678334 2.468343 0.915072 0
M  V30 15 N 1.135523 -0.911053 0.728080 0
M  V30 16 C 0.908943 -2.082899 1.351150 0
M  V30 17 N 0.267617 -3.105524 0.603202 0
M  V30 18 C -1.158784 -2.952585 0.443167 0
M  V30 19 C -1.813384 -1.881781 1.018963 0
M  V30 20 C -3.175345 -1.676710 0.885875 0
M  V30 21 C -3.886787 -2.599546 0.138515 0
M  V30 22 C -3.256056 -3.670710 -0.442844 0
M  V30 23 C -4.108764 -4.589973 -1.220917 0
M  V30 24 F -3.357390 -5.531365 -1.878232 0
M  V30 25 F -4.966181 -5.236347 -0.347072 0
M  V30 26 F -4.855107 -3.886597 -2.150722 0
M  V30 27 C -1.899359 -3.852550 -0.295055 0
M  V30 28 H 0.903115 -3.548684 5.568143 0
M  V30 29 H 0.920768 -3.552911 5.589011 0
M  V30 30 H 2.247645 -1.168958 4.327494 0
M  V30 31 H 1.469542 0.436429 -1.309170 0
M  V30 32 H 0.176320 1.479991 -0.713550 0
M  V30 33 H 1.362816 2.457922 -2.611418 0
M  V30 34 H 2.954080 2.145940 -1.857113 0
M  V30 35 H 0.990045 4.347809 -1.335788 0
M  V30 36 H 2.755353 4.440788 -1.398898 0
M  V30 37 H 0.865982 3.579690 0.812704 0
M  V30 38 H 1.811581 5.205247 1.917731 0
M  V30 39 H 2.416036 5.694467 0.432679 0
M  V30 40 H 3.692996 2.420350 0.441203 0
M  V30 41 H 2.743764 2.438043 2.026498 0
M  V30 42 H 0.705062 -3.945771 0.157589 0
M  V30 43 H -1.275618 -1.157214 1.600028 0
M  V30 44 H -3.659909 -0.835483 1.348778 0
M  V30 45 H -4.946209 -2.425902 0.042904 0
M  V30 46 H -1.441139 -4.702600 -0.765467 0
M  V30 END ATOM
M  V30 BEGIN BOND
M  V30 1 1 1 2
M  V30 2 2 2 3
M  V30 3 1 2 4
M  V30 4 2 4 5
M  V30 5 1 5 6
M  V30 6 2 6 7
M  V30 7 1 7 8
M  V30 8 1 8 9
M  V30 9 1 9 10
M  V30 10 1 10 11
M  V30 11 1 11 12
M  V30 12 1 12 13
M  V30 13 1 12 14
M  V30 14 1 7 15
M  V30 15 2 15 16
M  V30 16 1 16 17
M  V30 17 1 17 18
M  V30 18 2 18 19
M  V30 19 1 19 20
M  V30 20 2 20 21
M  V30 21 1 21 22
M  V30 22 1 22 23
M  V30 23 1 23 24
M  V30 24 1 23 25
M  V30 25 1 23 26
M  V30 26 2 22 27
M  V30 27 1 16 4
M  V30 28 1 27 18
M  V30 29 1 14 8
M  V30 30 1 1 28
M  V30 31 1 1 29
M  V30 32 1 5 30
M  V30 33 1 9 31
M  V30 34 1 9 32
M  V30 35 1 10 33
M  V30 36 1 10 34
M  V30 37 1 11 35
M  V30 38 1 11 36
M  V30 39 1 12 37
M  V30 40 1 13 38
M  V30 41 1 13 39
M  V30 42 1 14 40
M  V30 43 1 14 41
M  V30 44 1 17 42
M  V30 45 1 19 43
M  V30 46 1 20 44
M  V30 47 1 21 45
M  V30 48 1 27 46
M  V30 END BOND
M  V30 END CTAB
M  END
>  <Dataset>  (726) 
ChEMBL_Kinases

>  <Ligand_Instance>  (726) 
nan

>  <PDB_ID>  (726) 
nan

>  <Standardized_SMILES>  (726) 
NC(=O)c1cnc(N2CCCC(N)C2)nc1Nc1cccc(C(F)(F)F)c1

>  <Name>  (726) 
nan

>  <Pocket>  (726) 
nan

>  <ATP_Site>  (726) 
nan

>  <Peripheral>  (726) 
nan

>  <Num_H_Atoms_ProtBoundConf>  (726) 
nan

>  <Num_Resolved_Atoms>  (726) 
nan

>  <Num_Not_Resolved_Atoms>  (726) 
nan

$$$$
CHEMBL4644948
     RDKit          3D

  0  0  0  0  0  0  0  0  0  0999 V3000
M  V30 BEGIN CTAB
M  V30 COUNTS 53 56 0 0 0
M  V30 BEGIN ATOM
M  V30 1 N -1.587215 -1.536243 5.314917 0
M  V30 2 C -1.882624 -0.867570 4.092573 0
M  V30 3 O -3.101959 -0.719448 3.778395 0
M  V30 4 C -0.830069 -0.363466 3.216178 0
M  V30 5 C 0.483065 -0.544189 3.601540 0
M  V30 6 N 1.422711 -0.052936 2.746850 0
M  V30 7 C 1.096837 0.565292 1.606257 0
M  V30 8 N 2.137324 1.046094 0.771780 0
M  V30 9 C 3.522527 0.884822 1.200777 0
M  V30 10 C 4.464439 1.329856 0.081643 0
M  V30 11 C 4.188975 2.804050 -0.108222 0
M  V30 12 C 2.797921 2.941696 -0.669423 0 CFG=2
M  V30 13 N 2.182887 4.098775 -0.053789 0
M  V30 14 C 1.963873 1.695191 -0.492342 0
M  V30 15 N -0.190605 0.732961 1.246026 0
M  V30 16 C -1.190075 0.270243 2.046209 0
M  V30 17 N -2.538056 0.459013 1.631278 0
M  V30 18 C -3.095399 -0.544174 0.765004 0
M  V30 19 C -4.405012 -0.534545 0.327597 0
M  V30 20 C -4.913941 -1.503169 -0.505775 0
M  V30 21 C -4.083519 -2.545348 -0.935117 0
M  V30 22 C -2.766689 -2.607936 -0.531706 0
M  V30 23 C -1.851095 -3.666438 -0.947464 0
M  V30 24 C -2.021204 -4.216964 -2.181065 0
M  V30 25 C -1.181552 -5.221521 -2.623345 0
M  V30 26 C -0.135490 -5.715840 -1.845763 0
M  V30 27 C 0.029633 -5.145612 -0.585717 0
M  V30 28 C -0.820910 -4.143553 -0.164237 0
M  V30 29 C -2.330389 -1.606738 0.299491 0
M  V30 30 H -1.608196 -2.589717 5.386005 0
M  V30 31 H -1.366881 -0.869343 6.062597 0
M  V30 32 H 0.712211 -1.049356 4.532130 0
M  V30 33 H 3.730695 -0.142088 1.548851 0
M  V30 34 H 3.678268 1.605766 2.032077 0
M  V30 35 H 4.289673 0.776019 -0.841068 0
M  V30 36 H 5.496960 1.177688 0.463046 0
M  V30 37 H 4.228765 3.301350 0.879442 0
M  V30 38 H 4.915226 3.298745 -0.775142 0
M  V30 39 H 2.891875 3.169470 -1.752001 0
M  V30 40 H 2.113548 4.007254 0.985532 0
M  V30 41 H 1.276350 4.352231 -0.497865 0
M  V30 42 H 2.278076 0.975074 -1.285537 0
M  V30 43 H 0.901588 1.935082 -0.696445 0
M  V30 44 H -3.194861 1.242708 1.874505 0
M  V30 45 H -5.048398 0.262684 0.653402 0
M  V30 46 H -5.938320 -1.499748 -0.850819 0
M  V30 47 H -4.400677 -3.355935 -1.597351 0
M  V30 48 H -2.822256 -3.870866 -2.833754 0
M  V30 49 H -1.316666 -5.654368 -3.593586 0
M  V30 50 H 0.536043 -6.505216 -2.171125 0
M  V30 51 H 0.831967 -5.529593 0.000391 0
M  V30 52 H -0.676859 -3.707118 0.828765 0
M  V30 53 H -1.286455 -1.637008 0.633001 0
M  V30 END ATOM
M  V30 BEGIN BOND
M  V30 1 1 1 2
M  V30 2 2 2 3
M  V30 3 1 2 4
M  V30 4 2 4 5
M  V30 5 1 5 6
M  V30 6 2 6 7
M  V30 7 1 7 8
M  V30 8 1 8 9
M  V30 9 1 9 10
M  V30 10 1 10 11
M  V30 11 1 11 12
M  V30 12 1 12 13
M  V30 13 1 12 14
M  V30 14 1 7 15
M  V30 15 2 15 16
M  V30 16 1 16 17
M  V30 17 1 17 18
M  V30 18 2 18 19
M  V30 19 1 19 20
M  V30 20 2 20 21
M  V30 21 1 21 22
M  V30 22 1 22 23
M  V30 23 2 23 24
M  V30 24 1 24 25
M  V30 25 2 25 26
M  V30 26 1 26 27
M  V30 27 2 27 28
M  V30 28 2 22 29
M  V30 29 1 16 4
M  V30 30 1 29 18
M  V30 31 1 14 8
M  V30 32 1 28 23
M  V30 33 1 1 30
M  V30 34 1 1 31
M  V30 35 1 5 32
M  V30 36 1 9 33
M  V30 37 1 9 34
M  V30 38 1 10 35
M  V30 39 1 10 36
M  V30 40 1 11 37
M  V30 41 1 11 38
M  V30 42 1 12 39 CFG=3
M  V30 43 1 13 40
M  V30 44 1 13 41
M  V30 45 1 14 42
M  V30 46 1 14 43
M  V30 47 1 17 44
M  V30 48 1 19 45
M  V30 49 1 20 46
M  V30 50 1 21 47
M  V30 51 1 24 48
M  V30 52 1 25 49
M  V30 53 1 26 50
M  V30 54 1 27 51
M  V30 55 1 28 52
M  V30 56 1 29 53
M  V30 END BOND
M  V30 END CTAB
M  END
>  <Dataset>  (727) 
ChEMBL_Kinases

>  <Ligand_Instance>  (727) 
nan

>  <PDB_ID>  (727) 
nan

>  <Standardized_SMILES>  (727) 
NC(=O)c1cnc(N2CCC[C@H](N)C2)nc1Nc1cccc(-c2ccccc2)c1

>  <Name>  (727) 
nan

>  <Pocket>  (727) 
nan

>  <ATP_Site>  (727) 
nan

>  <Peripheral>  (727) 
nan

>  <Num_H_Atoms_ProtBoundConf>  (727) 
nan

>  <Num_Resolved_Atoms>  (727) 
nan

>  <Num_Not_Resolved_Atoms>  (727) 
nan

$$$$
CHEMBL4644959
     RDKit          3D

  0  0  0  0  0  0  0  0  0  0999 V3000
M  V30 BEGIN CTAB
M  V30 COUNTS 46 48 0 0 0
M  V30 BEGIN ATOM
M  V30 1 C 0.530126 -3.864367 3.946898 0
M  V30 2 C 1.449410 -4.103848 2.741889 0
M  V30 3 O 1.558360 -2.880222 2.038183 0
M  V30 4 C 2.302773 -2.706617 0.897708 0
M  V30 5 O 2.906331 -3.747439 0.502393 0
M  V30 6 C 2.387880 -1.425895 0.202405 0
M  V30 7 C 3.157147 -1.339057 -0.935012 0
M  V30 8 N 3.220003 -0.148046 -1.558568 0
M  V30 9 C 2.566228 0.940863 -1.113027 0
M  V30 10 C 2.649555 2.163581 -1.780079 0
M  V30 11 C 1.968358 3.282453 -1.308853 0
M  V30 12 C 1.188287 3.192512 -0.154607 0
M  V30 13 C 0.439858 4.359765 0.390936 0
M  V30 14 C 1.114761 1.975153 0.496050 0
M  V30 15 C 1.783070 0.858210 0.042359 0
M  V30 16 C 1.687427 -0.360049 0.724949 0
M  V30 17 N 0.884849 -0.452379 1.912485 0
M  V30 18 C -0.507186 -0.804676 1.869305 0
M  V30 19 C -1.354822 -0.915865 2.970882 0
M  V30 20 C -2.672446 -1.263574 2.775116 0
M  V30 21 C -3.179393 -1.507808 1.494528 0
M  V30 22 C -2.365381 -1.404574 0.398004 0
M  V30 23 S -2.938219 -1.697210 -1.230422 0
M  V30 24 N -3.526993 -0.233542 -1.933305 0
M  V30 25 O -4.003218 -2.751269 -1.183146 0
M  V30 26 O -1.758789 -2.190565 -2.028993 0
M  V30 27 C -1.046967 -1.055542 0.606037 0
M  V30 28 H 0.536928 -4.750395 4.622531 0
M  V30 29 H 0.885303 -3.007300 4.556594 0
M  V30 30 H -0.489271 -3.607611 3.615898 0
M  V30 31 H 0.882726 -4.812827 2.103810 0
M  V30 32 H 2.418826 -4.456193 3.092598 0
M  V30 33 H 3.697742 -2.184609 -1.328012 0
M  V30 34 H 3.246929 2.261469 -2.677004 0
M  V30 35 H 2.016649 4.236986 -1.805666 0
M  V30 36 H -0.589620 4.076287 0.640748 0
M  V30 37 H 0.424124 5.162597 -0.361040 0
M  V30 38 H 0.923239 4.662021 1.346005 0
M  V30 39 H 0.518786 1.907952 1.377209 0
M  V30 40 H 1.328585 -0.256235 2.843855 0
M  V30 41 H -0.901022 -0.714394 3.929978 0
M  V30 42 H -3.319167 -1.345229 3.650155 0
M  V30 43 H -4.202871 -1.776057 1.362510 0
M  V30 44 H -3.785675 0.413516 -1.144475 0
M  V30 45 H -2.736634 0.200114 -2.445528 0
M  V30 46 H -0.408292 -0.976556 -0.276380 0
M  V30 END ATOM
M  V30 BEGIN BOND
M  V30 1 1 1 2
M  V30 2 1 2 3
M  V30 3 1 3 4
M  V30 4 2 4 5
M  V30 5 1 4 6
M  V30 6 2 6 7
M  V30 7 1 7 8
M  V30 8 2 8 9
M  V30 9 1 9 10
M  V30 10 2 10 11
M  V30 11 1 11 12
M  V30 12 1 12 13
M  V30 13 2 12 14
M  V30 14 1 14 15
M  V30 15 2 15 16
M  V30 16 1 16 17
M  V30 17 1 17 18
M  V30 18 2 18 19
M  V30 19 1 19 20
M  V30 20 2 20 21
M  V30 21 1 21 22
M  V30 22 1 22 23
M  V30 23 1 23 24
M  V30 24 2 23 25
M  V30 25 2 23 26
M  V30 26 2 22 27
M  V30 27 1 16 6
M  V30 28 1 27 18
M  V30 29 1 15 9
M  V30 30 1 1 28
M  V30 31 1 1 29
M  V30 32 1 1 30
M  V30 33 1 2 31
M  V30 34 1 2 32
M  V30 35 1 7 33
M  V30 36 1 10 34
M  V30 37 1 11 35
M  V30 38 1 13 36
M  V30 39 1 13 37
M  V30 40 1 13 38
M  V30 41 1 14 39
M  V30 42 1 17 40
M  V30 43 1 19 41
M  V30 44 1 20 42
M  V30 45 1 21 43
M  V30 46 1 24 44
M  V30 47 1 24 45
M  V30 48 1 27 46
M  V30 END BOND
M  V30 END CTAB
M  END
>  <Dataset>  (728) 
ChEMBL_Kinases

>  <Ligand_Instance>  (728) 
nan

>  <PDB_ID>  (728) 
nan

>  <Standardized_SMILES>  (728) 
CCOC(=O)c1cnc2ccc(C)cc2c1Nc1cccc(S(N)(=O)=O)c1

>  <Name>  (728) 
nan

>  <Pocket>  (728) 
nan

>  <ATP_Site>  (728) 
nan

>  <Peripheral>  (728) 
nan

>  <Num_H_Atoms_ProtBoundConf>  (728) 
nan

>  <Num_Resolved_Atoms>  (728) 
nan

>  <Num_Not_Resolved_Atoms>  (728) 
nan

$$$$
CHEMBL4645084
     RDKit          3D

  0  0  0  0  0  0  0  0  0  0999 V3000
M  V30 BEGIN CTAB
M  V30 COUNTS 77 82 0 0 0
M  V30 BEGIN ATOM
M  V30 1 O 5.385030 0.231753 4.092786 0
M  V30 2 C 4.787358 -0.419400 3.196878 0
M  V30 3 N 5.466592 -1.369745 2.347552 0
M  V30 4 C 6.831598 -1.378159 2.753958 0
M  V30 5 C 7.762998 -2.282540 2.036539 0
M  V30 6 N 7.488219 -3.692301 2.097963 0
M  V30 7 C 8.588867 -4.401322 1.444612 0
M  V30 8 C 8.296608 -5.850189 1.253877 0
M  V30 9 O 6.959903 -6.166923 1.595170 0
M  V30 10 C 6.193812 -5.333501 0.771646 0
M  V30 11 C 6.244773 -3.950557 1.389972 0
M  V30 12 C 3.347494 -0.102051 3.123374 0
M  V30 13 C 2.814117 0.953440 3.815185 0
M  V30 14 C 1.472181 1.267061 3.782664 0
M  V30 15 C 0.580294 0.498092 3.020922 0
M  V30 16 C 1.089883 -0.585198 2.303286 0
M  V30 17 C 2.442210 -0.832903 2.387777 0
M  V30 18 C 0.434554 -1.584524 1.426150 0
M  V30 19 O 1.131898 -2.456472 0.875115 0
M  V30 20 C -1.006755 -1.561965 1.200809 0
M  V30 21 C -1.433233 -2.809958 0.820372 0
M  V30 22 C -2.739707 -3.127436 0.529791 0
M  V30 23 C -3.646514 -2.066065 0.647699 0
M  V30 24 N -5.029660 -2.301722 0.397915 0
M  V30 25 C -6.119675 -1.539379 -0.099963 0
M  V30 26 C -7.442032 -1.820155 0.140213 0
M  V30 27 C -8.402288 -1.033903 -0.434337 0
M  V30 28 C -8.012032 0.039300 -1.255212 0
M  V30 29 F -9.169160 0.624970 -1.671972 0
M  V30 30 C -6.637160 0.273903 -1.462545 0
M  V30 31 C -6.738914 1.418814 -2.378920 0
M  V30 32 N -6.959436 2.351273 -3.116646 0
M  V30 33 N -6.257763 3.242503 -3.880670 0
M  V30 34 C -5.626188 4.478725 -3.868861 0
M  V30 35 O -5.550949 5.240541 -2.878287 0
M  V30 36 C -5.037057 4.827641 -5.152592 0
M  V30 37 C -4.942348 4.263994 -6.348989 0
M  V30 38 C -4.298049 4.883496 -7.365731 0
M  V30 39 C -3.745640 6.145613 -7.068163 0
M  V30 40 S -4.172368 6.454285 -5.245602 0
M  V30 41 C -5.685452 -0.516712 -0.882867 0
M  V30 42 C -3.267303 -0.791433 1.026992 0
M  V30 43 C -1.926116 -0.524956 1.311342 0
M  V30 44 C -1.549255 0.848595 1.736949 0
M  V30 45 C -0.844451 0.915560 3.058760 0
M  V30 46 H 4.750599 -1.741509 1.704276 0
M  V30 47 H 7.255619 -0.346476 2.762689 0
M  V30 48 H 6.837656 -1.721036 3.834757 0
M  V30 49 H 8.783773 -2.103432 2.496995 0
M  V30 50 H 7.904904 -1.958683 0.956364 0
M  V30 51 H 8.902212 -3.878589 0.542576 0
M  V30 52 H 9.450340 -4.340629 2.168943 0
M  V30 53 H 8.358061 -6.138299 0.164495 0
M  V30 54 H 8.937786 -6.548303 1.794320 0
M  V30 55 H 5.156817 -5.712459 0.802674 0
M  V30 56 H 6.593167 -5.320832 -0.267578 0
M  V30 57 H 5.424396 -3.923795 2.124151 0
M  V30 58 H 6.110928 -3.238531 0.556181 0
M  V30 59 H 3.468764 1.580956 4.418352 0
M  V30 60 H 1.062814 2.086296 4.318275 0
M  V30 61 H 2.783899 -1.677450 1.821758 0
M  V30 62 H -0.697894 -3.617753 0.737801 0
M  V30 63 H -3.059456 -4.111761 0.233260 0
M  V30 64 H -5.336332 -3.293140 0.640898 0
M  V30 65 H -7.569935 -2.657583 0.775211 0
M  V30 66 H -9.401966 -1.393788 -0.141646 0
M  V30 67 H -5.646251 1.518516 -2.522760 0
M  V30 68 H -6.323181 2.586205 -4.718913 0
M  V30 69 H -5.402563 3.290840 -6.465044 0
M  V30 70 H -4.171291 4.503735 -8.367057 0
M  V30 71 H -3.178064 6.796241 -7.797015 0
M  V30 72 H -4.728025 -0.136662 -1.188479 0
M  V30 73 H -3.914585 0.053583 1.132620 0
M  V30 74 H -2.479493 1.482046 1.865022 0
M  V30 75 H -0.893632 1.338617 0.993498 0
M  V30 76 H -1.320475 0.294594 3.848294 0
M  V30 77 H -0.875728 1.956000 3.405844 0
M  V30 END ATOM
M  V30 BEGIN BOND
M  V30 1 2 1 2
M  V30 2 1 2 3
M  V30 3 1 3 4
M  V30 4 1 4 5
M  V30 5 1 5 6
M  V30 6 1 6 7
M  V30 7 1 7 8
M  V30 8 1 8 9
M  V30 9 1 9 10
M  V30 10 1 10 11
M  V30 11 1 2 12
M  V30 12 2 12 13
M  V30 13 1 13 14
M  V30 14 2 14 15
M  V30 15 1 15 16
M  V30 16 2 16 17
M  V30 17 1 16 18
M  V30 18 2 18 19
M  V30 19 1 18 20
M  V30 20 2 20 21
M  V30 21 1 21 22
M  V30 22 2 22 23
M  V30 23 1 23 24
M  V30 24 1 24 25
M  V30 25 2 25 26
M  V30 26 1 26 27
M  V30 27 2 27 28
M  V30 28 1 28 29
M  V30 29 1 28 30
M  V30 30 1 30 31
M  V30 31 2 31 32
M  V30 32 1 32 33
M  V30 33 1 33 34
M  V30 34 2 34 35
M  V30 35 1 34 36
M  V30 36 2 36 37
M  V30 37 1 37 38
M  V30 38 2 38 39
M  V30 39 1 39 40
M  V30 40 2 30 41
M  V30 41 1 23 42
M  V30 42 2 42 43
M  V30 43 1 43 44
M  V30 44 1 44 45
M  V30 45 1 11 6
M  V30 46 1 17 12
M  V30 47 1 43 20
M  V30 48 1 45 15
M  V30 49 1 41 25
M  V30 50 1 40 36
M  V30 51 1 3 46
M  V30 52 1 4 47
M  V30 53 1 4 48
M  V30 54 1 5 49
M  V30 55 1 5 50
M  V30 56 1 7 51
M  V30 57 1 7 52
M  V30 58 1 8 53
M  V30 59 1 8 54
M  V30 60 1 10 55
M  V30 61 1 10 56
M  V30 62 1 11 57
M  V30 63 1 11 58
M  V30 64 1 13 59
M  V30 65 1 14 60
M  V30 66 1 17 61
M  V30 67 1 21 62
M  V30 68 1 22 63
M  V30 69 1 24 64
M  V30 70 1 26 65
M  V30 71 1 27 66
M  V30 72 1 31 67
M  V30 73 1 33 68
M  V30 74 1 37 69
M  V30 75 1 38 70
M  V30 76 1 39 71
M  V30 77 1 41 72
M  V30 78 1 42 73
M  V30 79 1 44 74
M  V30 80 1 44 75
M  V30 81 1 45 76
M  V30 82 1 45 77
M  V30 END BOND
M  V30 END CTAB
M  END
>  <Dataset>  (729) 
ChEMBL_Kinases

>  <Ligand_Instance>  (729) 
nan

>  <PDB_ID>  (729) 
nan

>  <Standardized_SMILES>  (729) 
O=C(NCCN1CCOCC1)c1ccc2c(c1)C(=O)c1ccc(Nc3ccc(F)c(/C=N/NC(=O)c4cccs4)c3)cc1CC2

>  <Name>  (729) 
nan

>  <Pocket>  (729) 
nan

>  <ATP_Site>  (729) 
nan

>  <Peripheral>  (729) 
nan

>  <Num_H_Atoms_ProtBoundConf>  (729) 
nan

>  <Num_Resolved_Atoms>  (729) 
nan

>  <Num_Not_Resolved_Atoms>  (729) 
nan

$$$$
CHEMBL4645145
     RDKit          3D

  0  0  0  0  0  0  0  0  0  0999 V3000
M  V30 BEGIN CTAB
M  V30 COUNTS 45 48 0 0 0
M  V30 BEGIN ATOM
M  V30 1 O 2.371684 -3.133348 2.626668 0
M  V30 2 C 1.559659 -2.260493 2.208578 0
M  V30 3 N 2.018158 -1.851378 0.946725 0
M  V30 4 C 3.166351 -2.306417 0.243769 0
M  V30 5 C 2.750065 -3.093534 -0.971855 0
M  V30 6 C 1.978677 -2.202371 -1.908816 0
M  V30 7 S 3.123510 -0.939215 -2.470248 0
M  V30 8 O 2.487592 0.013113 -3.411676 0
M  V30 9 O 4.310067 -1.645058 -3.060319 0
M  V30 10 C 3.659787 -0.138145 -0.952065 0
M  V30 11 C 4.184462 -1.247062 -0.083613 0
M  V30 12 C 0.451156 -1.929945 3.067847 0
M  V30 13 N 0.379524 -2.581566 4.247742 0
M  V30 14 N -0.703921 -2.154149 4.913024 0
M  V30 15 C -1.386088 -1.224010 4.227451 0
M  V30 16 C -2.523178 -0.472041 4.418671 0
M  V30 17 C -2.922859 0.420393 3.436349 0
M  V30 18 C -2.157987 0.520026 2.296068 0
M  V30 19 C -2.554781 1.462065 1.227901 0
M  V30 20 C -2.961764 2.761871 1.439021 0
M  V30 21 C -3.311051 3.559871 0.373535 0
M  V30 22 C -3.264964 3.087556 -0.926720 0
M  V30 23 C -2.861604 1.791250 -1.167646 0
M  V30 24 F -2.814389 1.322359 -2.440920 0
M  V30 25 C -2.513590 1.002684 -0.080460 0
M  V30 26 F -2.128847 -0.254164 -0.390248 0
M  V30 27 C -1.019532 -0.228192 2.096814 0
M  V30 28 C -0.643037 -1.100808 3.075578 0
M  V30 29 H 1.414244 -1.123344 0.520689 0
M  V30 30 H 3.708310 -3.031895 0.909623 0
M  V30 31 H 2.149224 -3.979327 -0.689456 0
M  V30 32 H 3.674950 -3.389949 -1.535324 0
M  V30 33 H 1.577352 -2.769566 -2.782689 0
M  V30 34 H 1.164863 -1.666669 -1.381792 0
M  V30 35 H 4.504418 0.544422 -1.143942 0
M  V30 36 H 2.761778 0.346744 -0.532298 0
M  V30 37 H 4.967588 -1.775091 -0.701465 0
M  V30 38 H 4.697068 -0.905351 0.820262 0
M  V30 39 H -0.959573 -2.522468 5.853978 0
M  V30 40 H -3.074029 -0.603999 5.340589 0
M  V30 41 H -3.813161 1.023132 3.562682 0
M  V30 42 H -2.978088 3.075616 2.474441 0
M  V30 43 H -3.628718 4.580594 0.562857 0
M  V30 44 H -3.551359 3.759314 -1.732070 0
M  V30 45 H -0.459132 -0.114465 1.192901 0
M  V30 END ATOM
M  V30 BEGIN BOND
M  V30 1 2 1 2
M  V30 2 1 2 3
M  V30 3 1 3 4
M  V30 4 1 4 5
M  V30 5 1 5 6
M  V30 6 1 6 7
M  V30 7 2 7 8
M  V30 8 2 7 9
M  V30 9 1 7 10
M  V30 10 1 10 11
M  V30 11 1 2 12
M  V30 12 2 12 13
M  V30 13 1 13 14
M  V30 14 1 14 15
M  V30 15 2 15 16
M  V30 16 1 16 17
M  V30 17 2 17 18
M  V30 18 1 18 19
M  V30 19 2 19 20
M  V30 20 1 20 21
M  V30 21 2 21 22
M  V30 22 1 22 23
M  V30 23 1 23 24
M  V30 24 2 23 25
M  V30 25 1 25 26
M  V30 26 1 18 27
M  V30 27 2 27 28
M  V30 28 1 11 4
M  V30 29 1 28 12
M  V30 30 1 28 15
M  V30 31 1 25 19
M  V30 32 1 3 29
M  V30 33 1 4 30
M  V30 34 1 5 31
M  V30 35 1 5 32
M  V30 36 1 6 33
M  V30 37 1 6 34
M  V30 38 1 10 35
M  V30 39 1 10 36
M  V30 40 1 11 37
M  V30 41 1 11 38
M  V30 42 1 14 39
M  V30 43 1 16 40
M  V30 44 1 17 41
M  V30 45 1 20 42
M  V30 46 1 21 43
M  V30 47 1 22 44
M  V30 48 1 27 45
M  V30 END BOND
M  V30 END CTAB
M  END
>  <Dataset>  (730) 
ChEMBL_Kinases

>  <Ligand_Instance>  (730) 
nan

>  <PDB_ID>  (730) 
nan

>  <Standardized_SMILES>  (730) 
O=C(NC1CCS(=O)(=O)CC1)c1n[nH]c2ccc(-c3cccc(F)c3F)cc12

>  <Name>  (730) 
nan

>  <Pocket>  (730) 
nan

>  <ATP_Site>  (730) 
nan

>  <Peripheral>  (730) 
nan

>  <Num_H_Atoms_ProtBoundConf>  (730) 
nan

>  <Num_Resolved_Atoms>  (730) 
nan

>  <Num_Not_Resolved_Atoms>  (730) 
nan

$$$$
CHEMBL4645167
     RDKit          3D

  0  0  0  0  0  0  0  0  0  0999 V3000
M  V30 BEGIN CTAB
M  V30 COUNTS 30 32 0 0 0
M  V30 BEGIN ATOM
M  V30 1 C 2.517948 -5.106167 1.820486 0
M  V30 2 C 1.410718 -4.282898 1.902985 0
M  V30 3 C 1.476668 -3.045981 1.310302 0
M  V30 4 C 0.413694 -2.141683 1.337411 0
M  V30 5 C 0.496994 -0.885372 0.728659 0
M  V30 6 O -0.662415 -0.169000 0.881637 0
M  V30 7 C -0.927975 1.118179 0.403506 0 CFG=1
M  V30 8 C -2.168223 1.203473 -0.436017 0
M  V30 9 C -3.006081 2.305208 0.180006 0
M  V30 10 N -2.162179 2.965233 1.145735 0
M  V30 11 C -1.203036 2.001230 1.582029 0
M  V30 12 C 1.656928 -0.545028 0.092471 0
M  V30 13 C 2.742000 -1.391985 0.029999 0
M  V30 14 C 2.619785 -2.614092 0.639242 0
M  V30 15 C 3.683577 -3.491208 0.599355 0
M  V30 16 N 3.629965 -4.713943 1.180440 0
M  V30 17 H 2.452103 -6.073499 2.289885 0
M  V30 18 H 0.507624 -4.556987 2.402446 0
M  V30 19 H -0.460800 -2.527348 1.876036 0
M  V30 20 H -0.045155 1.532703 -0.151800 0
M  V30 21 H -1.878401 1.538079 -1.464425 0
M  V30 22 H -2.729654 0.227676 -0.474492 0
M  V30 23 H -3.475785 2.965088 -0.558264 0
M  V30 24 H -3.825110 1.800620 0.767985 0
M  V30 25 H -1.817576 3.889593 0.887075 0
M  V30 26 H -1.667446 1.395540 2.390479 0
M  V30 27 H -0.263942 2.450998 1.960590 0
M  V30 28 H 1.653748 0.421451 -0.348017 0
M  V30 29 H 3.641318 -1.085026 -0.482933 0
M  V30 30 H 4.593585 -3.201994 0.090095 0
M  V30 END ATOM
M  V30 BEGIN BOND
M  V30 1 2 1 2
M  V30 2 1 2 3
M  V30 3 2 3 4
M  V30 4 1 4 5
M  V30 5 1 5 6
M  V30 6 1 6 7
M  V30 7 1 7 8
M  V30 8 1 8 9
M  V30 9 1 9 10
M  V30 10 1 10 11
M  V30 11 2 5 12
M  V30 12 1 12 13
M  V30 13 2 13 14
M  V30 14 1 14 15
M  V30 15 2 15 16
M  V30 16 1 16 1
M  V30 17 1 14 3
M  V30 18 1 11 7
M  V30 19 1 1 17
M  V30 20 1 2 18
M  V30 21 1 4 19
M  V30 22 1 7 20 CFG=3
M  V30 23 1 8 21
M  V30 24 1 8 22
M  V30 25 1 9 23
M  V30 26 1 9 24
M  V30 27 1 10 25
M  V30 28 1 11 26
M  V30 29 1 11 27
M  V30 30 1 12 28
M  V30 31 1 13 29
M  V30 32 1 15 30
M  V30 END BOND
M  V30 END CTAB
M  END
>  <Dataset>  (731) 
ChEMBL_Kinases

>  <Ligand_Instance>  (731) 
nan

>  <PDB_ID>  (731) 
nan

>  <Standardized_SMILES>  (731) 
c1cc2cc(O[C@H]3CCNC3)ccc2cn1

>  <Name>  (731) 
nan

>  <Pocket>  (731) 
nan

>  <ATP_Site>  (731) 
nan

>  <Peripheral>  (731) 
nan

>  <Num_H_Atoms_ProtBoundConf>  (731) 
nan

>  <Num_Resolved_Atoms>  (731) 
nan

>  <Num_Not_Resolved_Atoms>  (731) 
nan

$$$$
CHEMBL4645182
     RDKit          3D

  0  0  0  0  0  0  0  0  0  0999 V3000
M  V30 BEGIN CTAB
M  V30 COUNTS 68 73 0 0 0
M  V30 BEGIN ATOM
M  V30 1 C 6.011775 2.717025 -0.272558 0
M  V30 2 O 4.911386 1.868653 -0.365029 0
M  V30 3 C 4.218199 1.763612 -1.554850 0
M  V30 4 C 4.642893 2.518486 -2.652239 0
M  V30 5 C 3.984320 2.458494 -3.883574 0
M  V30 6 C 4.538016 3.316477 -4.926856 0
M  V30 7 O 4.263269 4.470379 -4.582469 0
M  V30 8 N 5.230559 2.798867 -6.052761 0
M  V30 9 C 5.642236 1.510097 -6.614948 0
M  V30 10 C 5.832221 2.153660 -7.966002 0
M  V30 11 F 7.040714 1.809232 -8.552687 0
M  V30 12 C 5.866576 3.461077 -7.185106 0
M  V30 13 C 2.891336 1.623093 -3.989139 0
M  V30 14 C 2.527670 0.908754 -2.869359 0
M  V30 15 C 3.131540 0.919894 -1.620355 0
M  V30 16 N 2.678498 0.175892 -0.528050 0
M  V30 17 C 1.555136 -0.694199 -0.509318 0
M  V30 18 N 0.703595 -1.154237 -1.439659 0
M  V30 19 C -0.249788 -1.917879 -0.886063 0
M  V30 20 C -1.334440 -2.585759 -1.388579 0
M  V30 21 C -2.235047 -3.317970 -0.605431 0
M  V30 22 C -1.911447 -3.296618 0.734606 0
M  V30 23 C -2.696366 -3.909482 1.822124 0
M  V30 24 C -4.045548 -3.860507 1.527179 0
M  V30 25 C -4.942648 -4.345135 2.462366 0
M  V30 26 C -4.394872 -4.838920 3.618640 0
M  V30 27 N -5.173141 -5.337403 4.701073 0
M  V30 28 C -5.370003 -4.157868 5.487953 0
M  V30 29 O -4.999346 -2.933656 5.358242 0
M  V30 30 C -5.916761 -3.441527 6.664339 0
M  V30 31 C -5.551557 -2.000278 6.536795 0
M  V30 32 C -6.432021 -1.110141 5.915548 0
M  V30 33 C -6.169398 0.227303 5.744674 0
M  V30 34 C -4.975418 0.751795 6.203770 0
M  V30 35 F -4.615574 2.051726 6.088121 0
M  V30 36 C -4.063094 -0.064395 6.824215 0
M  V30 37 C -4.368172 -1.407089 6.974958 0
M  V30 38 C -3.045770 -4.893504 3.919651 0
M  V30 39 C -2.131842 -4.403994 2.975802 0
M  V30 40 C -0.799644 -2.616715 1.253859 0
M  V30 41 N 0.015533 -1.935664 0.432269 0
M  V30 42 N 1.094916 -1.206055 0.657570 0
M  V30 43 H 6.848874 2.368035 -0.932866 0
M  V30 44 H 6.427822 2.762662 0.760843 0
M  V30 45 H 5.759650 3.756942 -0.618755 0
M  V30 46 H 5.499002 3.155502 -2.528496 0
M  V30 47 H 6.573314 1.117676 -6.151603 0
M  V30 48 H 4.853389 0.721927 -6.606798 0
M  V30 49 H 4.984890 2.060728 -8.676436 0
M  V30 50 H 6.880585 3.769511 -6.891572 0
M  V30 51 H 5.254591 4.277938 -7.618203 0
M  V30 52 H 2.405453 1.594002 -4.938267 0
M  V30 53 H 1.654715 0.278291 -3.051057 0
M  V30 54 H 3.251918 0.293541 0.345043 0
M  V30 55 H -1.549512 -2.577024 -2.451707 0
M  V30 56 H -3.093885 -3.861732 -0.900513 0
M  V30 57 H -4.493082 -3.477405 0.625211 0
M  V30 58 H -6.009372 -4.359900 2.343977 0
M  V30 59 H -5.696257 -5.970677 5.316916 0
M  V30 60 H -5.484643 -3.849944 7.604960 0
M  V30 61 H -7.011348 -3.510921 6.744414 0
M  V30 62 H -7.381698 -1.501673 5.545054 0
M  V30 63 H -6.883076 0.899139 5.251852 0
M  V30 64 H -3.078634 0.191876 7.237504 0
M  V30 65 H -3.697397 -2.132484 7.459329 0
M  V30 66 H -2.603616 -5.282479 4.825067 0
M  V30 67 H -1.058955 -4.388009 3.084912 0
M  V30 68 H -0.528443 -2.591907 2.297233 0
M  V30 END ATOM
M  V30 BEGIN BOND
M  V30 1 1 1 2
M  V30 2 1 2 3
M  V30 3 2 3 4
M  V30 4 1 4 5
M  V30 5 1 5 6
M  V30 6 2 6 7
M  V30 7 1 6 8
M  V30 8 1 8 9
M  V30 9 1 9 10
M  V30 10 1 10 11
M  V30 11 1 10 12
M  V30 12 2 5 13
M  V30 13 1 13 14
M  V30 14 2 14 15
M  V30 15 1 15 16
M  V30 16 1 16 17
M  V30 17 1 17 18
M  V30 18 2 18 19
M  V30 19 1 19 20
M  V30 20 2 20 21
M  V30 21 1 21 22
M  V30 22 1 22 23
M  V30 23 2 23 24
M  V30 24 1 24 25
M  V30 25 2 25 26
M  V30 26 1 26 27
M  V30 27 1 27 28
M  V30 28 2 28 29
M  V30 29 1 28 30
M  V30 30 1 30 31
M  V30 31 2 31 32
M  V30 32 1 32 33
M  V30 33 2 33 34
M  V30 34 1 34 35
M  V30 35 1 34 36
M  V30 36 2 36 37
M  V30 37 1 26 38
M  V30 38 2 38 39
M  V30 39 2 22 40
M  V30 40 1 40 41
M  V30 41 1 41 42
M  V30 42 1 15 3
M  V30 43 2 42 17
M  V30 44 1 12 8
M  V30 45 1 41 19
M  V30 46 1 39 23
M  V30 47 1 37 31
M  V30 48 1 1 43
M  V30 49 1 1 44
M  V30 50 1 1 45
M  V30 51 1 4 46
M  V30 52 1 9 47
M  V30 53 1 9 48
M  V30 54 1 10 49
M  V30 55 1 12 50
M  V30 56 1 12 51
M  V30 57 1 13 52
M  V30 58 1 14 53
M  V30 59 1 16 54
M  V30 60 1 20 55
M  V30 61 1 21 56
M  V30 62 1 24 57
M  V30 63 1 25 58
M  V30 64 1 27 59
M  V30 65 1 30 60
M  V30 66 1 30 61
M  V30 67 1 32 62
M  V30 68 1 33 63
M  V30 69 1 36 64
M  V30 70 1 37 65
M  V30 71 1 38 66
M  V30 72 1 39 67
M  V30 73 1 40 68
M  V30 END BOND
M  V30 END CTAB
M  END
>  <Dataset>  (732) 
ChEMBL_Kinases

>  <Ligand_Instance>  (732) 
nan

>  <PDB_ID>  (732) 
nan

>  <Standardized_SMILES>  (732) 
COc1cc(C(=O)N2CC(F)C2)ccc1Nc1nc2ccc(-c3ccc(NC(=O)Cc4ccc(F)cc4)cc3)cn2n1

>  <Name>  (732) 
nan

>  <Pocket>  (732) 
nan

>  <ATP_Site>  (732) 
nan

>  <Peripheral>  (732) 
nan

>  <Num_H_Atoms_ProtBoundConf>  (732) 
nan

>  <Num_Resolved_Atoms>  (732) 
nan

>  <Num_Not_Resolved_Atoms>  (732) 
nan

$$$$
CHEMBL4645197
     RDKit          3D

  0  0  0  0  0  0  0  0  0  0999 V3000
M  V30 BEGIN CTAB
M  V30 COUNTS 65 68 0 0 0
M  V30 BEGIN ATOM
M  V30 1 C 5.164435 -4.076813 1.759464 0
M  V30 2 C 3.687044 -3.809335 1.420506 0
M  V30 3 O 3.428705 -2.459428 1.593304 0
M  V30 4 C 2.293525 -1.716982 1.424627 0
M  V30 5 O 2.227454 -2.902097 1.194081 0
M  V30 6 C 2.249706 -0.272766 1.672515 0
M  V30 7 C 3.421525 0.260368 2.126598 0
M  V30 8 N 3.350945 1.574816 2.382484 0
M  V30 9 C 2.240028 2.288539 2.208790 0
M  V30 10 C 2.287053 3.620582 2.504174 0
M  V30 11 C 1.190389 4.439911 2.357266 0
M  V30 12 C 0.041627 3.840663 1.895327 0
M  V30 13 C -1.180157 4.609630 1.700523 0
M  V30 14 C -1.294686 5.957047 1.951197 0
M  V30 15 C -2.466656 6.683251 1.762426 0
M  V30 16 N -3.561552 6.020052 1.303227 0
M  V30 17 C -3.489877 4.701830 1.046164 0
M  V30 18 N -4.675322 4.037217 0.560083 0
M  V30 19 C -2.332582 4.010505 1.237929 0
M  V30 20 N 0.031078 2.525823 1.614380 0
M  V30 21 C 1.086871 1.706731 1.749302 0
M  V30 22 C 1.050020 0.362692 1.454895 0
M  V30 23 N -0.150860 -0.185488 0.948903 0
M  V30 24 C -0.649174 -1.437294 0.429658 0 CFG=1
M  V30 25 C -2.142435 -1.356050 0.290083 0
M  V30 26 C -2.790227 -2.219460 -0.711933 0
M  V30 27 C -2.089480 -2.414860 -1.988903 0 CFG=2
M  V30 28 C -1.903103 -3.809913 -2.502109 0
M  V30 29 N -1.166640 -4.745512 -1.767314 0
M  V30 30 C -1.035000 -6.029757 -2.515567 0
M  V30 31 C -1.483900 -5.018662 -0.413737 0
M  V30 32 C -0.807137 -1.607627 -2.097935 0
M  V30 33 C 0.046096 -1.703982 -0.871399 0
M  V30 34 H 5.514396 -3.401429 2.563821 0
M  V30 35 H 5.245036 -5.125373 2.074145 0
M  V30 36 H 5.766237 -3.859887 0.849713 0
M  V30 37 H 3.582767 -4.200717 0.379991 0
M  V30 38 H 3.111830 -4.471265 2.133222 0
M  V30 39 H 4.316356 -0.325524 2.264551 0
M  V30 40 H 3.204513 4.059219 2.864782 0
M  V30 41 H 1.263130 5.487951 2.600386 0
M  V30 42 H -0.453393 6.509347 2.312927 0
M  V30 43 H -2.493133 7.758944 1.981236 0
M  V30 44 H -5.581157 3.952450 1.103908 0
M  V30 45 H -4.757252 3.570492 -0.383451 0
M  V30 46 H -2.328226 2.956255 1.017337 0
M  V30 47 H -0.950463 0.512238 0.931015 0
M  V30 48 H -0.343227 -2.196345 1.177363 0
M  V30 49 H -2.377317 -0.263757 0.108510 0
M  V30 50 H -2.572777 -1.565157 1.292951 0
M  V30 51 H -3.803921 -1.709199 -0.923190 0
M  V30 52 H -3.128219 -3.191411 -0.308101 0
M  V30 53 H -2.730644 -1.941316 -2.801363 0
M  V30 54 H -2.921867 -4.290150 -2.704916 0
M  V30 55 H -1.464960 -3.719413 -3.553409 0
M  V30 56 H -1.336075 -5.924833 -3.557743 0
M  V30 57 H 0.036855 -6.352873 -2.414700 0
M  V30 58 H -1.637533 -6.819099 -2.022110 0
M  V30 59 H -2.507320 -5.430896 -0.237398 0
M  V30 60 H -1.165062 -4.267981 0.332648 0
M  V30 61 H -0.828458 -5.922575 -0.130793 0
M  V30 62 H -1.028059 -0.544468 -2.295493 0
M  V30 63 H -0.265650 -1.997437 -2.977386 0
M  V30 64 H 0.456588 -2.738474 -0.833434 0
M  V30 65 H 0.918228 -1.028754 -0.959236 0
M  V30 END ATOM
M  V30 BEGIN BOND
M  V30 1 1 1 2
M  V30 2 1 2 3
M  V30 3 1 3 4
M  V30 4 2 4 5
M  V30 5 1 4 6
M  V30 6 2 6 7
M  V30 7 1 7 8
M  V30 8 2 8 9
M  V30 9 1 9 10
M  V30 10 2 10 11
M  V30 11 1 11 12
M  V30 12 1 12 13
M  V30 13 2 13 14
M  V30 14 1 14 15
M  V30 15 2 15 16
M  V30 16 1 16 17
M  V30 17 1 17 18
M  V30 18 2 17 19
M  V30 19 2 12 20
M  V30 20 1 20 21
M  V30 21 2 21 22
M  V30 22 1 22 23
M  V30 23 1 23 24
M  V30 24 1 24 25
M  V30 25 1 25 26
M  V30 26 1 26 27
M  V30 27 1 27 28
M  V30 28 1 28 29
M  V30 29 1 29 30
M  V30 30 1 29 31
M  V30 31 1 27 32
M  V30 32 1 32 33
M  V30 33 1 22 6
M  V30 34 1 33 24
M  V30 35 1 21 9
M  V30 36 1 19 13
M  V30 37 1 1 34
M  V30 38 1 1 35
M  V30 39 1 1 36
M  V30 40 1 2 37
M  V30 41 1 2 38
M  V30 42 1 7 39
M  V30 43 1 10 40
M  V30 44 1 11 41
M  V30 45 1 14 42
M  V30 46 1 15 43
M  V30 47 1 18 44
M  V30 48 1 18 45
M  V30 49 1 19 46
M  V30 50 1 23 47
M  V30 51 1 24 48 CFG=1
M  V30 52 1 25 49
M  V30 53 1 25 50
M  V30 54 1 26 51
M  V30 55 1 26 52
M  V30 56 1 27 53 CFG=3
M  V30 57 1 28 54
M  V30 58 1 28 55
M  V30 59 1 30 56
M  V30 60 1 30 57
M  V30 61 1 30 58
M  V30 62 1 31 59
M  V30 63 1 31 60
M  V30 64 1 31 61
M  V30 65 1 32 62
M  V30 66 1 32 63
M  V30 67 1 33 64
M  V30 68 1 33 65
M  V30 END BOND
M  V30 END CTAB
M  END
>  <Dataset>  (733) 
ChEMBL_Kinases

>  <Ligand_Instance>  (733) 
nan

>  <PDB_ID>  (733) 
nan

>  <Standardized_SMILES>  (733) 
CCOC(=O)c1cnc2ccc(-c3ccnc(N)c3)nc2c1N[C@H]1CC[C@H](CN(C)C)CC1

>  <Name>  (733) 
nan

>  <Pocket>  (733) 
nan

>  <ATP_Site>  (733) 
nan

>  <Peripheral>  (733) 
nan

>  <Num_H_Atoms_ProtBoundConf>  (733) 
nan

>  <Num_Resolved_Atoms>  (733) 
nan

>  <Num_Not_Resolved_Atoms>  (733) 
nan

$$$$
CHEMBL4645728
     RDKit          3D

  0  0  0  0  0  0  0  0  0  0999 V3000
M  V30 BEGIN CTAB
M  V30 COUNTS 42 45 0 0 0
M  V30 BEGIN ATOM
M  V30 1 N 4.112801 -5.422520 1.308659 0
M  V30 2 C 3.722685 -4.063099 1.473860 0
M  V30 3 C 4.521793 -3.052748 0.980718 0
M  V30 4 C 4.122064 -1.724489 1.152193 0
M  V30 5 C 2.937981 -1.367705 1.806890 0
M  V30 6 C 2.733884 0.047897 1.880247 0
M  V30 7 C 3.794920 0.789359 2.416493 0
M  V30 8 N 3.774481 2.144087 2.586703 0
M  V30 9 C 2.676169 2.848915 2.225622 0
M  V30 10 C 1.599887 2.171730 1.690875 0
M  V30 11 C 0.455607 2.828019 1.297549 0
M  V30 12 C -0.587697 2.102054 0.763035 0
M  V30 13 C -0.575088 0.734298 0.586474 0
M  V30 14 O -1.594086 -0.018695 0.058366 0
M  V30 15 C -2.828610 0.422589 -0.400297 0 CFG=1
M  V30 16 C -3.093979 0.095559 -1.841676 0
M  V30 17 C -4.147164 -0.957168 -1.806325 0
M  V30 18 N -4.506852 -1.244910 -0.454242 0
M  V30 19 C -3.953438 -0.223194 0.383393 0
M  V30 20 C 0.587171 0.088126 0.988883 0
M  V30 21 C 1.636598 0.803061 1.525341 0
M  V30 22 C 2.174578 -2.413418 2.281894 0
M  V30 23 C 2.546403 -3.731522 2.125482 0
M  V30 24 H 4.242226 -5.841958 0.340276 0
M  V30 25 H 4.227121 -5.788323 0.319673 0
M  V30 26 H 5.440040 -3.310219 0.472295 0
M  V30 27 H 4.819214 -1.008850 0.728723 0
M  V30 28 H 4.710713 0.318600 2.732938 0
M  V30 29 H 2.643462 3.923335 2.354225 0
M  V30 30 H 0.381339 3.905701 1.409421 0
M  V30 31 H -1.449687 2.651165 0.474165 0
M  V30 32 H -2.934143 1.518020 -0.300093 0
M  V30 33 H -2.149709 -0.320544 -2.294590 0
M  V30 34 H -3.400683 0.995884 -2.444301 0
M  V30 35 H -5.037268 -0.666933 -2.417879 0
M  V30 36 H -3.761065 -1.896687 -2.275996 0
M  V30 37 H -5.542159 -1.332587 -0.282897 0
M  V30 38 H -3.537630 -0.705558 1.299188 0
M  V30 39 H -4.700777 0.521460 0.716793 0
M  V30 40 H 0.630647 -0.982691 0.854940 0
M  V30 41 H 1.280134 -2.125594 2.788193 0
M  V30 42 H 1.893008 -4.502993 2.526501 0
M  V30 END ATOM
M  V30 BEGIN BOND
M  V30 1 1 1 2
M  V30 2 2 2 3
M  V30 3 1 3 4
M  V30 4 2 4 5
M  V30 5 1 5 6
M  V30 6 2 6 7
M  V30 7 1 7 8
M  V30 8 2 8 9
M  V30 9 1 9 10
M  V30 10 2 10 11
M  V30 11 1 11 12
M  V30 12 2 12 13
M  V30 13 1 13 14
M  V30 14 1 14 15
M  V30 15 1 15 16
M  V30 16 1 16 17
M  V30 17 1 17 18
M  V30 18 1 18 19
M  V30 19 1 13 20
M  V30 20 2 20 21
M  V30 21 1 5 22
M  V30 22 2 22 23
M  V30 23 1 23 2
M  V30 24 1 21 6
M  V30 25 1 21 10
M  V30 26 1 19 15
M  V30 27 1 1 24
M  V30 28 1 1 25
M  V30 29 1 3 26
M  V30 30 1 4 27
M  V30 31 1 7 28
M  V30 32 1 9 29
M  V30 33 1 11 30
M  V30 34 1 12 31
M  V30 35 1 15 32 CFG=3
M  V30 36 1 16 33
M  V30 37 1 16 34
M  V30 38 1 17 35
M  V30 39 1 17 36
M  V30 40 1 18 37
M  V30 41 1 19 38
M  V30 42 1 19 39
M  V30 43 1 20 40
M  V30 44 1 22 41
M  V30 45 1 23 42
M  V30 END BOND
M  V30 END CTAB
M  END
>  <Dataset>  (734) 
ChEMBL_Kinases

>  <Ligand_Instance>  (734) 
nan

>  <PDB_ID>  (734) 
nan

>  <Standardized_SMILES>  (734) 
Nc1ccc(-c2cncc3ccc(O[C@H]4CCNC4)cc23)cc1

>  <Name>  (734) 
nan

>  <Pocket>  (734) 
nan

>  <ATP_Site>  (734) 
nan

>  <Peripheral>  (734) 
nan

>  <Num_H_Atoms_ProtBoundConf>  (734) 
nan

>  <Num_Resolved_Atoms>  (734) 
nan

>  <Num_Not_Resolved_Atoms>  (734) 
nan

$$$$
CHEMBL4645337
     RDKit          3D

  0  0  0  0  0  0  0  0  0  0999 V3000
M  V30 BEGIN CTAB
M  V30 COUNTS 49 52 0 0 0
M  V30 BEGIN ATOM
M  V30 1 C 0.018147 -1.247543 4.553203 0
M  V30 2 C 0.791486 -0.979666 3.280446 0
M  V30 3 C 2.219424 -1.428510 3.488105 0
M  V30 4 N 0.182069 -1.660302 2.144609 0
M  V30 5 C -0.586465 -1.157625 1.167782 0
M  V30 6 C -0.981802 -2.163869 0.268916 0
M  V30 7 C -1.825373 -1.751748 -0.838344 0
M  V30 8 C -1.603487 -0.695046 -1.597204 0
M  V30 9 C -0.443667 0.159268 -1.368455 0
M  V30 10 C 0.756276 -0.530176 -1.243103 0
M  V30 11 C 1.976594 0.063987 -1.005464 0
M  V30 12 C 2.041715 1.433511 -0.879191 0
M  V30 13 C 0.849228 2.107088 -1.004374 0
M  V30 14 N 0.711031 3.544535 -0.887151 0
M  V30 15 C 0.502983 3.679192 0.529679 0
M  V30 16 O 0.508554 2.598718 1.173979 0
M  V30 17 C 0.286504 4.941306 1.299450 0
M  V30 18 F 0.286844 6.055091 0.514336 0
M  V30 19 C -0.393231 1.526658 -1.244544 0
M  V30 20 C -2.627361 -0.528114 -2.617971 0
M  V30 21 O -2.710075 0.369170 -3.494503 0
M  V30 22 N -3.520635 -1.614128 -2.402696 0
M  V30 23 C -3.061115 -2.400258 -1.307134 0
M  V30 24 O -3.548249 -3.428994 -0.799558 0
M  V30 25 C -0.412945 -3.320258 0.744210 0
M  V30 26 C -0.534580 -4.567993 0.178778 0
M  V30 27 C 0.132341 -5.595578 0.849666 0
M  V30 28 C 0.830012 -5.258149 1.987793 0
M  V30 29 N 0.927541 -4.003502 2.517885 0
M  V30 30 C 0.284820 -2.976268 1.882542 0
M  V30 31 H -0.091288 -0.348606 5.191916 0
M  V30 32 H -1.034088 -1.581673 4.321806 0
M  V30 33 H 0.567573 -1.993648 5.174124 0
M  V30 34 H 0.807998 0.117061 3.131737 0
M  V30 35 H 2.249368 -2.273900 4.207428 0
M  V30 36 H 2.758039 -1.599490 2.554070 0
M  V30 37 H 2.758577 -0.591861 4.004713 0
M  V30 38 H -0.800423 -0.081501 1.189685 0
M  V30 39 H 0.826693 -1.629226 -1.325269 0
M  V30 40 H 2.910208 -0.491355 -0.909618 0
M  V30 41 H 2.914413 2.028218 -0.693397 0
M  V30 42 H 0.705965 4.467225 -1.410776 0
M  V30 43 H -0.713458 4.853287 1.771709 0
M  V30 44 H 1.025805 4.980731 2.119278 0
M  V30 45 H -1.336539 2.020435 -1.350061 0
M  V30 46 H -4.387974 -1.800039 -2.972413 0
M  V30 47 H -1.105334 -4.736844 -0.720177 0
M  V30 48 H 0.097037 -6.612084 0.492695 0
M  V30 49 H 1.383744 -6.004979 2.576464 0
M  V30 END ATOM
M  V30 BEGIN BOND
M  V30 1 1 1 2
M  V30 2 1 2 3
M  V30 3 1 2 4
M  V30 4 1 4 5
M  V30 5 2 5 6
M  V30 6 1 6 7
M  V30 7 2 7 8
M  V30 8 1 8 9
M  V30 9 2 9 10
M  V30 10 1 10 11
M  V30 11 2 11 12
M  V30 12 1 12 13
M  V30 13 1 13 14
M  V30 14 1 14 15
M  V30 15 2 15 16
M  V30 16 1 15 17
M  V30 17 1 17 18
M  V30 18 2 13 19
M  V30 19 1 8 20
M  V30 20 2 20 21
M  V30 21 1 20 22
M  V30 22 1 22 23
M  V30 23 2 23 24
M  V30 24 1 6 25
M  V30 25 2 25 26
M  V30 26 1 26 27
M  V30 27 2 27 28
M  V30 28 1 28 29
M  V30 29 2 29 30
M  V30 30 1 30 4
M  V30 31 1 23 7
M  V30 32 1 30 25
M  V30 33 1 19 9
M  V30 34 1 1 31
M  V30 35 1 1 32
M  V30 36 1 1 33
M  V30 37 1 2 34
M  V30 38 1 3 35
M  V30 39 1 3 36
M  V30 40 1 3 37
M  V30 41 1 5 38
M  V30 42 1 10 39
M  V30 43 1 11 40
M  V30 44 1 12 41
M  V30 45 1 14 42
M  V30 46 1 17 43
M  V30 47 1 17 44
M  V30 48 1 19 45
M  V30 49 1 22 46
M  V30 50 1 26 47
M  V30 51 1 27 48
M  V30 52 1 28 49
M  V30 END BOND
M  V30 END CTAB
M  END
>  <Dataset>  (735) 
ChEMBL_Kinases

>  <Ligand_Instance>  (735) 
nan

>  <PDB_ID>  (735) 
nan

>  <Standardized_SMILES>  (735) 
CC(C)n1cc(C2=C(c3cccc(NC(=O)CF)c3)C(=O)NC2=O)c2cccnc21

>  <Name>  (735) 
nan

>  <Pocket>  (735) 
nan

>  <ATP_Site>  (735) 
nan

>  <Peripheral>  (735) 
nan

>  <Num_H_Atoms_ProtBoundConf>  (735) 
nan

>  <Num_Resolved_Atoms>  (735) 
nan

>  <Num_Not_Resolved_Atoms>  (735) 
nan

$$$$
CHEMBL4645348
     RDKit          3D

  0  0  0  0  0  0  0  0  0  0999 V3000
M  V30 BEGIN CTAB
M  V30 COUNTS 67 72 0 0 0
M  V30 BEGIN ATOM
M  V30 1 C 2.609522 1.199059 5.004294 0
M  V30 2 C 1.479441 0.609582 4.242902 0
M  V30 3 C 1.448918 0.634566 2.856632 0
M  V30 4 C 0.413215 0.093971 2.094570 0
M  V30 5 C 0.615146 0.244628 0.663135 0
M  V30 6 C 1.029101 1.392518 0.022921 0
M  V30 7 N 1.130331 1.218949 -1.299426 0
M  V30 8 C 0.777520 -0.074873 -1.562733 0
M  V30 9 C 0.651300 -0.943624 -2.675337 0
M  V30 10 N 1.005798 -0.203691 -3.802304 0
M  V30 11 C 1.343627 0.439000 -5.025465 0
M  V30 12 C 0.230673 0.577805 -6.041284 0 CFG=1
M  V30 13 C -0.403006 -0.676412 -6.534545 0
M  V30 14 C -1.657668 -0.326467 -5.770742 0 CFG=1
M  V30 15 C -2.861347 -0.241155 -6.704982 0
M  V30 16 O -1.911130 -1.117339 -4.648871 0
M  V30 17 C -1.080614 1.038724 -5.482189 0
M  V30 18 C 0.244390 -2.241546 -2.468931 0
M  V30 19 C -0.042362 -2.722200 -1.222506 0
M  V30 20 O -0.426184 -4.035099 -1.246206 0
M  V30 21 C -0.779620 -4.802341 -0.172929 0
M  V30 22 C -1.100391 -6.114238 -0.541266 0
M  V30 23 C -1.479480 -7.001262 0.464996 0
M  V30 24 C -1.546937 -6.637023 1.777637 0
M  V30 25 N -1.232977 -5.368817 2.104934 0
M  V30 26 C -0.869571 -4.504811 1.168947 0
M  V30 27 N 0.092779 -1.865855 -0.215447 0
M  V30 28 N 0.475358 -0.619782 -0.345920 0
M  V30 29 C -0.647414 -0.502256 2.739891 0
M  V30 30 C -0.624240 -0.531164 4.121742 0
M  V30 31 C 0.394940 0.000144 4.887750 0
M  V30 32 C 0.359136 -0.062458 6.345498 0
M  V30 33 O 0.292561 -1.063934 7.137879 0
M  V30 34 N 0.401531 1.147342 7.087565 0
M  V30 35 C 0.376493 1.282416 8.534228 0
M  V30 36 C 0.989549 2.462900 9.147745 0
M  V30 37 C -0.473351 2.481157 9.051264 0
M  V30 38 H 2.604780 2.285384 4.983142 0
M  V30 39 H 3.579518 0.755134 4.655774 0
M  V30 40 H 2.521667 0.864359 6.057816 0
M  V30 41 H 2.325624 1.124717 2.404962 0
M  V30 42 H 1.272191 2.370260 0.428391 0
M  V30 43 H 0.867053 -1.002634 -4.502040 0
M  V30 44 H 1.540409 1.536697 -4.718552 0
M  V30 45 H 2.306084 0.160896 -5.499720 0
M  V30 46 H 0.553326 1.251909 -6.868506 0
M  V30 47 H 0.077138 -1.643002 -6.273361 0
M  V30 48 H -0.558994 -0.682786 -7.650395 0
M  V30 49 H -2.563684 0.538905 -7.454749 0
M  V30 50 H -3.027793 -1.183256 -7.239518 0
M  V30 51 H -3.756358 0.066304 -6.158443 0
M  V30 52 H -2.033875 -0.592975 -3.826725 0
M  V30 53 H -0.998812 1.271556 -4.397545 0
M  V30 54 H -1.608040 1.829922 -6.040665 0
M  V30 55 H 0.179707 -2.815292 -3.366989 0
M  V30 56 H -1.075654 -6.495345 -1.564900 0
M  V30 57 H -1.735978 -8.033305 0.209193 0
M  V30 58 H -1.830280 -7.265563 2.604751 0
M  V30 59 H -0.609219 -3.478495 1.383269 0
M  V30 60 H -1.411593 -0.898863 2.099756 0
M  V30 61 H -1.474111 -1.007390 4.590659 0
M  V30 62 H 0.458556 2.068043 6.557245 0
M  V30 63 H 0.315706 0.388148 9.165197 0
M  V30 64 H 1.412706 2.404374 10.187532 0
M  V30 65 H 1.584716 3.141478 8.505857 0
M  V30 66 H -0.973408 3.104603 8.260994 0
M  V30 67 H -1.155652 2.269587 9.878898 0
M  V30 END ATOM
M  V30 BEGIN BOND
M  V30 1 1 1 2
M  V30 2 2 2 3
M  V30 3 1 3 4
M  V30 4 1 4 5
M  V30 5 2 5 6
M  V30 6 1 6 7
M  V30 7 2 7 8
M  V30 8 1 8 9
M  V30 9 1 9 10
M  V30 10 1 10 11
M  V30 11 1 11 12
M  V30 12 1 12 13
M  V30 13 1 13 14
M  V30 14 1 14 15
M  V30 15 1 14 16 CFG=1
M  V30 16 1 14 17
M  V30 17 2 9 18
M  V30 18 1 18 19
M  V30 19 1 19 20
M  V30 20 1 20 21
M  V30 21 2 21 22
M  V30 22 1 22 23
M  V30 23 2 23 24
M  V30 24 1 24 25
M  V30 25 2 25 26
M  V30 26 2 19 27
M  V30 27 1 27 28
M  V30 28 2 4 29
M  V30 29 1 29 30
M  V30 30 2 30 31
M  V30 31 1 31 32
M  V30 32 2 32 33
M  V30 33 1 32 34
M  V30 34 1 34 35
M  V30 35 1 35 36
M  V30 36 1 36 37
M  V30 37 1 31 2
M  V30 38 1 37 35
M  V30 39 1 28 5
M  V30 40 1 28 8
M  V30 41 1 17 12
M  V30 42 1 26 21
M  V30 43 1 1 38
M  V30 44 1 1 39
M  V30 45 1 1 40
M  V30 46 1 3 41
M  V30 47 1 6 42
M  V30 48 1 10 43
M  V30 49 1 11 44
M  V30 50 1 11 45
M  V30 51 1 12 46 CFG=3
M  V30 52 1 13 47
M  V30 53 1 13 48
M  V30 54 1 15 49
M  V30 55 1 15 50
M  V30 56 1 15 51
M  V30 57 1 16 52
M  V30 58 1 17 53
M  V30 59 1 17 54
M  V30 60 1 18 55
M  V30 61 1 22 56
M  V30 62 1 23 57
M  V30 63 1 24 58
M  V30 64 1 26 59
M  V30 65 1 29 60
M  V30 66 1 30 61
M  V30 67 1 34 62
M  V30 68 1 35 63
M  V30 69 1 36 64
M  V30 70 1 36 65
M  V30 71 1 37 66
M  V30 72 1 37 67
M  V30 END BOND
M  V30 END CTAB
M  END
>  <Dataset>  (736) 
ChEMBL_Kinases

>  <Ligand_Instance>  (736) 
nan

>  <PDB_ID>  (736) 
nan

>  <Standardized_SMILES>  (736) 
Cc1cc(-c2cnc3c(NC[C@H]4C[C@@](C)(O)C4)cc(Oc4cccnc4)nn23)ccc1C(=O)NC1CC1

>  <Name>  (736) 
nan

>  <Pocket>  (736) 
nan

>  <ATP_Site>  (736) 
nan

>  <Peripheral>  (736) 
nan

>  <Num_H_Atoms_ProtBoundConf>  (736) 
nan

>  <Num_Resolved_Atoms>  (736) 
nan

>  <Num_Not_Resolved_Atoms>  (736) 
nan

$$$$
CHEMBL4645354
     RDKit          3D

  0  0  0  0  0  0  0  0  0  0999 V3000
M  V30 BEGIN CTAB
M  V30 COUNTS 58 62 0 0 0
M  V30 BEGIN ATOM
M  V30 1 C 4.155080 -2.821477 3.807760 0
M  V30 2 N 3.326982 -3.908710 3.359822 0
M  V30 3 C 1.978803 -3.694554 3.858668 0
M  V30 4 C 1.471713 -2.396900 3.324499 0
M  V30 5 N 1.901196 -2.130616 1.950895 0
M  V30 6 C 1.294953 -1.063626 1.235441 0
M  V30 7 C 2.168804 -0.029089 0.885499 0
M  V30 8 C 1.713259 1.096498 0.188916 0
M  V30 9 C 0.376458 1.168313 -0.149207 0
M  V30 10 C -0.199775 2.278235 -0.864305 0
M  V30 11 C -0.679514 3.223381 -1.452381 0
M  V30 12 C -1.263110 4.392246 -2.149775 0
M  V30 13 C -1.557212 3.973328 -3.541044 0
M  V30 14 O -0.455636 5.505286 -2.047046 0
M  V30 15 C -2.563002 4.804947 -1.487586 0
M  V30 16 N -2.769898 5.283622 -0.139914 0
M  V30 17 C -4.066143 5.522709 0.001354 0
M  V30 18 C -5.188194 5.406524 -0.848411 0
M  V30 19 S -4.170343 4.765410 -2.323081 0
M  V30 20 C -0.495733 0.155053 0.189624 0
M  V30 21 C -0.031626 -0.949455 0.876696 0
M  V30 22 N -0.902281 -2.015433 1.238010 0
M  V30 23 C -0.844711 -3.368772 0.865263 0
M  V30 24 N -0.250407 -4.445675 1.402102 0
M  V30 25 C -0.327719 -5.670425 0.867559 0
M  V30 26 N -1.016771 -5.920549 -0.265126 0
M  V30 27 C -1.628546 -4.895740 -0.846238 0
M  V30 28 N -2.362194 -4.916191 -1.968479 0
M  V30 29 C -2.795076 -3.686885 -2.208056 0
M  V30 30 C -2.324136 -2.864990 -1.212333 0
M  V30 31 C -1.562413 -3.616413 -0.310152 0
M  V30 32 C 2.914190 -2.848609 1.186805 0
M  V30 33 C 3.325262 -4.095151 1.935092 0
M  V30 34 H 3.660883 -2.274933 4.616856 0
M  V30 35 H 4.436794 -2.147549 2.962118 0
M  V30 36 H 5.131361 -3.267647 4.131013 0
M  V30 37 H 1.336291 -4.561902 3.700127 0
M  V30 38 H 2.058361 -3.581625 4.974412 0
M  V30 39 H 1.846496 -1.570005 3.984603 0
M  V30 40 H 0.364169 -2.414977 3.306101 0
M  V30 41 H 3.235780 -0.065728 1.144444 0
M  V30 42 H 2.363749 1.911216 -0.095174 0
M  V30 43 H -2.332017 4.666936 -3.966250 0
M  V30 44 H -0.672049 4.071824 -4.193783 0
M  V30 45 H -1.983502 2.951913 -3.540272 0
M  V30 46 H -0.463677 5.819624 -1.105210 0
M  V30 47 H -4.096630 5.875310 1.048758 0
M  V30 48 H -6.071885 5.627243 -0.578523 0
M  V30 49 H -1.556924 0.190991 -0.067666 0
M  V30 50 H -1.663009 -1.633042 1.875521 0
M  V30 51 H 0.240070 -6.370766 1.492141 0
M  V30 52 H -2.606680 -5.703278 -2.608170 0
M  V30 53 H -3.412552 -3.289331 -3.011162 0
M  V30 54 H -2.488387 -1.805028 -1.101148 0
M  V30 55 H 2.431222 -3.161773 0.239858 0
M  V30 56 H 3.801771 -2.213531 0.973057 0
M  V30 57 H 4.352875 -4.371733 1.621458 0
M  V30 58 H 2.659838 -4.956350 1.723288 0
M  V30 END ATOM
M  V30 BEGIN BOND
M  V30 1 1 1 2
M  V30 2 1 2 3
M  V30 3 1 3 4
M  V30 4 1 4 5
M  V30 5 1 5 6
M  V30 6 2 6 7
M  V30 7 1 7 8
M  V30 8 2 8 9
M  V30 9 1 9 10
M  V30 10 3 10 11
M  V30 11 1 11 12
M  V30 12 1 12 13
M  V30 13 1 12 14
M  V30 14 1 12 15
M  V30 15 2 15 16
M  V30 16 1 16 17
M  V30 17 2 17 18
M  V30 18 1 18 19
M  V30 19 1 9 20
M  V30 20 2 20 21
M  V30 21 1 21 22
M  V30 22 1 22 23
M  V30 23 2 23 24
M  V30 24 1 24 25
M  V30 25 2 25 26
M  V30 26 1 26 27
M  V30 27 1 27 28
M  V30 28 1 28 29
M  V30 29 2 29 30
M  V30 30 1 30 31
M  V30 31 1 5 32
M  V30 32 1 32 33
M  V30 33 1 33 2
M  V30 34 1 21 6
M  V30 35 1 31 23
M  V30 36 1 19 15
M  V30 37 2 31 27
M  V30 38 1 1 34
M  V30 39 1 1 35
M  V30 40 1 1 36
M  V30 41 1 3 37
M  V30 42 1 3 38
M  V30 43 1 4 39
M  V30 44 1 4 40
M  V30 45 1 7 41
M  V30 46 1 8 42
M  V30 47 1 13 43
M  V30 48 1 13 44
M  V30 49 1 13 45
M  V30 50 1 14 46
M  V30 51 1 17 47
M  V30 52 1 18 48
M  V30 53 1 20 49
M  V30 54 1 22 50
M  V30 55 1 25 51
M  V30 56 1 28 52
M  V30 57 1 29 53
M  V30 58 1 30 54
M  V30 59 1 32 55
M  V30 60 1 32 56
M  V30 61 1 33 57
M  V30 62 1 33 58
M  V30 END BOND
M  V30 END CTAB
M  END
>  <Dataset>  (737) 
ChEMBL_Kinases

>  <Ligand_Instance>  (737) 
nan

>  <PDB_ID>  (737) 
nan

>  <Standardized_SMILES>  (737) 
CN1CCN(c2ccc(C#CC(C)(O)c3nccs3)cc2Nc2ncnc3[nH]ccc23)CC1

>  <Name>  (737) 
nan

>  <Pocket>  (737) 
nan

>  <ATP_Site>  (737) 
nan

>  <Peripheral>  (737) 
nan

>  <Num_H_Atoms_ProtBoundConf>  (737) 
nan

>  <Num_Resolved_Atoms>  (737) 
nan

>  <Num_Not_Resolved_Atoms>  (737) 
nan

$$$$
CHEMBL4645474
     RDKit          3D

  0  0  0  0  0  0  0  0  0  0999 V3000
M  V30 BEGIN CTAB
M  V30 COUNTS 47 51 0 0 0
M  V30 BEGIN ATOM
M  V30 1 O -2.268995 -3.004249 0.604527 0
M  V30 2 C -1.913856 -4.160218 0.365784 0
M  V30 3 N -0.536300 -4.374371 0.315681 0
M  V30 4 C 0.555282 -3.494169 0.491372 0
M  V30 5 C 0.526926 -2.148455 0.767596 0
M  V30 6 C 1.608350 -1.344890 0.927600 0
M  V30 7 C 1.465784 0.077625 1.220304 0
M  V30 8 C 2.234013 1.030339 0.545263 0
M  V30 9 N 1.908970 2.275832 1.003041 0
M  V30 10 C 2.466738 3.515169 0.570091 0
M  V30 11 C 1.995309 3.844111 -0.705204 0
M  V30 12 C 2.398859 5.010558 -1.340101 0
M  V30 13 C 3.281024 5.842285 -0.679354 0
M  V30 14 C 3.745512 5.516164 0.579574 0
M  V30 15 C 3.348409 4.360271 1.213962 0
M  V30 16 C 0.958526 2.157652 1.948954 0
M  V30 17 C 0.238959 3.036450 2.766297 0
M  V30 18 N -0.674604 2.566791 3.638412 0
M  V30 19 C -0.917762 1.251586 3.746231 0
M  V30 20 C -0.249090 0.312147 2.973869 0
M  V30 21 C 0.681784 0.810948 2.087333 0
M  V30 22 C 2.864477 -1.904195 0.807196 0
M  V30 23 C 2.896915 -3.245257 0.531906 0
M  V30 24 N 1.804763 -3.983115 0.385437 0
M  V30 25 N -2.921180 -5.112810 0.174862 0
M  V30 26 C -4.322184 -4.743495 0.256897 0
M  V30 27 C -5.202854 -5.774379 1.002497 0
M  V30 28 C -5.345811 -5.527107 -0.475482 0
M  V30 29 H -0.343743 -5.376778 0.109171 0
M  V30 30 H -0.437574 -1.675740 0.868781 0
M  V30 31 H 2.992112 0.906863 -0.231964 0
M  V30 32 H 1.303540 3.264917 -1.310431 0
M  V30 33 H 2.063752 5.309264 -2.323972 0
M  V30 34 H 3.634625 6.769097 -1.122083 0
M  V30 35 H 4.443593 6.127532 1.158239 0
M  V30 36 H 3.623919 3.983143 2.179719 0
M  V30 37 H 0.496470 4.082785 2.615922 0
M  V30 38 H -1.663523 0.940877 4.465764 0
M  V30 39 H -0.452842 -0.724080 3.071205 0
M  V30 40 H 3.740407 -1.279709 0.931379 0
M  V30 41 H 3.863126 -3.744396 0.425151 0
M  V30 42 H -2.647183 -6.098239 -0.028527 0
M  V30 43 H -4.580868 -3.699496 0.472126 0
M  V30 44 H -4.719203 -6.707424 1.352105 0
M  V30 45 H -5.985574 -5.396381 1.675379 0
M  V30 46 H -6.256063 -5.003464 -0.823328 0
M  V30 47 H -5.112846 -6.414260 -1.087581 0
M  V30 END ATOM
M  V30 BEGIN BOND
M  V30 1 2 1 2
M  V30 2 1 2 3
M  V30 3 1 3 4
M  V30 4 2 4 5
M  V30 5 1 5 6
M  V30 6 1 6 7
M  V30 7 2 7 8
M  V30 8 1 8 9
M  V30 9 1 9 10
M  V30 10 2 10 11
M  V30 11 1 11 12
M  V30 12 2 12 13
M  V30 13 1 13 14
M  V30 14 2 14 15
M  V30 15 1 9 16
M  V30 16 2 16 17
M  V30 17 1 17 18
M  V30 18 2 18 19
M  V30 19 1 19 20
M  V30 20 2 20 21
M  V30 21 2 6 22
M  V30 22 1 22 23
M  V30 23 2 23 24
M  V30 24 1 2 25
M  V30 25 1 25 26
M  V30 26 1 26 27
M  V30 27 1 27 28
M  V30 28 1 24 4
M  V30 29 1 28 26
M  V30 30 1 21 7
M  V30 31 1 15 10
M  V30 32 1 21 16
M  V30 33 1 3 29
M  V30 34 1 5 30
M  V30 35 1 8 31
M  V30 36 1 11 32
M  V30 37 1 12 33
M  V30 38 1 13 34
M  V30 39 1 14 35
M  V30 40 1 15 36
M  V30 41 1 17 37
M  V30 42 1 19 38
M  V30 43 1 20 39
M  V30 44 1 22 40
M  V30 45 1 23 41
M  V30 46 1 25 42
M  V30 47 1 26 43
M  V30 48 1 27 44
M  V30 49 1 27 45
M  V30 50 1 28 46
M  V30 51 1 28 47
M  V30 END BOND
M  V30 END CTAB
M  END
>  <Dataset>  (738) 
ChEMBL_Kinases

>  <Ligand_Instance>  (738) 
nan

>  <PDB_ID>  (738) 
nan

>  <Standardized_SMILES>  (738) 
O=C(Nc1cc(-c2cn(-c3ccccc3)c3cnccc23)ccn1)NC1CC1

>  <Name>  (738) 
nan

>  <Pocket>  (738) 
nan

>  <ATP_Site>  (738) 
nan

>  <Peripheral>  (738) 
nan

>  <Num_H_Atoms_ProtBoundConf>  (738) 
nan

>  <Num_Resolved_Atoms>  (738) 
nan

>  <Num_Not_Resolved_Atoms>  (738) 
nan

$$$$
CHEMBL4645499
     RDKit          3D

  0  0  0  0  0  0  0  0  0  0999 V3000
M  V30 BEGIN CTAB
M  V30 COUNTS 58 61 0 0 0
M  V30 BEGIN ATOM
M  V30 1 C 1.067258 1.127936 -0.380325 0
M  V30 2 N 2.372378 1.148131 0.279209 0
M  V30 3 C 3.610773 0.737244 -0.285273 0
M  V30 4 O 3.656253 0.892050 -1.542403 0
M  V30 5 C 4.502671 0.233462 0.816648 0
M  V30 6 C 4.644270 1.358350 1.805148 0
M  V30 7 C 5.317000 2.504559 1.101668 0
M  V30 8 C 5.124059 3.665489 1.858905 0
M  V30 9 C 5.637803 4.880836 1.450674 0
M  V30 10 C 6.362711 4.954394 0.261934 0
M  V30 11 C 6.534454 3.806305 -0.455248 0
M  V30 12 C 6.032891 2.583666 -0.070180 0
M  V30 13 N 3.335473 1.739542 2.272731 0
M  V30 14 C 2.241351 1.659529 1.592039 0
M  V30 15 S 1.050294 2.246789 2.671315 0
M  V30 16 C -0.642557 2.321074 2.337851 0
M  V30 17 C -1.416025 1.078892 2.196752 0
M  V30 18 C -1.839139 0.317777 1.161627 0
M  V30 19 N -2.514126 -0.768381 1.574852 0
M  V30 20 C -3.137569 -1.841872 0.881175 0
M  V30 21 C -4.243578 -1.833550 0.055811 0
M  V30 22 C -4.683329 -3.008773 -0.518788 0
M  V30 23 C -4.008095 -4.185195 -0.259906 0
M  V30 24 C -4.494577 -5.444954 -0.884866 0
M  V30 25 C -3.639088 -6.627528 -0.490648 0
M  V30 26 C -5.913215 -5.684366 -0.486268 0
M  V30 27 C -4.456759 -5.348362 -2.403903 0
M  V30 28 C -2.894189 -4.247591 0.559886 0
M  V30 29 C -2.469729 -3.048287 1.128186 0
M  V30 30 N -2.499832 -0.661799 2.892478 0
M  V30 31 N -1.871114 0.399066 3.294137 0
M  V30 32 H 1.332996 1.281393 -1.473108 0
M  V30 33 H 0.615161 0.134711 -0.356824 0
M  V30 34 H 0.431887 1.978854 -0.140005 0
M  V30 35 H 4.100217 -0.679925 1.302680 0
M  V30 36 H 5.491945 -0.045987 0.401603 0
M  V30 37 H 5.286133 1.057022 2.666818 0
M  V30 38 H 4.590552 3.785327 2.799251 0
M  V30 39 H 5.540000 5.823566 1.966369 0
M  V30 40 H 6.806573 5.854128 -0.146689 0
M  V30 41 H 7.084247 3.783777 -1.386247 0
M  V30 42 H 6.101543 1.626278 -0.541370 0
M  V30 43 H -0.917609 3.020038 1.478367 0
M  V30 44 H -1.136328 2.887278 3.200589 0
M  V30 45 H -1.673911 0.543035 0.138256 0
M  V30 46 H -4.667482 -0.838673 -0.053058 0
M  V30 47 H -5.553924 -2.925727 -1.152498 0
M  V30 48 H -2.616322 -6.464248 -0.874962 0
M  V30 49 H -4.081405 -7.522267 -0.967705 0
M  V30 50 H -3.664843 -6.773823 0.613549 0
M  V30 51 H -6.061203 -5.587384 0.608259 0
M  V30 52 H -6.163898 -6.732506 -0.779160 0
M  V30 53 H -6.609198 -5.034012 -1.063367 0
M  V30 54 H -5.380765 -4.871162 -2.785684 0
M  V30 55 H -3.636640 -4.612374 -2.614734 0
M  V30 56 H -4.262850 -6.319427 -2.870622 0
M  V30 57 H -2.390086 -5.186886 0.739996 0
M  V30 58 H -1.586903 -3.173293 1.762340 0
M  V30 END ATOM
M  V30 BEGIN BOND
M  V30 1 1 1 2
M  V30 2 1 2 3
M  V30 3 2 3 4
M  V30 4 1 3 5
M  V30 5 1 5 6
M  V30 6 1 6 7
M  V30 7 2 7 8
M  V30 8 1 8 9
M  V30 9 2 9 10
M  V30 10 1 10 11
M  V30 11 2 11 12
M  V30 12 1 6 13
M  V30 13 2 13 14
M  V30 14 1 14 15
M  V30 15 1 15 16
M  V30 16 1 16 17
M  V30 17 2 17 18
M  V30 18 1 18 19
M  V30 19 1 19 20
M  V30 20 2 20 21
M  V30 21 1 21 22
M  V30 22 2 22 23
M  V30 23 1 23 24
M  V30 24 1 24 25
M  V30 25 1 24 26
M  V30 26 1 24 27
M  V30 27 1 23 28
M  V30 28 2 28 29
M  V30 29 1 19 30
M  V30 30 2 30 31
M  V30 31 1 14 2
M  V30 32 1 31 17
M  V30 33 1 12 7
M  V30 34 1 29 20
M  V30 35 1 1 32
M  V30 36 1 1 33
M  V30 37 1 1 34
M  V30 38 1 5 35
M  V30 39 1 5 36
M  V30 40 1 6 37
M  V30 41 1 8 38
M  V30 42 1 9 39
M  V30 43 1 10 40
M  V30 44 1 11 41
M  V30 45 1 12 42
M  V30 46 1 16 43
M  V30 47 1 16 44
M  V30 48 1 18 45
M  V30 49 1 21 46
M  V30 50 1 22 47
M  V30 51 1 25 48
M  V30 52 1 25 49
M  V30 53 1 25 50
M  V30 54 1 26 51
M  V30 55 1 26 52
M  V30 56 1 26 53
M  V30 57 1 27 54
M  V30 58 1 27 55
M  V30 59 1 27 56
M  V30 60 1 28 57
M  V30 61 1 29 58
M  V30 END BOND
M  V30 END CTAB
M  END
>  <Dataset>  (739) 
ChEMBL_Kinases

>  <Ligand_Instance>  (739) 
nan

>  <PDB_ID>  (739) 
nan

>  <Standardized_SMILES>  (739) 
CN1C(=O)CC(c2ccccc2)N=C1SCc1cn(-c2ccc(C(C)(C)C)cc2)nn1

>  <Name>  (739) 
nan

>  <Pocket>  (739) 
nan

>  <ATP_Site>  (739) 
nan

>  <Peripheral>  (739) 
nan

>  <Num_H_Atoms_ProtBoundConf>  (739) 
nan

>  <Num_Resolved_Atoms>  (739) 
nan

>  <Num_Not_Resolved_Atoms>  (739) 
nan

$$$$
CHEMBL4524476
     RDKit          3D

  0  0  0  0  0  0  0  0  0  0999 V3000
M  V30 BEGIN CTAB
M  V30 COUNTS 47 50 0 0 0
M  V30 BEGIN ATOM
M  V30 1 C -4.403034 -1.524532 -0.667073 0
M  V30 2 O -3.169744 -2.208041 -0.348701 0
M  V30 3 C -1.995310 -1.700787 -1.016832 0
M  V30 4 C -1.816502 -0.872754 -2.110062 0
M  V30 5 C -0.524666 -0.566228 -2.275893 0
M  V30 6 C 0.499462 -0.968766 -1.526053 0
M  V30 7 C 1.780924 -0.501406 -1.999652 0
M  V30 8 C 2.949359 -0.075368 -2.401187 0
M  V30 9 N 4.085653 0.482016 -2.011509 0
M  V30 10 C 4.248732 0.803626 -0.685885 0
M  V30 11 N 5.232472 1.166308 0.055482 0
M  V30 12 C 4.931635 1.185348 1.314741 0
M  V30 13 C 3.628592 0.801820 1.524001 0
M  V30 14 N 2.490615 0.496282 2.281371 0
M  V30 15 C 1.414732 1.197661 2.661482 0
M  V30 16 O 1.263142 2.509330 2.452373 0
M  V30 17 C 0.213416 0.827896 3.282808 0
M  V30 18 C -0.977241 1.408337 2.726111 0
M  V30 19 C -2.395213 1.167690 3.039692 0
M  V30 20 C -2.299672 0.270622 3.990926 0
M  V30 21 F -3.650812 -0.080371 4.365168 0
M  V30 22 C -1.407109 -0.433294 4.730007 0
M  V30 23 C -0.069774 -0.119779 4.316385 0
M  V30 24 C 3.163450 0.518126 0.132733 0
M  V30 25 C 2.110425 -0.072874 -0.592641 0
M  V30 26 C 0.229085 -1.835800 -0.413753 0
M  V30 27 C -1.069175 -2.209168 -0.175398 0
M  V30 28 O -1.237644 -3.029383 0.852194 0
M  V30 29 C -1.365745 -3.804706 1.828125 0
M  V30 30 H -4.451675 -0.664047 0.159281 0
M  V30 31 H -4.312713 -1.026143 -1.587023 0
M  V30 32 H -5.179619 -2.227512 -0.430371 0
M  V30 33 H -2.770501 -0.651672 -2.658289 0
M  V30 34 H -0.531979 0.067273 -3.174704 0
M  V30 35 H 2.641216 -0.390261 -3.435434 0
M  V30 36 H 6.150950 1.465482 -0.307813 0
M  V30 37 H 5.287597 1.419762 2.255253 0
M  V30 38 H 2.443748 -0.516809 2.693513 0
M  V30 39 H -0.837393 2.130785 1.847376 0
M  V30 40 H -3.035540 1.728483 2.446046 0
M  V30 41 H -1.568784 -1.145783 5.485655 0
M  V30 42 H 0.739949 -0.535486 4.711152 0
M  V30 43 H 1.268240 -0.097620 0.268063 0
M  V30 44 H 1.188916 -2.117074 0.062464 0
M  V30 45 H -1.480554 -4.875898 1.408890 0
M  V30 46 H -2.303377 -3.544899 2.422821 0
M  V30 47 H -0.518446 -3.794656 2.625755 0
M  V30 END ATOM
M  V30 BEGIN BOND
M  V30 1 1 1 2
M  V30 2 1 2 3
M  V30 3 2 3 4
M  V30 4 1 4 5
M  V30 5 2 5 6
M  V30 6 1 6 7
M  V30 7 2 7 8
M  V30 8 1 8 9
M  V30 9 2 9 10
M  V30 10 1 10 11
M  V30 11 1 11 12
M  V30 12 2 12 13
M  V30 13 1 13 14
M  V30 14 1 14 15
M  V30 15 2 15 16
M  V30 16 1 15 17
M  V30 17 2 17 18
M  V30 18 1 18 19
M  V30 19 2 19 20
M  V30 20 1 20 21
M  V30 21 1 20 22
M  V30 22 2 22 23
M  V30 23 1 13 24
M  V30 24 2 24 25
M  V30 25 1 6 26
M  V30 26 2 26 27
M  V30 27 1 27 28
M  V30 28 1 28 29
M  V30 29 1 27 3
M  V30 30 1 25 7
M  V30 31 1 24 10
M  V30 32 1 23 17
M  V30 33 1 1 30
M  V30 34 1 1 31
M  V30 35 1 1 32
M  V30 36 1 4 33
M  V30 37 1 5 34
M  V30 38 1 8 35
M  V30 39 1 11 36
M  V30 40 1 12 37
M  V30 41 1 14 38
M  V30 42 1 18 39
M  V30 43 1 19 40
M  V30 44 1 22 41
M  V30 45 1 23 42
M  V30 46 1 25 43
M  V30 47 1 26 44
M  V30 48 1 29 45
M  V30 49 1 29 46
M  V30 50 1 29 47
M  V30 END BOND
M  V30 END CTAB
M  END
>  <Dataset>  (740) 
ChEMBL_Kinases

>  <Ligand_Instance>  (740) 
nan

>  <PDB_ID>  (740) 
nan

>  <Standardized_SMILES>  (740) 
COc1ccc(-c2cnc3[nH]cc(NC(=O)c4ccc(F)cc4)c3c2)cc1OC

>  <Name>  (740) 
nan

>  <Pocket>  (740) 
nan

>  <ATP_Site>  (740) 
nan

>  <Peripheral>  (740) 
nan

>  <Num_H_Atoms_ProtBoundConf>  (740) 
nan

>  <Num_Resolved_Atoms>  (740) 
nan

>  <Num_Not_Resolved_Atoms>  (740) 
nan

$$$$
CHEMBL464552
     RDKit          3D

  0  0  0  0  0  0  0  0  0  0999 V3000
M  V30 BEGIN CTAB
M  V30 COUNTS 68 72 0 0 0
M  V30 BEGIN ATOM
M  V30 1 C 5.861174 -1.460495 0.257208 0
M  V30 2 N 5.395772 -0.165930 -0.150731 0
M  V30 3 C 4.069415 0.284290 -0.052892 0
M  V30 4 O 3.380464 -0.638770 0.448948 0
M  V30 5 C 3.512439 1.551000 -0.431582 0
M  V30 6 C 4.199063 2.551858 -1.070481 0
M  V30 7 F 5.499900 2.427972 -1.370248 0
M  V30 8 C 3.622726 3.738825 -1.451108 0
M  V30 9 C 2.293493 4.004212 -1.211236 0
M  V30 10 C 1.616505 2.974381 -0.561377 0
M  V30 11 C 2.153776 1.741747 -0.148271 0
M  V30 12 N 1.256085 0.876472 0.480187 0
M  V30 13 C 1.082387 0.302427 1.757055 0
M  V30 14 N 0.119768 -0.611751 1.900315 0
M  V30 15 C -0.182135 -1.233520 3.042619 0
M  V30 16 N -1.190177 -2.188583 3.200143 0
M  V30 17 C -2.114127 -2.697648 2.264377 0
M  V30 18 C -2.205867 -2.303175 0.948557 0
M  V30 19 C -3.109296 -2.796204 0.034297 0
M  V30 20 C -4.007520 -3.761891 0.431541 0
M  V30 21 C -3.958677 -4.192029 1.737324 0
M  V30 22 C -3.046222 -3.682566 2.630754 0
M  V30 23 O -3.049702 -4.158659 3.933942 0
M  V30 24 C -3.972440 -5.147249 4.335411 0
M  V30 25 C -4.882043 -4.147286 -0.722295 0
M  V30 26 C -4.089661 -3.650373 -1.918300 0
M  V30 27 N -3.379504 -2.539535 -1.335117 0
M  V30 28 C -3.049876 -1.400761 -2.093607 0
M  V30 29 O -3.296094 -1.211050 -3.293962 0
M  V30 30 C -2.354019 -0.136471 -1.756499 0
M  V30 31 N -2.262755 0.743182 -2.908377 0
M  V30 32 C -1.570854 1.957765 -2.444588 0
M  V30 33 C -1.419536 0.190809 -3.938800 0
M  V30 34 N 0.556909 -0.891342 4.110314 0
M  V30 35 C 1.550253 0.007745 4.109759 0
M  V30 36 N 2.392110 0.494937 5.023578 0
M  V30 37 C 3.186457 1.400604 4.422935 0
M  V30 38 C 2.821296 1.477221 3.082115 0
M  V30 39 C 1.778181 0.586597 2.889358 0
M  V30 40 H 5.165494 -1.995992 0.918628 0
M  V30 41 H 6.105807 -2.143749 -0.576536 0
M  V30 42 H 6.796378 -1.310068 0.873029 0
M  V30 43 H 6.114112 0.466562 -0.542483 0
M  V30 44 H 4.181013 4.523939 -1.957304 0
M  V30 45 H 1.776625 4.910455 -1.481896 0
M  V30 46 H 0.551480 3.190588 -0.371055 0
M  V30 47 H 0.553416 0.629174 -0.280137 0
M  V30 48 H -1.296502 -2.613694 4.173550 0
M  V30 49 H -1.545856 -1.564974 0.575228 0
M  V30 50 H -4.652124 -4.940105 2.050544 0
M  V30 51 H -3.945782 -5.347559 5.406318 0
M  V30 52 H -5.001651 -4.764506 4.078576 0
M  V30 53 H -3.828793 -6.050566 3.688613 0
M  V30 54 H -5.008787 -5.244200 -0.789547 0
M  V30 55 H -5.838833 -3.581395 -0.712358 0
M  V30 56 H -3.326909 -4.441512 -2.111466 0
M  V30 57 H -4.691237 -3.406474 -2.793114 0
M  V30 58 H -1.310069 -0.314559 -1.436678 0
M  V30 59 H -2.871906 0.404483 -0.939283 0
M  V30 60 H -2.036242 2.368069 -1.527920 0
M  V30 61 H -0.534683 1.652208 -2.202730 0
M  V30 62 H -1.497829 2.690099 -3.262405 0
M  V30 63 H -2.018881 -0.015637 -4.851346 0
M  V30 64 H -0.959980 -0.750395 -3.636278 0
M  V30 65 H -0.584909 0.866713 -4.248701 0
M  V30 66 H 2.431672 0.220134 6.043379 0
M  V30 67 H 3.982426 1.976964 4.908401 0
M  V30 68 H 3.267659 2.108379 2.358471 0
M  V30 END ATOM
M  V30 BEGIN BOND
M  V30 1 1 1 2
M  V30 2 1 2 3
M  V30 3 2 3 4
M  V30 4 1 3 5
M  V30 5 2 5 6
M  V30 6 1 6 7
M  V30 7 1 6 8
M  V30 8 2 8 9
M  V30 9 1 9 10
M  V30 10 2 10 11
M  V30 11 1 11 12
M  V30 12 1 12 13
M  V30 13 2 13 14
M  V30 14 1 14 15
M  V30 15 1 15 16
M  V30 16 1 16 17
M  V30 17 2 17 18
M  V30 18 1 18 19
M  V30 19 2 19 20
M  V30 20 1 20 21
M  V30 21 2 21 22
M  V30 22 1 22 23
M  V30 23 1 23 24
M  V30 24 1 20 25
M  V30 25 1 25 26
M  V30 26 1 26 27
M  V30 27 1 27 28
M  V30 28 2 28 29
M  V30 29 1 28 30
M  V30 30 1 30 31
M  V30 31 1 31 32
M  V30 32 1 31 33
M  V30 33 2 15 34
M  V30 34 1 34 35
M  V30 35 1 35 36
M  V30 36 1 36 37
M  V30 37 2 37 38
M  V30 38 1 38 39
M  V30 39 1 11 5
M  V30 40 1 39 13
M  V30 41 1 22 17
M  V30 42 2 39 35
M  V30 43 1 27 19
M  V30 44 1 1 40
M  V30 45 1 1 41
M  V30 46 1 1 42
M  V30 47 1 2 43
M  V30 48 1 8 44
M  V30 49 1 9 45
M  V30 50 1 10 46
M  V30 51 1 12 47
M  V30 52 1 16 48
M  V30 53 1 18 49
M  V30 54 1 21 50
M  V30 55 1 24 51
M  V30 56 1 24 52
M  V30 57 1 24 53
M  V30 58 1 25 54
M  V30 59 1 25 55
M  V30 60 1 26 56
M  V30 61 1 26 57
M  V30 62 1 30 58
M  V30 63 1 30 59
M  V30 64 1 32 60
M  V30 65 1 32 61
M  V30 66 1 32 62
M  V30 67 1 33 63
M  V30 68 1 33 64
M  V30 69 1 33 65
M  V30 70 1 36 66
M  V30 71 1 37 67
M  V30 72 1 38 68
M  V30 END BOND
M  V30 END CTAB
M  END
>  <Dataset>  (741) 
ChEMBL_Kinases

>  <Ligand_Instance>  (741) 
nan

>  <PDB_ID>  (741) 
nan

>  <Standardized_SMILES>  (741) 
CNC(=O)c1c(F)cccc1Nc1nc(Nc2cc3c(cc2OC)CCN3C(=O)CN(C)C)nc2[nH]ccc12

>  <Name>  (741) 
nan

>  <Pocket>  (741) 
nan

>  <ATP_Site>  (741) 
nan

>  <Peripheral>  (741) 
nan

>  <Num_H_Atoms_ProtBoundConf>  (741) 
nan

>  <Num_Resolved_Atoms>  (741) 
nan

>  <Num_Not_Resolved_Atoms>  (741) 
nan

$$$$
CHEMBL4524371
     RDKit          3D

  0  0  0  0  0  0  0  0  0  0999 V3000
M  V30 BEGIN CTAB
M  V30 COUNTS 55 59 0 0 0
M  V30 BEGIN ATOM
M  V30 1 O -0.799833 -2.232132 0.964074 0
M  V30 2 C -1.523643 -1.476456 0.248521 0
M  V30 3 C -1.053253 -0.111217 0.040594 0
M  V30 4 C 0.037863 0.653860 0.393120 0
M  V30 5 C 0.180540 1.942157 -0.011040 0
M  V30 6 C 1.367352 2.682447 0.407479 0
M  V30 7 C 1.650001 3.985688 0.080556 0
M  V30 8 C 2.795632 4.605283 0.520960 0
M  V30 9 N 3.638170 3.895188 1.286281 0
M  V30 10 C 3.396912 2.616704 1.628224 0
M  V30 11 N 4.332371 1.919063 2.443296 0
M  V30 12 C 4.062625 0.541099 2.806528 0
M  V30 13 C 2.761279 0.442406 3.586442 0
M  V30 14 C 3.312943 0.595395 5.010889 0
M  V30 15 O 4.487204 -0.126440 4.998193 0
M  V30 16 C 5.071883 -0.020158 3.751329 0
M  V30 17 N 2.272719 2.055147 1.178441 0
M  V30 18 C -0.804477 2.495100 -0.800599 0
M  V30 19 C -1.938216 1.775415 -1.194774 0
M  V30 20 C -2.033999 0.452280 -0.748994 0
M  V30 21 C -3.171071 -0.447696 -1.034735 0
M  V30 22 N -2.764801 -1.720828 -0.415292 0
M  V30 23 C -3.473975 -2.979241 -0.497401 0
M  V30 24 C -3.806377 -3.606018 0.805255 0
M  V30 25 O -4.605538 -2.788632 1.567490 0
M  V30 26 C -2.806154 -3.932041 -1.461716 0
M  V30 27 C -1.499585 -4.211114 -1.769224 0
M  V30 28 C -1.091153 -5.145649 -2.680520 0
M  V30 29 C -2.019036 -5.890835 -3.370278 0
M  V30 30 C -3.364402 -5.699298 -3.146358 0
M  V30 31 Cl -4.591517 -6.616023 -3.992660 0
M  V30 32 C -3.689058 -4.736410 -2.210009 0
M  V30 33 H 0.776429 0.192417 1.002905 0
M  V30 34 H 0.942479 4.513710 -0.536320 0
M  V30 35 H 2.978183 5.631596 0.239833 0
M  V30 36 H 5.188918 2.382103 2.772268 0
M  V30 37 H 3.996946 -0.017131 1.847623 0
M  V30 38 H 2.070359 1.266405 3.412572 0
M  V30 39 H 2.355324 -0.570653 3.431319 0
M  V30 40 H 3.501833 1.687131 5.158453 0
M  V30 41 H 2.573691 0.185783 5.721181 0
M  V30 42 H 6.059615 0.475351 3.741489 0
M  V30 43 H 5.279030 -1.083547 3.430770 0
M  V30 44 H -0.724848 3.514269 -1.140397 0
M  V30 45 H -2.686527 2.261890 -1.819858 0
M  V30 46 H -4.066923 -0.089619 -0.450249 0
M  V30 47 H -3.396221 -0.550035 -2.103434 0
M  V30 48 H -4.453312 -2.714885 -1.016885 0
M  V30 49 H -4.436760 -4.511427 0.566164 0
M  V30 50 H -2.942211 -4.004277 1.350061 0
M  V30 51 H -4.142773 -2.324882 2.300464 0
M  V30 52 H -0.788297 -3.620209 -1.232296 0
M  V30 53 H -0.020430 -5.239268 -2.802059 0
M  V30 54 H -1.691228 -6.622484 -4.083983 0
M  V30 55 H -4.759599 -4.620217 -2.066449 0
M  V30 END ATOM
M  V30 BEGIN BOND
M  V30 1 2 1 2
M  V30 2 1 2 3
M  V30 3 2 3 4
M  V30 4 1 4 5
M  V30 5 1 5 6
M  V30 6 2 6 7
M  V30 7 1 7 8
M  V30 8 2 8 9
M  V30 9 1 9 10
M  V30 10 1 10 11
M  V30 11 1 11 12
M  V30 12 1 12 13
M  V30 13 1 13 14
M  V30 14 1 14 15
M  V30 15 1 15 16
M  V30 16 2 10 17
M  V30 17 2 5 18
M  V30 18 1 18 19
M  V30 19 2 19 20
M  V30 20 1 20 21
M  V30 21 1 21 22
M  V30 22 1 22 23
M  V30 23 1 23 24
M  V30 24 1 24 25
M  V30 25 1 23 26
M  V30 26 2 26 27
M  V30 27 1 27 28
M  V30 28 2 28 29
M  V30 29 1 29 30
M  V30 30 1 30 31
M  V30 31 2 30 32
M  V30 32 1 22 2
M  V30 33 1 32 26
M  V30 34 1 20 3
M  V30 35 1 17 6
M  V30 36 1 16 12
M  V30 37 1 4 33
M  V30 38 1 7 34
M  V30 39 1 8 35
M  V30 40 1 11 36
M  V30 41 1 12 37
M  V30 42 1 13 38
M  V30 43 1 13 39
M  V30 44 1 14 40
M  V30 45 1 14 41
M  V30 46 1 16 42
M  V30 47 1 16 43
M  V30 48 1 18 44
M  V30 49 1 19 45
M  V30 50 1 21 46
M  V30 51 1 21 47
M  V30 52 1 23 48
M  V30 53 1 24 49
M  V30 54 1 24 50
M  V30 55 1 25 51
M  V30 56 1 27 52
M  V30 57 1 28 53
M  V30 58 1 29 54
M  V30 59 1 32 55
M  V30 END BOND
M  V30 END CTAB
M  END
>  <Dataset>  (742) 
ChEMBL_Kinases

>  <Ligand_Instance>  (742) 
nan

>  <PDB_ID>  (742) 
nan

>  <Standardized_SMILES>  (742) 
O=C1c2cc(-c3ccnc(NC4CCOC4)n3)ccc2CN1C(CO)c1cccc(Cl)c1

>  <Name>  (742) 
nan

>  <Pocket>  (742) 
nan

>  <ATP_Site>  (742) 
nan

>  <Peripheral>  (742) 
nan

>  <Num_H_Atoms_ProtBoundConf>  (742) 
nan

>  <Num_Resolved_Atoms>  (742) 
nan

>  <Num_Not_Resolved_Atoms>  (742) 
nan

$$$$
CHEMBL4645612
     RDKit          3D

  0  0  0  0  0  0  0  0  0  0999 V3000
M  V30 BEGIN CTAB
M  V30 COUNTS 56 60 0 0 0
M  V30 BEGIN ATOM
M  V30 1 C 1.184864 -4.272544 4.080377 0
M  V30 2 C 0.545106 -3.047473 4.665642 0
M  V30 3 O 1.128183 -2.790986 5.905315 0
M  V30 4 C 0.675326 -1.863293 3.803621 0
M  V30 5 O 1.252410 -0.893480 4.340508 0
M  V30 6 N 0.214780 -1.751069 2.472229 0
M  V30 7 C 0.301705 -0.655097 1.585517 0
M  V30 8 C 0.857422 0.573581 1.830771 0
M  V30 9 C 0.918101 1.609299 0.924039 0
M  V30 10 C 0.386137 1.425855 -0.339192 0
M  V30 11 N 0.472453 2.519748 -1.243230 0
M  V30 12 C 1.151693 2.641599 -2.544378 0
M  V30 13 C 1.734281 4.052454 -2.568293 0
M  V30 14 O 2.002045 4.492330 -1.275890 0
M  V30 15 C 0.831967 4.780790 -0.583314 0
M  V30 16 C -0.235961 3.737538 -0.812491 0
M  V30 17 C -0.175305 0.198590 -0.601569 0
M  V30 18 N -0.728520 -0.020090 -1.889015 0
M  V30 19 C -1.350005 -1.203250 -2.356518 0
M  V30 20 N -2.699212 -1.369803 -2.236556 0
M  V30 21 C -3.258078 -2.509341 -2.691973 0
M  V30 22 N -2.502721 -3.483103 -3.262435 0
M  V30 23 C -1.171493 -3.366980 -3.403387 0
M  V30 24 N -0.157184 -4.103358 -3.898827 0
M  V30 25 C 1.018115 -3.456446 -3.765756 0
M  V30 26 C 0.759658 -2.243835 -3.156459 0
M  V30 27 C -0.601217 -2.201980 -2.937750 0
M  V30 28 C -0.221101 -0.817689 0.326215 0
M  V30 29 C -0.904918 -3.347329 5.004110 0
M  V30 30 N -1.854316 -2.489543 5.387130 0
M  V30 31 C -3.037052 -3.079105 5.612393 0
M  V30 32 C -3.318444 -4.474902 5.475119 0
M  V30 33 S -1.581201 -4.996282 4.933401 0
M  V30 34 H 1.939600 -4.058444 3.290069 0
M  V30 35 H 1.691358 -4.837458 4.870015 0
M  V30 36 H 0.370348 -4.930264 3.706952 0
M  V30 37 H 1.280516 -3.653187 6.356916 0
M  V30 38 H -0.240958 -2.639112 2.174733 0
M  V30 39 H 1.285205 0.766082 2.800573 0
M  V30 40 H 1.379700 2.552606 1.206367 0
M  V30 41 H 0.458385 2.599397 -3.393101 0
M  V30 42 H 2.005261 1.961508 -2.614951 0
M  V30 43 H 1.090122 4.758043 -3.128584 0
M  V30 44 H 2.697227 4.031409 -3.115733 0
M  V30 45 H 1.035958 4.814891 0.504729 0
M  V30 46 H 0.459848 5.789415 -0.862370 0
M  V30 47 H -0.798711 3.615580 0.106585 0
M  V30 48 H -0.966742 4.051259 -1.590891 0
M  V30 49 H -0.743863 0.677902 -2.655977 0
M  V30 50 H -4.338260 -2.631211 -2.590935 0
M  V30 51 H -0.416429 -5.046769 -4.305531 0
M  V30 52 H 1.966041 -3.893820 -4.110258 0
M  V30 53 H 1.557391 -1.546833 -2.944277 0
M  V30 54 H -0.691760 -1.766211 0.022863 0
M  V30 55 H -3.720674 -2.264913 5.917911 0
M  V30 56 H -4.313576 -4.750542 5.698385 0
M  V30 END ATOM
M  V30 BEGIN BOND
M  V30 1 1 1 2
M  V30 2 1 2 3
M  V30 3 1 2 4
M  V30 4 2 4 5
M  V30 5 1 4 6
M  V30 6 1 6 7
M  V30 7 2 7 8
M  V30 8 1 8 9
M  V30 9 2 9 10
M  V30 10 1 10 11
M  V30 11 1 11 12
M  V30 12 1 12 13
M  V30 13 1 13 14
M  V30 14 1 14 15
M  V30 15 1 15 16
M  V30 16 1 10 17
M  V30 17 1 17 18
M  V30 18 1 18 19
M  V30 19 2 19 20
M  V30 20 1 20 21
M  V30 21 2 21 22
M  V30 22 1 22 23
M  V30 23 1 23 24
M  V30 24 1 24 25
M  V30 25 2 25 26
M  V30 26 1 26 27
M  V30 27 2 17 28
M  V30 28 1 2 29
M  V30 29 2 29 30
M  V30 30 1 30 31
M  V30 31 2 31 32
M  V30 32 1 32 33
M  V30 33 1 28 7
M  V30 34 1 33 29
M  V30 35 1 16 11
M  V30 36 1 27 19
M  V30 37 2 27 23
M  V30 38 1 1 34
M  V30 39 1 1 35
M  V30 40 1 1 36
M  V30 41 1 3 37
M  V30 42 1 6 38
M  V30 43 1 8 39
M  V30 44 1 9 40
M  V30 45 1 12 41
M  V30 46 1 12 42
M  V30 47 1 13 43
M  V30 48 1 13 44
M  V30 49 1 15 45
M  V30 50 1 15 46
M  V30 51 1 16 47
M  V30 52 1 16 48
M  V30 53 1 18 49
M  V30 54 1 21 50
M  V30 55 1 24 51
M  V30 56 1 25 52
M  V30 57 1 26 53
M  V30 58 1 28 54
M  V30 59 1 31 55
M  V30 60 1 32 56
M  V30 END BOND
M  V30 END CTAB
M  END
>  <Dataset>  (743) 
ChEMBL_Kinases

>  <Ligand_Instance>  (743) 
nan

>  <PDB_ID>  (743) 
nan

>  <Standardized_SMILES>  (743) 
CC(O)(C(=O)Nc1ccc(N2CCOCC2)c(Nc2ncnc3[nH]ccc23)c1)c1nccs1

>  <Name>  (743) 
nan

>  <Pocket>  (743) 
nan

>  <ATP_Site>  (743) 
nan

>  <Peripheral>  (743) 
nan

>  <Num_H_Atoms_ProtBoundConf>  (743) 
nan

>  <Num_Resolved_Atoms>  (743) 
nan

>  <Num_Not_Resolved_Atoms>  (743) 
nan

$$$$
CHEMBL4645639
     RDKit          3D

  0  0  0  0  0  0  0  0  0  0999 V3000
M  V30 BEGIN CTAB
M  V30 COUNTS 61 65 0 0 0
M  V30 BEGIN ATOM
M  V30 1 C 1.411136 -5.213667 2.690531 0
M  V30 2 C 2.197357 -4.473899 1.642072 0
M  V30 3 O 3.538158 -4.509162 1.972990 0
M  V30 4 C 1.813020 -3.037695 1.623137 0
M  V30 5 C 1.480073 -1.861872 1.596456 0
M  V30 6 C 1.078319 -0.485893 1.545634 0
M  V30 7 C 1.726794 0.514992 2.205247 0
M  V30 8 C 1.223518 1.813957 2.064809 0
M  V30 9 C 0.107378 2.027695 1.277053 0
M  V30 10 N -0.405213 3.365336 1.095549 0
M  V30 11 C -0.262713 3.827220 -0.267199 0
M  V30 12 C 0.777038 4.949134 -0.203014 0
M  V30 13 O 0.169522 6.020902 0.458463 0
M  V30 14 C -0.265488 5.696305 1.725765 0
M  V30 15 C -1.024999 4.410270 1.839653 0
M  V30 16 C -0.555464 1.018446 0.607007 0
M  V30 17 N -1.706604 1.246144 -0.179219 0
M  V30 18 C -2.346562 0.168578 -0.852956 0
M  V30 19 N -2.188568 0.089149 -2.205857 0
M  V30 20 C -2.819640 -0.967522 -2.773438 0
M  V30 21 N -3.571883 -1.935443 -2.178194 0
M  V30 22 C -3.720649 -1.846194 -0.838742 0
M  V30 23 N -4.368619 -2.589562 0.107384 0
M  V30 24 C -4.177714 -2.037649 1.324613 0
M  V30 25 C -3.384209 -0.900488 1.177289 0
M  V30 26 C -3.105378 -0.793984 -0.191168 0
M  V30 27 C -0.049922 -0.242253 0.754870 0
M  V30 28 C 2.023501 -5.069939 0.258411 0
M  V30 29 C 2.807627 -4.344486 -0.784197 0
M  V30 30 C 1.920313 -4.120986 -1.963302 0
M  V30 31 C 0.655799 -4.921602 -1.705761 0
M  V30 32 C 0.581871 -4.984177 -0.194278 0
M  V30 33 H 0.966373 -6.156945 2.327820 0
M  V30 34 H 1.962789 -5.324500 3.659472 0
M  V30 35 H 0.525936 -4.558987 2.947260 0
M  V30 36 H 3.717759 -5.415097 2.348516 0
M  V30 37 H 2.591070 0.260515 2.801754 0
M  V30 38 H 1.722515 2.621458 2.579372 0
M  V30 39 H -1.170510 4.305868 -0.685691 0
M  V30 40 H 0.085825 3.085342 -0.977290 0
M  V30 41 H 1.682808 4.594071 0.324473 0
M  V30 42 H 1.018880 5.284734 -1.226441 0
M  V30 43 H 0.573877 5.728521 2.467598 0
M  V30 44 H -0.957246 6.546320 2.032776 0
M  V30 45 H -1.124950 4.181261 2.922839 0
M  V30 46 H -2.041188 4.575932 1.386560 0
M  V30 47 H -2.158974 2.174138 -0.315354 0
M  V30 48 H -2.732397 -1.085960 -3.863893 0
M  V30 49 H -4.908914 -3.440650 -0.142367 0
M  V30 50 H -4.597762 -2.451236 2.246247 0
M  V30 51 H -3.055821 -0.237953 1.984164 0
M  V30 52 H -0.583740 -1.042611 0.215126 0
M  V30 53 H 2.304049 -6.139329 0.291574 0
M  V30 54 H 3.716809 -4.932289 -1.115273 0
M  V30 55 H 3.219063 -3.363636 -0.464867 0
M  V30 56 H 1.609104 -3.044412 -2.040109 0
M  V30 57 H 2.427579 -4.375227 -2.893498 0
M  V30 58 H 0.758347 -5.946639 -2.119326 0
M  V30 59 H -0.226386 -4.412756 -2.149180 0
M  V30 60 H 0.100747 -4.028953 0.160332 0
M  V30 61 H -0.011257 -5.873249 0.103228 0
M  V30 END ATOM
M  V30 BEGIN BOND
M  V30 1 1 1 2
M  V30 2 1 2 3
M  V30 3 1 2 4
M  V30 4 3 4 5
M  V30 5 1 5 6
M  V30 6 2 6 7
M  V30 7 1 7 8
M  V30 8 2 8 9
M  V30 9 1 9 10
M  V30 10 1 10 11
M  V30 11 1 11 12
M  V30 12 1 12 13
M  V30 13 1 13 14
M  V30 14 1 14 15
M  V30 15 1 9 16
M  V30 16 1 16 17
M  V30 17 1 17 18
M  V30 18 2 18 19
M  V30 19 1 19 20
M  V30 20 2 20 21
M  V30 21 1 21 22
M  V30 22 1 22 23
M  V30 23 1 23 24
M  V30 24 2 24 25
M  V30 25 1 25 26
M  V30 26 2 16 27
M  V30 27 1 2 28
M  V30 28 1 28 29
M  V30 29 1 29 30
M  V30 30 1 30 31
M  V30 31 1 31 32
M  V30 32 1 27 6
M  V30 33 1 32 28
M  V30 34 1 15 10
M  V30 35 1 26 18
M  V30 36 2 26 22
M  V30 37 1 1 33
M  V30 38 1 1 34
M  V30 39 1 1 35
M  V30 40 1 3 36
M  V30 41 1 7 37
M  V30 42 1 8 38
M  V30 43 1 11 39
M  V30 44 1 11 40
M  V30 45 1 12 41
M  V30 46 1 12 42
M  V30 47 1 14 43
M  V30 48 1 14 44
M  V30 49 1 15 45
M  V30 50 1 15 46
M  V30 51 1 17 47
M  V30 52 1 20 48
M  V30 53 1 23 49
M  V30 54 1 24 50
M  V30 55 1 25 51
M  V30 56 1 27 52
M  V30 57 1 28 53
M  V30 58 1 29 54
M  V30 59 1 29 55
M  V30 60 1 30 56
M  V30 61 1 30 57
M  V30 62 1 31 58
M  V30 63 1 31 59
M  V30 64 1 32 60
M  V30 65 1 32 61
M  V30 END BOND
M  V30 END CTAB
M  END
>  <Dataset>  (744) 
ChEMBL_Kinases

>  <Ligand_Instance>  (744) 
nan

>  <PDB_ID>  (744) 
nan

>  <Standardized_SMILES>  (744) 
CC(O)(C#Cc1ccc(N2CCOCC2)c(Nc2ncnc3[nH]ccc23)c1)C1CCCC1

>  <Name>  (744) 
nan

>  <Pocket>  (744) 
nan

>  <ATP_Site>  (744) 
nan

>  <Peripheral>  (744) 
nan

>  <Num_H_Atoms_ProtBoundConf>  (744) 
nan

>  <Num_Resolved_Atoms>  (744) 
nan

>  <Num_Not_Resolved_Atoms>  (744) 
nan

$$$$
CHEMBL4645653
     RDKit          3D

  0  0  0  0  0  0  0  0  0  0999 V3000
M  V30 BEGIN CTAB
M  V30 COUNTS 68 73 0 0 0
M  V30 BEGIN ATOM
M  V30 1 C 3.728713 0.776784 5.802557 0
M  V30 2 C 3.546146 0.750493 4.327000 0
M  V30 3 O 2.237411 0.568972 3.894719 0
M  V30 4 C 4.562527 -0.061642 3.527038 0
M  V30 5 N 4.299253 0.900945 2.452028 0
M  V30 6 C 4.224360 0.595456 1.066539 0
M  V30 7 O 4.428895 -0.650086 0.929266 0
M  V30 8 C 3.973371 1.406952 -0.102968 0
M  V30 9 C 2.633697 1.511846 -0.461580 0
M  V30 10 C 2.220763 2.254169 -1.571827 0
M  V30 11 N 0.849249 2.373595 -1.952489 0
M  V30 12 C -0.046278 1.814893 -1.009289 0
M  V30 13 C -0.457442 0.508699 -0.890792 0
M  V30 14 C -1.346842 0.223030 0.122066 0
M  V30 15 O -1.770826 -1.087102 0.256995 0
M  V30 16 C -2.881778 -1.518743 -0.409809 0
M  V30 17 C -3.752359 -0.882202 -1.271978 0
M  V30 18 N -4.666038 -1.835323 -1.611111 0
M  V30 19 C -5.760616 -1.573370 -2.507329 0
M  V30 20 C -5.405205 -1.447941 -3.951865 0
M  V30 21 C -5.890256 -0.239657 -3.151805 0
M  V30 22 N -4.402816 -2.977700 -1.019050 0
M  V30 23 C -3.290251 -2.845005 -0.247535 0
M  V30 24 C -2.700142 -3.927704 0.561133 0
M  V30 25 C -1.696389 -4.767710 -0.197474 0
M  V30 26 C -1.074263 -5.722623 0.800286 0
M  V30 27 O -1.862487 -5.894250 1.922992 0
M  V30 28 C -3.208050 -6.083714 1.634338 0
M  V30 29 C -3.804427 -4.766000 1.161913 0
M  V30 30 C -1.783086 1.235501 0.961648 0
M  V30 31 C -1.364902 2.542729 0.834400 0
M  V30 32 N -0.483938 2.773953 -0.183730 0
M  V30 33 C 3.224338 2.891313 -2.310536 0
M  V30 34 C 4.561757 2.811977 -1.987371 0
M  V30 35 C 4.908793 2.057631 -0.870969 0
M  V30 36 C 6.284121 1.920095 -0.461420 0
M  V30 37 N 7.410302 1.822818 -0.139996 0
M  V30 38 C 4.230650 1.884912 3.548454 0
M  V30 39 H 2.747622 0.439453 6.251069 0
M  V30 40 H 3.974829 1.794091 6.183516 0
M  V30 41 H 4.473177 0.013643 6.141475 0
M  V30 42 H 2.138904 -0.293286 3.405237 0
M  V30 43 H 4.284617 -1.095085 3.346268 0
M  V30 44 H 5.576185 0.154263 3.926350 0
M  V30 45 H 1.851721 1.009935 0.119875 0
M  V30 46 H 0.629832 2.832697 -2.838486 0
M  V30 47 H -0.040665 -0.176520 -1.608845 0
M  V30 48 H -3.656548 0.154185 -1.563242 0
M  V30 49 H -6.698643 -2.103223 -2.215374 0
M  V30 50 H -4.341601 -1.458069 -4.215136 0
M  V30 51 H -6.097525 -1.941077 -4.653405 0
M  V30 52 H -5.166424 0.556572 -2.957226 0
M  V30 53 H -6.923343 0.119972 -3.354953 0
M  V30 54 H -2.107296 -3.425462 1.366550 0
M  V30 55 H -2.177754 -5.298630 -1.046275 0
M  V30 56 H -0.892786 -4.074036 -0.528409 0
M  V30 57 H -0.876787 -6.720941 0.343175 0
M  V30 58 H -0.095954 -5.348752 1.146583 0
M  V30 59 H -3.703366 -6.382740 2.583705 0
M  V30 60 H -3.377021 -6.877725 0.890758 0
M  V30 61 H -4.574414 -4.994368 0.405028 0
M  V30 62 H -4.292990 -4.243303 2.020784 0
M  V30 63 H -2.483519 0.916142 1.730926 0
M  V30 64 H -1.733910 3.294558 1.512289 0
M  V30 65 H 2.993841 3.482703 -3.180306 0
M  V30 66 H 5.323558 3.315973 -2.575007 0
M  V30 67 H 5.222785 2.119912 3.988445 0
M  V30 68 H 3.530292 2.702263 3.416950 0
M  V30 END ATOM
M  V30 BEGIN BOND
M  V30 1 1 1 2
M  V30 2 1 2 3
M  V30 3 1 2 4
M  V30 4 1 4 5
M  V30 5 1 5 6
M  V30 6 2 6 7
M  V30 7 1 6 8
M  V30 8 2 8 9
M  V30 9 1 9 10
M  V30 10 1 10 11
M  V30 11 1 11 12
M  V30 12 2 12 13
M  V30 13 1 13 14
M  V30 14 1 14 15
M  V30 15 1 15 16
M  V30 16 2 16 17
M  V30 17 1 17 18
M  V30 18 1 18 19
M  V30 19 1 19 20
M  V30 20 1 20 21
M  V30 21 1 18 22
M  V30 22 2 22 23
M  V30 23 1 23 24
M  V30 24 1 24 25
M  V30 25 1 25 26
M  V30 26 1 26 27
M  V30 27 1 27 28
M  V30 28 1 28 29
M  V30 29 2 14 30
M  V30 30 1 30 31
M  V30 31 2 31 32
M  V30 32 2 10 33
M  V30 33 1 33 34
M  V30 34 2 34 35
M  V30 35 1 35 36
M  V30 36 3 36 37
M  V30 37 1 5 38
M  V30 38 1 38 2
M  V30 39 1 35 8
M  V30 40 1 32 12
M  V30 41 1 23 16
M  V30 42 1 29 24
M  V30 43 1 21 19
M  V30 44 1 1 39
M  V30 45 1 1 40
M  V30 46 1 1 41
M  V30 47 1 3 42
M  V30 48 1 4 43
M  V30 49 1 4 44
M  V30 50 1 9 45
M  V30 51 1 11 46
M  V30 52 1 13 47
M  V30 53 1 17 48
M  V30 54 1 19 49
M  V30 55 1 20 50
M  V30 56 1 20 51
M  V30 57 1 21 52
M  V30 58 1 21 53
M  V30 59 1 24 54
M  V30 60 1 25 55
M  V30 61 1 25 56
M  V30 62 1 26 57
M  V30 63 1 26 58
M  V30 64 1 28 59
M  V30 65 1 28 60
M  V30 66 1 29 61
M  V30 67 1 29 62
M  V30 68 1 30 63
M  V30 69 1 31 64
M  V30 70 1 33 65
M  V30 71 1 34 66
M  V30 72 1 38 67
M  V30 73 1 38 68
M  V30 END BOND
M  V30 END CTAB
M  END
>  <Dataset>  (745) 
ChEMBL_Kinases

>  <Ligand_Instance>  (745) 
nan

>  <PDB_ID>  (745) 
nan

>  <Standardized_SMILES>  (745) 
CC1(O)CN(C(=O)c2cc(Nc3cc(Oc4cn(C5CC5)nc4C4CCOCC4)ccn3)ccc2C#N)C1

>  <Name>  (745) 
nan

>  <Pocket>  (745) 
nan

>  <ATP_Site>  (745) 
nan

>  <Peripheral>  (745) 
nan

>  <Num_H_Atoms_ProtBoundConf>  (745) 
nan

>  <Num_Resolved_Atoms>  (745) 
nan

>  <Num_Not_Resolved_Atoms>  (745) 
nan

$$$$
CHEMBL4645722
     RDKit          3D

  0  0  0  0  0  0  0  0  0  0999 V3000
M  V30 BEGIN CTAB
M  V30 COUNTS 72 76 0 0 0
M  V30 BEGIN ATOM
M  V30 1 C 0.709641 -3.143206 4.776172 0
M  V30 2 C 0.997816 -4.078847 3.622088 0
M  V30 3 C -0.320427 -4.645547 3.113976 0
M  V30 4 O 1.781511 -3.576560 2.637445 0
M  V30 5 C 1.818985 -2.612881 1.732631 0
M  V30 6 C 3.012212 -2.660962 0.990006 0
M  V30 7 C 3.338641 -1.787683 -0.022120 0
M  V30 8 N 4.541378 -1.856449 -0.772957 0
M  V30 9 C 5.581383 -2.827111 -0.652184 0
M  V30 10 C 5.511464 -3.728868 -1.872407 0
M  V30 11 N 5.343822 -3.009862 -3.078787 0
M  V30 12 C 4.053466 -3.322241 -3.664048 0
M  V30 13 C 5.499521 -1.600126 -3.025721 0
M  V30 14 C 4.920067 -0.941264 -1.808440 0
M  V30 15 C 2.423907 -0.803540 -0.316853 0
M  V30 16 C 1.222874 -0.660806 0.344708 0
M  V30 17 C 0.998357 -1.585814 1.336092 0
M  V30 18 N -0.212314 -1.570179 2.087057 0
M  V30 19 C -1.130042 -0.510052 1.721439 0
M  V30 20 N -0.967984 0.687438 2.365638 0
M  V30 21 C -1.737305 1.762448 2.113809 0
M  V30 22 C -2.736881 1.680147 1.172740 0
M  V30 23 C -2.905887 0.481116 0.521598 0
M  V30 24 N -2.120377 -0.582158 0.792688 0
M  V30 25 N -3.852720 0.148632 -0.483264 0
M  V30 26 C -4.066451 -1.259602 -0.801842 0
M  V30 27 C -4.648250 1.052991 -1.249561 0
M  V30 28 C -5.210976 0.487332 -2.382456 0
M  V30 29 C -6.011648 1.264255 -3.223933 0
M  V30 30 C -6.258844 2.582143 -2.959196 0
M  V30 31 C -5.728874 3.179418 -1.859263 0
M  V30 32 C -4.940654 2.395584 -1.039935 0
M  V30 33 C -4.424684 3.140329 0.104567 0
M  V30 34 O -5.047879 4.246890 0.258171 0
M  V30 35 N -3.395516 2.946099 1.102140 0
M  V30 36 C -3.070416 4.025174 1.984394 0
M  V30 37 C -3.886622 4.044977 3.253429 0
M  V30 38 F -3.760218 2.911924 4.025992 0
M  V30 39 F -3.630203 5.196644 3.998753 0
M  V30 40 F -5.243717 4.142890 2.987433 0
M  V30 41 H 1.172969 -3.491110 5.718002 0
M  V30 42 H -0.388268 -3.089302 4.976792 0
M  V30 43 H 1.099542 -2.116963 4.570974 0
M  V30 44 H 1.511421 -4.977787 4.111670 0
M  V30 45 H -0.389094 -5.747101 3.238115 0
M  V30 46 H -0.467854 -4.416636 2.039654 0
M  V30 47 H -1.182250 -4.190184 3.668756 0
M  V30 48 H 3.780403 -3.402529 1.163048 0
M  V30 49 H 5.494614 -3.525373 0.207735 0
M  V30 50 H 6.578395 -2.297837 -0.607211 0
M  V30 51 H 4.630663 -4.396423 -1.710400 0
M  V30 52 H 6.440598 -4.332760 -1.972229 0
M  V30 53 H 4.051684 -3.100204 -4.757049 0
M  V30 54 H 3.797611 -4.410519 -3.520082 0
M  V30 55 H 3.213979 -2.775844 -3.168870 0
M  V30 56 H 6.582967 -1.369788 -3.053492 0
M  V30 57 H 5.086720 -1.156061 -3.981501 0
M  V30 58 H 4.097096 -0.304774 -2.173413 0
M  V30 59 H 5.685703 -0.254754 -1.343385 0
M  V30 60 H 2.521309 -0.038541 -1.076797 0
M  V30 61 H 0.489059 0.095946 0.139726 0
M  V30 62 H -0.862012 -1.873580 2.793933 0
M  V30 63 H -1.503676 2.624781 2.678387 0
M  V30 64 H -3.489999 -1.566620 -1.695627 0
M  V30 65 H -3.601732 -1.860454 0.022746 0
M  V30 66 H -5.129470 -1.538134 -0.808504 0
M  V30 67 H -5.012504 -0.547869 -2.584763 0
M  V30 68 H -6.459751 0.837778 -4.113329 0
M  V30 69 H -6.879693 3.198119 -3.604086 0
M  V30 70 H -5.888045 4.218464 -1.592031 0
M  V30 71 H -2.037874 4.347886 2.056438 0
M  V30 72 H -3.506398 4.927366 1.417425 0
M  V30 END ATOM
M  V30 BEGIN BOND
M  V30 1 1 1 2
M  V30 2 1 2 3
M  V30 3 1 2 4
M  V30 4 1 4 5
M  V30 5 2 5 6
M  V30 6 1 6 7
M  V30 7 1 7 8
M  V30 8 1 8 9
M  V30 9 1 9 10
M  V30 10 1 10 11
M  V30 11 1 11 12
M  V30 12 1 11 13
M  V30 13 1 13 14
M  V30 14 2 7 15
M  V30 15 1 15 16
M  V30 16 2 16 17
M  V30 17 1 17 18
M  V30 18 1 18 19
M  V30 19 2 19 20
M  V30 20 1 20 21
M  V30 21 2 21 22
M  V30 22 1 22 23
M  V30 23 2 23 24
M  V30 24 1 23 25
M  V30 25 1 25 26
M  V30 26 1 25 27
M  V30 27 2 27 28
M  V30 28 1 28 29
M  V30 29 2 29 30
M  V30 30 1 30 31
M  V30 31 2 31 32
M  V30 32 1 32 33
M  V30 33 2 33 34
M  V30 34 1 33 35
M  V30 35 1 35 36
M  V30 36 1 36 37
M  V30 37 1 37 38
M  V30 38 1 37 39
M  V30 39 1 37 40
M  V30 40 1 17 5
M  V30 41 1 24 19
M  V30 42 1 32 27
M  V30 43 1 14 8
M  V30 44 1 35 22
M  V30 45 1 1 41
M  V30 46 1 1 42
M  V30 47 1 1 43
M  V30 48 1 2 44
M  V30 49 1 3 45
M  V30 50 1 3 46
M  V30 51 1 3 47
M  V30 52 1 6 48
M  V30 53 1 9 49
M  V30 54 1 9 50
M  V30 55 1 10 51
M  V30 56 1 10 52
M  V30 57 1 12 53
M  V30 58 1 12 54
M  V30 59 1 12 55
M  V30 60 1 13 56
M  V30 61 1 13 57
M  V30 62 1 14 58
M  V30 63 1 14 59
M  V30 64 1 15 60
M  V30 65 1 16 61
M  V30 66 1 18 62
M  V30 67 1 21 63
M  V30 68 1 26 64
M  V30 69 1 26 65
M  V30 70 1 26 66
M  V30 71 1 28 67
M  V30 72 1 29 68
M  V30 73 1 30 69
M  V30 74 1 31 70
M  V30 75 1 36 71
M  V30 76 1 36 72
M  V30 END BOND
M  V30 END CTAB
M  END
>  <Dataset>  (746) 
ChEMBL_Kinases

>  <Ligand_Instance>  (746) 
nan

>  <PDB_ID>  (746) 
nan

>  <Standardized_SMILES>  (746) 
CC(C)Oc1cc(N2CCN(C)CC2)ccc1Nc1ncc2c(n1)N(C)c1ccccc1C(=O)N2CC(F)(F)F

>  <Name>  (746) 
nan

>  <Pocket>  (746) 
nan

>  <ATP_Site>  (746) 
nan

>  <Peripheral>  (746) 
nan

>  <Num_H_Atoms_ProtBoundConf>  (746) 
nan

>  <Num_Resolved_Atoms>  (746) 
nan

>  <Num_Not_Resolved_Atoms>  (746) 
nan

$$$$
CHEMBL4645321
     RDKit          3D

  0  0  0  0  0  0  0  0  0  0999 V3000
M  V30 BEGIN CTAB
M  V30 COUNTS 52 56 0 0 0
M  V30 BEGIN ATOM
M  V30 1 C -0.202804 -4.934232 1.557777 0
M  V30 2 N 1.185260 -5.014251 1.292663 0
M  V30 3 C 1.865763 -3.766252 1.025733 0
M  V30 4 C 1.775374 -2.799071 2.157558 0
M  V30 5 C 0.852814 -1.654860 2.000431 0
M  V30 6 N 0.921586 -1.047762 0.661942 0
M  V30 7 C 0.245170 0.150148 0.304745 0
M  V30 8 N 1.151206 1.144958 0.286924 0
M  V30 9 C 0.887265 2.434995 0.038622 0
M  V30 10 C 1.829344 3.544620 0.008040 0
M  V30 11 C 3.142071 3.202135 0.268053 0
M  V30 12 C 4.152613 4.149748 0.274141 0
M  V30 13 N 3.788021 5.435555 0.011146 0
M  V30 14 C 2.500637 5.753503 -0.240988 0
M  V30 15 C 1.468112 4.829655 -0.254320 0
M  V30 16 N -0.406089 2.705352 -0.207250 0
M  V30 17 C -1.345421 1.739980 -0.200364 0
M  V30 18 S -3.053091 1.770127 -0.479118 0
M  V30 19 C -3.328009 -0.002134 -0.243489 0
M  V30 20 C -2.064929 -0.493689 0.036345 0
M  V30 21 C -1.078575 0.434923 0.049980 0
M  V30 22 C -2.205675 -1.957845 0.210351 0
M  V30 23 C -3.170712 -2.121055 1.398311 0
M  V30 24 C -4.581602 -1.776709 0.950118 0
M  V30 25 C -4.551561 -0.898587 -0.287100 0
M  V30 26 C 1.718358 -1.692701 -0.364875 0
M  V30 27 C 1.554007 -3.202937 -0.326031 0
M  V30 28 H -0.484042 -5.896914 2.055337 0
M  V30 29 H -0.512553 -4.152463 2.269211 0
M  V30 30 H -0.860652 -4.850958 0.679302 0
M  V30 31 H 1.661252 -5.442905 2.108217 0
M  V30 32 H 2.943055 -4.077453 0.968815 0
M  V30 33 H 1.431886 -3.404780 3.048702 0
M  V30 34 H 2.800871 -2.452283 2.471457 0
M  V30 35 H -0.172099 -1.782144 2.366953 0
M  V30 36 H 1.266767 -0.829171 2.659916 0
M  V30 37 H 3.460921 2.190425 0.479989 0
M  V30 38 H 5.187198 3.880581 0.478977 0
M  V30 39 H 2.246305 6.801330 -0.448605 0
M  V30 40 H 0.442708 5.073666 -0.453556 0
M  V30 41 H -2.684385 -2.381400 -0.711757 0
M  V30 42 H -1.300734 -2.508822 0.414692 0
M  V30 43 H -2.868215 -1.344936 2.129995 0
M  V30 44 H -3.100183 -3.095422 1.875672 0
M  V30 45 H -5.130694 -2.716055 0.746688 0
M  V30 46 H -5.095293 -1.278069 1.794579 0
M  V30 47 H -4.605296 -1.470173 -1.219841 0
M  V30 48 H -5.448213 -0.249268 -0.233498 0
M  V30 49 H 2.808575 -1.458701 -0.202974 0
M  V30 50 H 1.492321 -1.332072 -1.370840 0
M  V30 51 H 2.272733 -3.565564 -1.120300 0
M  V30 52 H 0.562974 -3.486603 -0.732785 0
M  V30 END ATOM
M  V30 BEGIN BOND
M  V30 1 1 1 2
M  V30 2 1 2 3
M  V30 3 1 3 4
M  V30 4 1 4 5
M  V30 5 1 5 6
M  V30 6 1 6 7
M  V30 7 2 7 8
M  V30 8 1 8 9
M  V30 9 1 9 10
M  V30 10 2 10 11
M  V30 11 1 11 12
M  V30 12 2 12 13
M  V30 13 1 13 14
M  V30 14 2 14 15
M  V30 15 2 9 16
M  V30 16 1 16 17
M  V30 17 1 17 18
M  V30 18 1 18 19
M  V30 19 2 19 20
M  V30 20 1 20 21
M  V30 21 1 20 22
M  V30 22 1 22 23
M  V30 23 1 23 24
M  V30 24 1 24 25
M  V30 25 1 6 26
M  V30 26 1 26 27
M  V30 27 1 27 3
M  V30 28 1 21 7
M  V30 29 1 15 10
M  V30 30 2 21 17
M  V30 31 1 25 19
M  V30 32 1 1 28
M  V30 33 1 1 29
M  V30 34 1 1 30
M  V30 35 1 2 31
M  V30 36 1 3 32
M  V30 37 1 4 33
M  V30 38 1 4 34
M  V30 39 1 5 35
M  V30 40 1 5 36
M  V30 41 1 11 37
M  V30 42 1 12 38
M  V30 43 1 14 39
M  V30 44 1 15 40
M  V30 45 1 22 41
M  V30 46 1 22 42
M  V30 47 1 23 43
M  V30 48 1 23 44
M  V30 49 1 24 45
M  V30 50 1 24 46
M  V30 51 1 25 47
M  V30 52 1 25 48
M  V30 53 1 26 49
M  V30 54 1 26 50
M  V30 55 1 27 51
M  V30 56 1 27 52
M  V30 END BOND
M  V30 END CTAB
M  END
>  <Dataset>  (747) 
ChEMBL_Kinases

>  <Ligand_Instance>  (747) 
nan

>  <PDB_ID>  (747) 
nan

>  <Standardized_SMILES>  (747) 
CNC1CCN(c2nc(-c3ccncc3)nc3sc4c(c23)CCCC4)CC1

>  <Name>  (747) 
nan

>  <Pocket>  (747) 
nan

>  <ATP_Site>  (747) 
nan

>  <Peripheral>  (747) 
nan

>  <Num_H_Atoms_ProtBoundConf>  (747) 
nan

>  <Num_Resolved_Atoms>  (747) 
nan

>  <Num_Not_Resolved_Atoms>  (747) 
nan

$$$$
CHEMBL483402
     RDKit          3D

  0  0  0  0  0  0  0  0  0  0999 V3000
M  V30 BEGIN CTAB
M  V30 COUNTS 55 59 0 0 0
M  V30 BEGIN ATOM
M  V30 1 C 4.047883 1.428957 7.312541 0
M  V30 2 O 3.538316 0.817331 6.145803 0
M  V30 3 C 2.455686 1.442373 5.507435 0
M  V30 4 C 1.908155 0.884616 4.348887 0
M  V30 5 C 0.847139 1.419452 3.648443 0
M  V30 6 C 0.308832 0.812837 2.437477 0
M  V30 7 N 0.804880 -0.238404 1.960292 0
M  V30 8 C 0.387978 -0.956071 0.758203 0
M  V30 9 C 1.375882 -0.568960 -0.332736 0
M  V30 10 C 1.286202 -0.447339 -1.671600 0
M  V30 11 C 2.285297 -0.050600 -2.519122 0
M  V30 12 C 3.519304 0.266610 -2.001650 0
M  V30 13 Cl 4.798900 0.772930 -3.070171 0
M  V30 14 C 3.729019 0.180919 -0.650244 0
M  V30 15 C 2.663025 -0.227920 0.118508 0
M  V30 16 F 2.959977 -0.290336 1.455448 0
M  V30 17 C -0.908648 -0.365644 0.353832 0
M  V30 18 C -1.612853 -1.282649 -0.569056 0
M  V30 19 O -1.124046 -2.394530 -1.012847 0
M  V30 20 N -2.814982 -1.456457 -1.279364 0
M  V30 21 C -2.867945 -2.648910 -2.050461 0
M  V30 22 C -3.383499 -3.737237 -1.367267 0
M  V30 23 C -3.494776 -4.959480 -1.988432 0
M  V30 24 C -3.099058 -5.128452 -3.294673 0
M  V30 25 N -3.064717 -6.138515 -4.182926 0
M  V30 26 N -2.559867 -5.716005 -5.352675 0
M  V30 27 C -2.251008 -4.409025 -5.252074 0
M  V30 28 C -2.585652 -4.042021 -3.972968 0
M  V30 29 C -2.474825 -2.808874 -3.341979 0
M  V30 30 C -1.537574 0.727073 0.731021 0
M  V30 31 C -2.814681 1.259966 0.275323 0
M  V30 32 N -0.866893 1.348001 1.854297 0
M  V30 33 C 0.370576 2.566532 4.201501 0
M  V30 34 C 0.889711 3.138356 5.341346 0
M  V30 35 N 1.923489 2.579787 5.987527 0
M  V30 36 H 3.375230 1.109075 8.159462 0
M  V30 37 H 5.082808 1.053551 7.543808 0
M  V30 38 H 3.998524 2.529570 7.287441 0
M  V30 39 H 2.386697 -0.030623 4.031876 0
M  V30 40 H 0.342571 -2.029777 0.874965 0
M  V30 41 H 0.345125 -0.658687 -2.134592 0
M  V30 42 H 2.101218 0.009807 -3.571362 0
M  V30 43 H 4.694154 0.429373 -0.245386 0
M  V30 44 H -3.459860 -0.659079 -1.097482 0
M  V30 45 H -3.729385 -3.717843 -0.325398 0
M  V30 46 H -3.890003 -5.839281 -1.500095 0
M  V30 47 H -3.399339 -7.114830 -3.949623 0
M  V30 48 H -1.826066 -3.827867 -6.061104 0
M  V30 49 H -2.080518 -1.937550 -3.834181 0
M  V30 50 H -2.883450 2.304946 0.731425 0
M  V30 51 H -3.720822 0.776777 0.666590 0
M  V30 52 H -2.815218 1.490382 -0.809763 0
M  V30 53 H -1.281905 2.224327 2.235437 0
M  V30 54 H -0.447831 3.119535 3.794303 0
M  V30 55 H 0.513922 4.048946 5.783288 0
M  V30 END ATOM
M  V30 BEGIN BOND
M  V30 1 1 1 2
M  V30 2 1 2 3
M  V30 3 2 3 4
M  V30 4 1 4 5
M  V30 5 1 5 6
M  V30 6 2 6 7
M  V30 7 1 7 8
M  V30 8 1 8 9
M  V30 9 2 9 10
M  V30 10 1 10 11
M  V30 11 2 11 12
M  V30 12 1 12 13
M  V30 13 1 12 14
M  V30 14 2 14 15
M  V30 15 1 15 16
M  V30 16 1 8 17
M  V30 17 1 17 18
M  V30 18 2 18 19
M  V30 19 1 18 20
M  V30 20 1 20 21
M  V30 21 2 21 22
M  V30 22 1 22 23
M  V30 23 2 23 24
M  V30 24 1 24 25
M  V30 25 1 25 26
M  V30 26 2 26 27
M  V30 27 1 27 28
M  V30 28 2 28 29
M  V30 29 2 17 30
M  V30 30 1 30 31
M  V30 31 1 30 32
M  V30 32 2 5 33
M  V30 33 1 33 34
M  V30 34 2 34 35
M  V30 35 1 35 3
M  V30 36 1 32 6
M  V30 37 1 15 9
M  V30 38 1 29 21
M  V30 39 1 28 24
M  V30 40 1 1 36
M  V30 41 1 1 37
M  V30 42 1 1 38
M  V30 43 1 4 39
M  V30 44 1 8 40
M  V30 45 1 10 41
M  V30 46 1 11 42
M  V30 47 1 14 43
M  V30 48 1 20 44
M  V30 49 1 22 45
M  V30 50 1 23 46
M  V30 51 1 25 47
M  V30 52 1 27 48
M  V30 53 1 29 49
M  V30 54 1 31 50
M  V30 55 1 31 51
M  V30 56 1 31 52
M  V30 57 1 32 53
M  V30 58 1 33 54
M  V30 59 1 34 55
M  V30 END BOND
M  V30 END CTAB
M  END
>  <Dataset>  (748) 
ChEMBL_Kinases

>  <Ligand_Instance>  (748) 
nan

>  <PDB_ID>  (748) 
nan

>  <Standardized_SMILES>  (748) 
COc1cc(C2=NC(c3ccc(Cl)cc3F)C(C(=O)Nc3ccc4[nH]ncc4c3)=C(C)N2)ccn1

>  <Name>  (748) 
nan

>  <Pocket>  (748) 
nan

>  <ATP_Site>  (748) 
nan

>  <Peripheral>  (748) 
nan

>  <Num_H_Atoms_ProtBoundConf>  (748) 
nan

>  <Num_Resolved_Atoms>  (748) 
nan

>  <Num_Not_Resolved_Atoms>  (748) 
nan

$$$$
CHEMBL483465
     RDKit          3D

  0  0  0  0  0  0  0  0  0  0999 V3000
M  V30 BEGIN CTAB
M  V30 COUNTS 43 48 0 0 0
M  V30 BEGIN ATOM
M  V30 1 C -3.615663 -1.694275 0.249392 0
M  V30 2 N -2.295925 -1.443039 0.810095 0
M  V30 3 C -2.028875 -0.359271 1.557367 0
M  V30 4 C -0.713865 -0.335331 1.966372 0
M  V30 5 C -0.068238 0.670235 2.802542 0
M  V30 6 C 1.054102 1.313561 2.547318 0
M  V30 7 C 2.033423 1.338348 1.481035 0
M  V30 8 C 3.410228 1.292392 1.442457 0
M  V30 9 O 3.811647 1.365782 0.197370 0
M  V30 10 C 2.780721 1.459635 -0.616730 0
M  V30 11 C 2.760582 1.562476 -2.007803 0
M  V30 12 C 1.576015 1.658541 -2.691439 0
M  V30 13 C 0.405751 1.648092 -1.954037 0
M  V30 14 F -0.782817 1.742033 -2.607632 0
M  V30 15 C 0.472612 1.544795 -0.584171 0
M  V30 16 C 1.614176 1.447652 0.149874 0
M  V30 17 C 1.317370 2.211715 3.664991 0
M  V30 18 O 2.177783 3.071173 4.046963 0
M  V30 19 N 0.258327 2.068375 4.635695 0
M  V30 20 C -0.634745 1.084277 4.097665 0
M  V30 21 O -1.714287 0.625946 4.601110 0
M  V30 22 C -0.154604 -1.496236 1.421548 0
M  V30 23 C 1.085501 -2.079042 1.452756 0
M  V30 24 C 1.282311 -3.279455 0.791516 0
M  V30 25 C 0.271774 -3.941913 0.082038 0
M  V30 26 C -0.972156 -3.339157 0.059983 0
M  V30 27 C -1.149211 -2.143625 0.725310 0
M  V30 28 O 0.802090 -5.130911 -0.466430 0
M  V30 29 C 1.957668 -5.417140 0.301064 0
M  V30 30 O 2.419606 -4.101278 0.649818 0
M  V30 31 H -3.527343 -2.563541 -0.460837 0
M  V30 32 H -3.951534 -0.847430 -0.390441 0
M  V30 33 H -4.283566 -1.980063 1.049125 0
M  V30 34 H -2.710703 0.430058 1.841376 0
M  V30 35 H 3.904053 1.206120 2.400739 0
M  V30 36 H 3.661685 1.575563 -2.606703 0
M  V30 37 H 1.486135 1.742243 -3.768713 0
M  V30 38 H -0.471345 1.555594 -0.091306 0
M  V30 39 H 0.002127 2.478626 5.576481 0
M  V30 40 H 1.862031 -1.572714 1.994122 0
M  V30 41 H -1.778373 -3.829374 -0.482659 0
M  V30 42 H 1.721186 -5.918100 1.258251 0
M  V30 43 H 2.699313 -6.000719 -0.236682 0
M  V30 END ATOM
M  V30 BEGIN BOND
M  V30 1 1 1 2
M  V30 2 1 2 3
M  V30 3 2 3 4
M  V30 4 1 4 5
M  V30 5 2 5 6
M  V30 6 1 6 7
M  V30 7 2 7 8
M  V30 8 1 8 9
M  V30 9 1 9 10
M  V30 10 2 10 11
M  V30 11 1 11 12
M  V30 12 2 12 13
M  V30 13 1 13 14
M  V30 14 1 13 15
M  V30 15 2 15 16
M  V30 16 1 6 17
M  V30 17 2 17 18
M  V30 18 1 17 19
M  V30 19 1 19 20
M  V30 20 2 20 21
M  V30 21 1 4 22
M  V30 22 2 22 23
M  V30 23 1 23 24
M  V30 24 2 24 25
M  V30 25 1 25 26
M  V30 26 2 26 27
M  V30 27 1 25 28
M  V30 28 1 28 29
M  V30 29 1 29 30
M  V30 30 1 27 2
M  V30 31 1 20 5
M  V30 32 1 27 22
M  V30 33 1 16 7
M  V30 34 1 30 24
M  V30 35 1 16 10
M  V30 36 1 1 31
M  V30 37 1 1 32
M  V30 38 1 1 33
M  V30 39 1 3 34
M  V30 40 1 8 35
M  V30 41 1 11 36
M  V30 42 1 12 37
M  V30 43 1 15 38
M  V30 44 1 19 39
M  V30 45 1 23 40
M  V30 46 1 26 41
M  V30 47 1 29 42
M  V30 48 1 29 43
M  V30 END BOND
M  V30 END CTAB
M  END
>  <Dataset>  (749) 
ChEMBL_Kinases

>  <Ligand_Instance>  (749) 
nan

>  <PDB_ID>  (749) 
nan

>  <Standardized_SMILES>  (749) 
Cn1cc(C2=C(c3coc4ccc(F)cc34)C(=O)NC2=O)c2cc3c(cc21)OCO3

>  <Name>  (749) 
ELRAGLUSIB

>  <Pocket>  (749) 
nan

>  <ATP_Site>  (749) 
nan

>  <Peripheral>  (749) 
nan

>  <Num_H_Atoms_ProtBoundConf>  (749) 
nan

>  <Num_Resolved_Atoms>  (749) 
nan

>  <Num_Not_Resolved_Atoms>  (749) 
nan

$$$$
CHEMBL4091817
     RDKit          3D

  0  0  0  0  0  0  0  0  0  0999 V3000
M  V30 BEGIN CTAB
M  V30 COUNTS 60 64 0 0 0
M  V30 BEGIN ATOM
M  V30 1 C 0.607556 -4.285884 6.169718 0
M  V30 2 C 1.932448 -3.949106 6.013510 0
M  V30 3 C 2.426881 -3.495950 4.803536 0
M  V30 4 C 1.572444 -3.373256 3.710645 0
M  V30 5 C 2.270724 -2.885646 2.527784 0
M  V30 6 C 3.592184 -3.199701 2.299003 0
M  V30 7 C 4.204965 -2.698404 1.164431 0
M  V30 8 C 3.511104 -1.899058 0.276943 0
M  V30 9 C 2.167049 -1.587885 0.523454 0
M  V30 10 N 1.649566 -0.749823 -0.500413 0
M  V30 11 C 1.477696 0.576585 -0.227815 0
M  V30 12 C 0.966282 1.283541 -1.323980 0
M  V30 13 C 0.673188 2.721726 -1.420942 0
M  V30 14 N -0.663355 3.126245 -1.445730 0
M  V30 15 C -1.581020 2.791964 -0.463287 0
M  V30 16 C -2.071923 1.400900 -0.332390 0
M  V30 17 C -3.064180 1.364297 0.841786 0
M  V30 18 C -3.723072 0.062555 1.045346 0
M  V30 19 C -4.063908 -0.739527 -0.166620 0
M  V30 20 C -3.188432 -0.475204 -1.352724 0
M  V30 21 C -2.935856 0.985912 -1.533578 0
M  V30 22 C 0.840933 0.293819 -2.277395 0
M  V30 23 C 0.392927 0.317640 -3.585848 0
M  V30 24 C 0.375921 -0.859804 -4.327193 0
M  V30 25 C 0.802598 -2.066473 -3.777253 0
M  V30 26 C 1.254120 -2.114581 -2.472495 0
M  V30 27 C 1.252267 -0.923752 -1.777976 0
M  V30 28 C 1.558938 -2.090285 1.656144 0
M  V30 29 C 0.244356 -3.708570 3.861358 0
M  V30 30 C -0.223852 -4.158292 5.079234 0
M  V30 31 H 0.173446 -4.645978 7.101586 0
M  V30 32 H 2.510749 -4.082521 6.934512 0
M  V30 33 H 3.488703 -3.286471 4.891907 0
M  V30 34 H 4.103552 -3.839768 3.033513 0
M  V30 35 H 5.246747 -2.989827 1.052643 0
M  V30 36 H 4.102495 -1.578345 -0.559930 0
M  V30 37 H 1.691528 1.104410 0.716754 0
M  V30 38 H 1.307194 3.148234 -2.235440 0
M  V30 39 H 1.133820 3.189990 -0.491307 0
M  V30 40 H -0.767487 4.058483 -1.885043 0
M  V30 41 H -1.163399 3.096558 0.545954 0
M  V30 42 H -2.497209 3.454332 -0.541610 0
M  V30 43 H -1.350172 0.623236 -0.111657 0
M  V30 44 H -3.821277 2.143056 0.618090 0
M  V30 45 H -2.536235 1.630158 1.786871 0
M  V30 46 H -4.710869 0.267947 1.552936 0
M  V30 47 H -3.154767 -0.539252 1.800980 0
M  V30 48 H -3.964082 -1.813873 0.090870 0
M  V30 49 H -5.118306 -0.601639 -0.507647 0
M  V30 50 H -2.224314 -0.992386 -1.232176 0
M  V30 51 H -3.716031 -0.875860 -2.266972 0
M  V30 52 H -2.491125 1.248853 -2.493550 0
M  V30 53 H -3.902070 1.561840 -1.459902 0
M  V30 54 H 0.060896 1.249057 -4.019218 0
M  V30 55 H 0.009454 -0.776401 -5.357412 0
M  V30 56 H 0.772115 -2.973631 -4.400667 0
M  V30 57 H 1.587786 -3.041856 -2.031937 0
M  V30 58 H 0.532243 -1.786785 1.740550 0
M  V30 59 H -0.311280 -3.568203 2.937319 0
M  V30 60 H -1.293984 -4.392305 5.067601 0
M  V30 END ATOM
M  V30 BEGIN BOND
M  V30 1 2 1 2
M  V30 2 1 2 3
M  V30 3 2 3 4
M  V30 4 1 4 5
M  V30 5 2 5 6
M  V30 6 1 6 7
M  V30 7 2 7 8
M  V30 8 1 8 9
M  V30 9 1 9 10
M  V30 10 1 10 11
M  V30 11 2 11 12
M  V30 12 1 12 13
M  V30 13 1 13 14
M  V30 14 1 14 15
M  V30 15 1 15 16
M  V30 16 1 16 17
M  V30 17 1 17 18
M  V30 18 1 18 19
M  V30 19 1 19 20
M  V30 20 1 20 21
M  V30 21 1 12 22
M  V30 22 2 22 23
M  V30 23 1 23 24
M  V30 24 2 24 25
M  V30 25 1 25 26
M  V30 26 2 26 27
M  V30 27 2 9 28
M  V30 28 1 4 29
M  V30 29 2 29 30
M  V30 30 1 30 1
M  V30 31 1 28 5
M  V30 32 1 27 10
M  V30 33 1 21 16
M  V30 34 1 27 22
M  V30 35 1 1 31
M  V30 36 1 2 32
M  V30 37 1 3 33
M  V30 38 1 6 34
M  V30 39 1 7 35
M  V30 40 1 8 36
M  V30 41 1 11 37
M  V30 42 1 13 38
M  V30 43 1 13 39
M  V30 44 1 14 40
M  V30 45 1 15 41
M  V30 46 1 15 42
M  V30 47 1 16 43
M  V30 48 1 17 44
M  V30 49 1 17 45
M  V30 50 1 18 46
M  V30 51 1 18 47
M  V30 52 1 19 48
M  V30 53 1 19 49
M  V30 54 1 20 50
M  V30 55 1 20 51
M  V30 56 1 21 52
M  V30 57 1 21 53
M  V30 58 1 23 54
M  V30 59 1 24 55
M  V30 60 1 25 56
M  V30 61 1 26 57
M  V30 62 1 28 58
M  V30 63 1 29 59
M  V30 64 1 30 60
M  V30 END BOND
M  V30 END CTAB
M  END
>  <Dataset>  (750) 
ChEMBL_Kinases

>  <Ligand_Instance>  (750) 
nan

>  <PDB_ID>  (750) 
nan

>  <Standardized_SMILES>  (750) 
c1ccc(-c2cccc(-n3cc(CNCC4CCCCC4)c4ccccc43)c2)cc1

>  <Name>  (750) 
nan

>  <Pocket>  (750) 
nan

>  <ATP_Site>  (750) 
nan

>  <Peripheral>  (750) 
nan

>  <Num_H_Atoms_ProtBoundConf>  (750) 
nan

>  <Num_Resolved_Atoms>  (750) 
nan

>  <Num_Not_Resolved_Atoms>  (750) 
nan

$$$$
CHEMBL483568
     RDKit          3D

  0  0  0  0  0  0  0  0  0  0999 V3000
M  V30 BEGIN CTAB
M  V30 COUNTS 55 59 0 0 0
M  V30 BEGIN ATOM
M  V30 1 C -1.111680 -2.179843 3.770831 0
M  V30 2 C -0.805237 -2.092847 2.322882 0
M  V30 3 C -0.054379 -1.222206 1.670074 0
M  V30 4 C 0.503147 -0.262399 2.605920 0
M  V30 5 O 0.289639 -0.253286 3.873478 0
M  V30 6 N 1.344066 0.819593 2.467042 0
M  V30 7 C 2.171626 1.938279 2.559854 0
M  V30 8 C 3.540975 1.767658 2.801931 0
M  V30 9 C 4.377476 2.884507 2.935749 0
M  V30 10 C 3.714914 4.078694 2.805776 0
M  V30 11 N 4.264628 5.305163 2.887899 0
M  V30 12 N 3.361880 6.251952 2.718749 0
M  V30 13 C 2.141563 5.716743 2.510690 0
M  V30 14 C 2.389032 4.360162 2.569586 0
M  V30 15 C 1.596130 3.214653 2.443348 0
M  V30 16 C 0.170384 -1.202548 0.205759 0
M  V30 17 C -0.365075 0.053369 -0.431938 0
M  V30 18 C -1.762576 -0.079129 -0.392781 0
M  V30 19 C -2.583080 0.925403 -0.931347 0
M  V30 20 C -2.011888 2.050191 -1.503201 0
M  V30 21 F -2.699369 3.072684 -2.048422 0
M  V30 22 C -0.640343 2.169549 -1.535865 0
M  V30 23 C 0.163105 1.186171 -1.008314 0
M  V30 24 N -0.428364 -2.349281 -0.445855 0
M  V30 25 C -1.150141 -3.223987 0.096970 0
M  V30 26 C -1.669552 -4.306566 -0.727691 0
M  V30 27 C -2.473518 -5.327508 -0.277954 0
M  V30 28 C -2.934388 -6.336929 -1.098863 0
M  V30 29 C -2.607377 -6.377359 -2.439849 0
M  V30 30 C -1.796063 -5.364081 -2.935212 0
M  V30 31 C -1.331730 -5.253847 -4.356567 0
M  V30 32 F 0.056199 -5.305205 -4.386030 0
M  V30 33 F -1.798436 -6.377224 -5.014583 0
M  V30 34 F -1.791310 -4.126964 -4.984539 0
M  V30 35 C -1.363139 -4.381611 -2.078910 0
M  V30 36 N -1.370987 -3.134956 1.487000 0
M  V30 37 H -1.800692 -3.058921 3.954868 0
M  V30 38 H -0.244210 -2.378270 4.398793 0
M  V30 39 H -1.680614 -1.313346 4.164906 0
M  V30 40 H 1.540173 0.788530 1.406522 0
M  V30 41 H 3.965235 0.785771 2.888846 0
M  V30 42 H 5.435954 2.822322 3.122253 0
M  V30 43 H 5.261615 5.555503 3.059855 0
M  V30 44 H 1.134208 6.044002 2.330614 0
M  V30 45 H 0.546869 3.296591 2.255880 0
M  V30 46 H 1.246943 -1.227636 -0.005769 0
M  V30 47 H -2.412666 -0.858946 -0.003634 0
M  V30 48 H -3.656652 0.941431 -0.963295 0
M  V30 49 H -0.054410 2.970338 -1.938195 0
M  V30 50 H 1.245805 1.092791 -0.939698 0
M  V30 51 H -2.760881 -5.347254 0.757839 0
M  V30 52 H -3.559276 -7.139757 -0.773196 0
M  V30 53 H -2.896329 -7.101405 -3.190480 0
M  V30 54 H -0.722908 -3.574838 -2.461344 0
M  V30 55 H -1.979213 -3.874836 1.906867 0
M  V30 END ATOM
M  V30 BEGIN BOND
M  V30 1 1 1 2
M  V30 2 2 2 3
M  V30 3 1 3 4
M  V30 4 2 4 5
M  V30 5 1 4 6
M  V30 6 1 6 7
M  V30 7 2 7 8
M  V30 8 1 8 9
M  V30 9 2 9 10
M  V30 10 1 10 11
M  V30 11 1 11 12
M  V30 12 2 12 13
M  V30 13 1 13 14
M  V30 14 2 14 15
M  V30 15 1 3 16
M  V30 16 1 16 17
M  V30 17 2 17 18
M  V30 18 1 18 19
M  V30 19 2 19 20
M  V30 20 1 20 21
M  V30 21 1 20 22
M  V30 22 2 22 23
M  V30 23 1 16 24
M  V30 24 2 24 25
M  V30 25 1 25 26
M  V30 26 2 26 27
M  V30 27 1 27 28
M  V30 28 2 28 29
M  V30 29 1 29 30
M  V30 30 1 30 31
M  V30 31 1 31 32
M  V30 32 1 31 33
M  V30 33 1 31 34
M  V30 34 2 30 35
M  V30 35 1 25 36
M  V30 36 1 36 2
M  V30 37 1 15 7
M  V30 38 1 23 17
M  V30 39 1 35 26
M  V30 40 1 14 10
M  V30 41 1 1 37
M  V30 42 1 1 38
M  V30 43 1 1 39
M  V30 44 1 6 40
M  V30 45 1 8 41
M  V30 46 1 9 42
M  V30 47 1 11 43
M  V30 48 1 13 44
M  V30 49 1 15 45
M  V30 50 1 16 46
M  V30 51 1 18 47
M  V30 52 1 19 48
M  V30 53 1 22 49
M  V30 54 1 23 50
M  V30 55 1 27 51
M  V30 56 1 28 52
M  V30 57 1 29 53
M  V30 58 1 35 54
M  V30 59 1 36 55
M  V30 END BOND
M  V30 END CTAB
M  END
>  <Dataset>  (751) 
ChEMBL_Kinases

>  <Ligand_Instance>  (751) 
nan

>  <PDB_ID>  (751) 
nan

>  <Standardized_SMILES>  (751) 
CC1=C(C(=O)Nc2ccc3[nH]ncc3c2)C(c2ccc(F)cc2)N=C(c2cccc(C(F)(F)F)c2)N1

>  <Name>  (751) 
nan

>  <Pocket>  (751) 
nan

>  <ATP_Site>  (751) 
nan

>  <Peripheral>  (751) 
nan

>  <Num_H_Atoms_ProtBoundConf>  (751) 
nan

>  <Num_Resolved_Atoms>  (751) 
nan

>  <Num_Not_Resolved_Atoms>  (751) 
nan

$$$$
CHEMBL483574
     RDKit          3D

  0  0  0  0  0  0  0  0  0  0999 V3000
M  V30 BEGIN CTAB
M  V30 COUNTS 55 59 0 0 0
M  V30 BEGIN ATOM
M  V30 1 C 7.601172 1.818873 4.086478 0
M  V30 2 O 7.538369 0.965533 2.960648 0
M  V30 3 C 6.259825 0.600399 2.504621 0
M  V30 4 C 6.223049 -0.233495 1.403777 0
M  V30 5 C 4.971513 -0.602665 0.941814 0
M  V30 6 C 3.788620 -0.187666 1.514392 0
M  V30 7 C 2.474433 -0.577314 1.026087 0
M  V30 8 N 1.450076 -0.146973 1.615726 0
M  V30 9 C 0.064807 -0.392103 1.317235 0
M  V30 10 C -0.683040 0.888410 1.145713 0
M  V30 11 C -0.459947 1.374327 -0.148322 0
M  V30 12 C -1.050365 2.570745 -0.570944 0
M  V30 13 C -1.856971 3.268324 0.303816 0
M  V30 14 Cl -2.651366 4.782091 -0.115987 0
M  V30 15 C -2.071228 2.782710 1.575976 0
M  V30 16 C -1.497475 1.607679 2.005801 0
M  V30 17 F -1.595471 0.988447 3.202786 0
M  V30 18 C -0.047358 -1.305454 0.168404 0
M  V30 19 C -1.352193 -1.757722 -0.326434 0
M  V30 20 O -1.535506 -2.538962 -1.304160 0
M  V30 21 N -2.632125 -1.416023 0.184012 0
M  V30 22 C -3.805816 -1.946061 -0.420116 0
M  V30 23 C -4.412088 -1.262560 -1.445995 0
M  V30 24 C -5.563415 -1.832311 -2.001493 0
M  V30 25 C -6.036524 -3.045261 -1.499876 0
M  V30 26 N -7.113189 -3.798102 -1.855268 0
M  V30 27 N -7.134867 -4.874149 -1.071345 0
M  V30 28 C -6.119446 -4.866086 -0.212748 0
M  V30 29 C -5.397932 -3.712684 -0.458486 0
M  V30 30 C -4.258868 -3.145987 0.088857 0
M  V30 31 C 0.968154 -1.824577 -0.539507 0
M  V30 32 C 0.898368 -2.746137 -1.703779 0
M  V30 33 N 2.281649 -1.435536 -0.079882 0
M  V30 34 C 3.932171 0.638560 2.602909 0
M  V30 35 N 5.132900 1.034372 3.101095 0
M  V30 36 H 7.017142 1.290870 4.890599 0
M  V30 37 H 8.622407 1.950385 4.453260 0
M  V30 38 H 7.065344 2.776074 3.924518 0
M  V30 39 H 7.135063 -0.588079 0.916680 0
M  V30 40 H 4.958242 -1.248086 0.089519 0
M  V30 41 H -0.364528 -0.843201 2.258461 0
M  V30 42 H 0.140767 0.943913 -0.938085 0
M  V30 43 H -0.926120 3.005359 -1.545725 0
M  V30 44 H -2.680516 3.238462 2.347004 0
M  V30 45 H -2.675042 -0.776195 1.007495 0
M  V30 46 H -4.032228 -0.321126 -1.824537 0
M  V30 47 H -6.069954 -1.335336 -2.803327 0
M  V30 48 H -7.784411 -3.557406 -2.606289 0
M  V30 49 H -5.888093 -5.622027 0.547954 0
M  V30 50 H -3.785552 -3.687934 0.895985 0
M  V30 51 H 0.437619 -3.731503 -1.427940 0
M  V30 52 H 1.935498 -3.022147 -2.018065 0
M  V30 53 H 0.380434 -2.283294 -2.571086 0
M  V30 54 H 3.122782 -1.800772 -0.582113 0
M  V30 55 H 3.026313 0.998465 3.097133 0
M  V30 END ATOM
M  V30 BEGIN BOND
M  V30 1 1 1 2
M  V30 2 1 2 3
M  V30 3 2 3 4
M  V30 4 1 4 5
M  V30 5 2 5 6
M  V30 6 1 6 7
M  V30 7 2 7 8
M  V30 8 1 8 9
M  V30 9 1 9 10
M  V30 10 2 10 11
M  V30 11 1 11 12
M  V30 12 2 12 13
M  V30 13 1 13 14
M  V30 14 1 13 15
M  V30 15 2 15 16
M  V30 16 1 16 17
M  V30 17 1 9 18
M  V30 18 1 18 19
M  V30 19 2 19 20
M  V30 20 1 19 21
M  V30 21 1 21 22
M  V30 22 2 22 23
M  V30 23 1 23 24
M  V30 24 2 24 25
M  V30 25 1 25 26
M  V30 26 1 26 27
M  V30 27 2 27 28
M  V30 28 1 28 29
M  V30 29 2 29 30
M  V30 30 2 18 31
M  V30 31 1 31 32
M  V30 32 1 31 33
M  V30 33 1 6 34
M  V30 34 2 34 35
M  V30 35 1 35 3
M  V30 36 1 33 7
M  V30 37 1 16 10
M  V30 38 1 30 22
M  V30 39 1 29 25
M  V30 40 1 1 36
M  V30 41 1 1 37
M  V30 42 1 1 38
M  V30 43 1 4 39
M  V30 44 1 5 40
M  V30 45 1 9 41
M  V30 46 1 11 42
M  V30 47 1 12 43
M  V30 48 1 15 44
M  V30 49 1 21 45
M  V30 50 1 23 46
M  V30 51 1 24 47
M  V30 52 1 26 48
M  V30 53 1 28 49
M  V30 54 1 30 50
M  V30 55 1 32 51
M  V30 56 1 32 52
M  V30 57 1 32 53
M  V30 58 1 33 54
M  V30 59 1 34 55
M  V30 END BOND
M  V30 END CTAB
M  END
>  <Dataset>  (752) 
ChEMBL_Kinases

>  <Ligand_Instance>  (752) 
nan

>  <PDB_ID>  (752) 
nan

>  <Standardized_SMILES>  (752) 
COc1ccc(C2=NC(c3ccc(Cl)cc3F)C(C(=O)Nc3ccc4[nH]ncc4c3)=C(C)N2)cn1

>  <Name>  (752) 
nan

>  <Pocket>  (752) 
nan

>  <ATP_Site>  (752) 
nan

>  <Peripheral>  (752) 
nan

>  <Num_H_Atoms_ProtBoundConf>  (752) 
nan

>  <Num_Resolved_Atoms>  (752) 
nan

>  <Num_Not_Resolved_Atoms>  (752) 
nan

$$$$
CHEMBL483575
     RDKit          3D

  0  0  0  0  0  0  0  0  0  0999 V3000
M  V30 BEGIN CTAB
M  V30 COUNTS 61 65 0 0 0
M  V30 BEGIN ATOM
M  V30 1 C 6.446283 1.293177 6.000845 0
M  V30 2 O 6.101354 -0.005963 5.562566 0
M  V30 3 C 5.156993 -0.234168 4.569931 0
M  V30 4 C 4.425198 0.728369 3.871807 0
M  V30 5 C 3.525532 0.303925 2.913373 0
M  V30 6 C 3.308259 -1.024683 2.605485 0
M  V30 7 C 2.334979 -1.369722 1.575383 0
M  V30 8 N 1.690820 -0.475620 0.963400 0
M  V30 9 C 0.715943 -0.503482 -0.047891 0
M  V30 10 C -0.536617 0.133365 0.444647 0
M  V30 11 C -1.330390 1.134506 -0.071463 0
M  V30 12 C -2.465279 1.516829 0.610100 0
M  V30 13 C -2.834417 0.926067 1.800210 0
M  V30 14 S -4.288586 1.460030 2.613106 0
M  V30 15 N -4.018021 2.731692 3.721083 0
M  V30 16 O -5.227257 1.970675 1.557161 0
M  V30 17 O -4.903797 0.284600 3.310337 0
M  V30 18 C -2.066519 -0.065906 2.332158 0
M  V30 19 C -0.911289 -0.465542 1.652098 0
M  V30 20 C 0.454940 -1.942017 -0.426591 0
M  V30 21 C -0.542191 -2.006895 -1.481213 0
M  V30 22 O -1.106638 -0.977954 -2.004286 0
M  V30 23 N -1.236423 -2.952356 -2.277649 0
M  V30 24 C -2.163829 -2.438989 -3.220585 0
M  V30 25 C -3.467567 -2.259584 -2.818251 0
M  V30 26 C -4.469004 -1.765318 -3.646090 0
M  V30 27 C -4.105248 -1.441065 -4.952241 0
M  V30 28 N -4.824432 -0.949023 -5.984069 0
M  V30 29 N -4.017280 -0.812074 -7.024227 0
M  V30 30 C -2.765894 -1.200655 -6.720263 0
M  V30 31 C -2.799726 -1.606155 -5.401633 0
M  V30 32 C -1.835198 -2.107937 -4.522150 0
M  V30 33 C 1.090147 -2.935305 0.170679 0
M  V30 34 C 0.779436 -4.300035 -0.254339 0
M  V30 35 N 2.052020 -2.695858 1.191354 0
M  V30 36 C 4.024979 -1.986792 3.288003 0
M  V30 37 C 4.926468 -1.565362 4.248168 0
M  V30 38 H 5.763780 1.718608 6.747830 0
M  V30 39 H 7.445254 1.201848 6.482129 0
M  V30 40 H 6.574233 2.007726 5.163312 0
M  V30 41 H 4.629007 1.740100 4.146043 0
M  V30 42 H 3.002731 1.133188 2.423585 0
M  V30 43 H 1.131324 0.009922 -0.942833 0
M  V30 44 H -0.924779 1.512660 -0.993949 0
M  V30 45 H -3.029864 2.305319 0.138881 0
M  V30 46 H -4.469729 2.490988 4.639898 0
M  V30 47 H -2.977954 2.849398 3.838531 0
M  V30 48 H -2.398812 -0.492616 3.261588 0
M  V30 49 H -0.395456 -1.270507 2.197296 0
M  V30 50 H -0.945347 -3.923638 -2.036200 0
M  V30 51 H -3.793341 -2.498866 -1.811691 0
M  V30 52 H -5.488643 -1.629105 -3.318371 0
M  V30 53 H -5.846894 -0.720849 -5.947625 0
M  V30 54 H -1.888876 -1.198519 -7.382446 0
M  V30 55 H -0.812202 -2.243048 -4.855949 0
M  V30 56 H 1.131861 -4.495501 -1.296177 0
M  V30 57 H -0.219725 -4.671050 -0.010700 0
M  V30 58 H 1.467358 -4.972482 0.351712 0
M  V30 59 H 2.535566 -3.500832 1.642797 0
M  V30 60 H 3.891826 -3.040249 3.084331 0
M  V30 61 H 5.473119 -2.367887 4.764487 0
M  V30 END ATOM
M  V30 BEGIN BOND
M  V30 1 1 1 2
M  V30 2 1 2 3
M  V30 3 2 3 4
M  V30 4 1 4 5
M  V30 5 2 5 6
M  V30 6 1 6 7
M  V30 7 2 7 8
M  V30 8 1 8 9
M  V30 9 1 9 10
M  V30 10 2 10 11
M  V30 11 1 11 12
M  V30 12 2 12 13
M  V30 13 1 13 14
M  V30 14 1 14 15
M  V30 15 2 14 16
M  V30 16 2 14 17
M  V30 17 1 13 18
M  V30 18 2 18 19
M  V30 19 1 9 20
M  V30 20 1 20 21
M  V30 21 2 21 22
M  V30 22 1 21 23
M  V30 23 1 23 24
M  V30 24 2 24 25
M  V30 25 1 25 26
M  V30 26 2 26 27
M  V30 27 1 27 28
M  V30 28 1 28 29
M  V30 29 2 29 30
M  V30 30 1 30 31
M  V30 31 2 31 32
M  V30 32 2 20 33
M  V30 33 1 33 34
M  V30 34 1 33 35
M  V30 35 1 6 36
M  V30 36 2 36 37
M  V30 37 1 37 3
M  V30 38 1 35 7
M  V30 39 1 19 10
M  V30 40 1 32 24
M  V30 41 1 31 27
M  V30 42 1 1 38
M  V30 43 1 1 39
M  V30 44 1 1 40
M  V30 45 1 4 41
M  V30 46 1 5 42
M  V30 47 1 9 43
M  V30 48 1 11 44
M  V30 49 1 12 45
M  V30 50 1 15 46
M  V30 51 1 15 47
M  V30 52 1 18 48
M  V30 53 1 19 49
M  V30 54 1 23 50
M  V30 55 1 25 51
M  V30 56 1 26 52
M  V30 57 1 28 53
M  V30 58 1 30 54
M  V30 59 1 32 55
M  V30 60 1 34 56
M  V30 61 1 34 57
M  V30 62 1 34 58
M  V30 63 1 35 59
M  V30 64 1 36 60
M  V30 65 1 37 61
M  V30 END BOND
M  V30 END CTAB
M  END
>  <Dataset>  (753) 
ChEMBL_Kinases

>  <Ligand_Instance>  (753) 
nan

>  <PDB_ID>  (753) 
nan

>  <Standardized_SMILES>  (753) 
COc1ccc(C2=NC(c3ccc(S(N)(=O)=O)cc3)C(C(=O)Nc3ccc4[nH]ncc4c3)=C(C)N2)cc1

>  <Name>  (753) 
nan

>  <Pocket>  (753) 
nan

>  <ATP_Site>  (753) 
nan

>  <Peripheral>  (753) 
nan

>  <Num_H_Atoms_ProtBoundConf>  (753) 
nan

>  <Num_Resolved_Atoms>  (753) 
nan

>  <Num_Not_Resolved_Atoms>  (753) 
nan

$$$$
CHEMBL483611
     RDKit          3D

  0  0  0  0  0  0  0  0  0  0999 V3000
M  V30 BEGIN CTAB
M  V30 COUNTS 61 66 0 0 0
M  V30 BEGIN ATOM
M  V30 1 O 0.323875 3.557821 2.913088 0
M  V30 2 C -0.529599 2.674304 3.077650 0
M  V30 3 N -1.787809 2.746774 3.774069 0
M  V30 4 C -2.407808 1.476158 3.686111 0
M  V30 5 O -3.509584 1.377042 4.242201 0
M  V30 6 C -1.599569 0.541879 2.945809 0
M  V30 7 C -0.496319 1.280725 2.599944 0
M  V30 8 C 0.522918 0.678134 1.856676 0
M  V30 9 C 1.714497 1.424534 1.469103 0
M  V30 10 C 1.787289 2.135932 0.280773 0
M  V30 11 Cl 0.359548 2.082667 -0.713387 0
M  V30 12 C 2.944255 2.819452 -0.028748 0
M  V30 13 C 4.037350 2.833039 0.784471 0
M  V30 14 C 3.977212 2.124539 1.977552 0
M  V30 15 C 2.823562 1.431217 2.306692 0
M  V30 16 Cl 2.846601 0.569008 3.831869 0
M  V30 17 C 0.362190 -0.638232 1.508372 0
M  V30 18 C -0.743467 -1.384803 1.852593 0
M  V30 19 C -1.719419 -0.764509 2.578921 0
M  V30 20 C -2.685974 -1.673745 2.804491 0
M  V30 21 C -3.893225 -1.731544 3.435802 0
M  V30 22 C -4.689691 -2.847980 3.503145 0
M  V30 23 O -5.930832 -2.895553 4.155939 0
M  V30 24 C -4.267026 -4.028070 2.893398 0
M  V30 25 C -3.030042 -3.965503 2.247588 0
M  V30 26 C -2.238001 -2.824879 2.190438 0
M  V30 27 N -1.018962 -2.652899 1.589441 0
M  V30 28 C -0.349064 -3.710317 0.903875 0
M  V30 29 C -0.693898 -3.891665 -0.525687 0
M  V30 30 C -0.416003 -2.772448 -1.454255 0
M  V30 31 C 0.987002 -2.390850 -1.565578 0
M  V30 32 O 1.992607 -2.865564 -0.942426 0
M  V30 33 N 1.246444 -1.349954 -2.497983 0
M  V30 34 C 0.254290 -0.652282 -3.332546 0
M  V30 35 C 0.701430 -0.957911 -4.769106 0
M  V30 36 O 1.994028 -0.499230 -4.984762 0
M  V30 37 C 2.903640 -1.182582 -4.178411 0
M  V30 38 C 2.579641 -0.832699 -2.746559 0
M  V30 39 H -2.060436 3.655468 4.219622 0
M  V30 40 H 2.917315 3.344556 -0.967844 0
M  V30 41 H 4.924573 3.376265 0.513806 0
M  V30 42 H 4.863536 2.164743 2.586079 0
M  V30 43 H 1.147922 -1.075637 0.953637 0
M  V30 44 H -4.330801 -0.907598 3.938293 0
M  V30 45 H -6.516010 -2.066368 4.012756 0
M  V30 46 H -4.861067 -4.922844 2.923479 0
M  V30 47 H -2.751998 -4.907946 1.792797 0
M  V30 48 H 0.769014 -3.568200 0.945424 0
M  V30 49 H -0.491317 -4.706679 1.413830 0
M  V30 50 H -1.775572 -4.224466 -0.599215 0
M  V30 51 H -0.150349 -4.796988 -0.936717 0
M  V30 52 H -0.743851 -3.107455 -2.472064 0
M  V30 53 H -1.063795 -1.870466 -1.260247 0
M  V30 54 H 0.400216 0.420802 -3.202788 0
M  V30 55 H -0.761903 -1.026494 -3.196144 0
M  V30 56 H 0.598716 -2.053269 -4.914089 0
M  V30 57 H 0.048118 -0.421893 -5.496059 0
M  V30 58 H 2.664519 -2.274674 -4.333818 0
M  V30 59 H 3.937839 -0.997074 -4.468775 0
M  V30 60 H 3.316740 -1.204095 -2.012852 0
M  V30 61 H 2.538689 0.269691 -2.674243 0
M  V30 END ATOM
M  V30 BEGIN BOND
M  V30 1 2 1 2
M  V30 2 1 2 3
M  V30 3 1 3 4
M  V30 4 2 4 5
M  V30 5 1 4 6
M  V30 6 2 6 7
M  V30 7 1 7 8
M  V30 8 1 8 9
M  V30 9 2 9 10
M  V30 10 1 10 11
M  V30 11 1 10 12
M  V30 12 2 12 13
M  V30 13 1 13 14
M  V30 14 2 14 15
M  V30 15 1 15 16
M  V30 16 2 8 17
M  V30 17 1 17 18
M  V30 18 2 18 19
M  V30 19 1 19 20
M  V30 20 2 20 21
M  V30 21 1 21 22
M  V30 22 1 22 23
M  V30 23 2 22 24
M  V30 24 1 24 25
M  V30 25 2 25 26
M  V30 26 1 26 27
M  V30 27 1 27 28
M  V30 28 1 28 29
M  V30 29 1 29 30
M  V30 30 1 30 31
M  V30 31 2 31 32
M  V30 32 1 31 33
M  V30 33 1 33 34
M  V30 34 1 34 35
M  V30 35 1 35 36
M  V30 36 1 36 37
M  V30 37 1 37 38
M  V30 38 1 7 2
M  V30 39 1 15 9
M  V30 40 1 27 18
M  V30 41 1 38 33
M  V30 42 1 19 6
M  V30 43 1 26 20
M  V30 44 1 3 39
M  V30 45 1 12 40
M  V30 46 1 13 41
M  V30 47 1 14 42
M  V30 48 1 17 43
M  V30 49 1 21 44
M  V30 50 1 23 45
M  V30 51 1 24 46
M  V30 52 1 25 47
M  V30 53 1 28 48
M  V30 54 1 28 49
M  V30 55 1 29 50
M  V30 56 1 29 51
M  V30 57 1 30 52
M  V30 58 1 30 53
M  V30 59 1 34 54
M  V30 60 1 34 55
M  V30 61 1 35 56
M  V30 62 1 35 57
M  V30 63 1 37 58
M  V30 64 1 37 59
M  V30 65 1 38 60
M  V30 66 1 38 61
M  V30 END BOND
M  V30 END CTAB
M  END
>  <Dataset>  (754) 
ChEMBL_Kinases

>  <Ligand_Instance>  (754) 
nan

>  <PDB_ID>  (754) 
nan

>  <Standardized_SMILES>  (754) 
O=C1NC(=O)c2c1c(-c1c(Cl)cccc1Cl)cc1c2c2cc(O)ccc2n1CCCC(=O)N1CCOCC1

>  <Name>  (754) 
nan

>  <Pocket>  (754) 
nan

>  <ATP_Site>  (754) 
nan

>  <Peripheral>  (754) 
nan

>  <Num_H_Atoms_ProtBoundConf>  (754) 
nan

>  <Num_Resolved_Atoms>  (754) 
nan

>  <Num_Not_Resolved_Atoms>  (754) 
nan

$$$$
CHEMBL483669
     RDKit          3D

  0  0  0  0  0  0  0  0  0  0999 V3000
M  V30 BEGIN CTAB
M  V30 COUNTS 44 48 0 0 0
M  V30 BEGIN ATOM
M  V30 1 C -2.855790 -5.097775 0.527324 0
M  V30 2 O -1.671746 -5.464239 -0.195622 0
M  V30 3 C -0.622447 -4.532023 -0.141470 0
M  V30 4 C -0.647235 -3.344233 0.525421 0
M  V30 5 C 0.408366 -2.465949 0.546580 0
M  V30 6 C 0.583120 -1.218438 1.150225 0
M  V30 7 C -0.369572 -0.475005 2.001310 0
M  V30 8 C -0.559055 0.820222 1.816426 0
M  V30 9 C 0.041709 1.721049 0.854859 0
M  V30 10 C 0.189394 1.274458 -0.440600 0
M  V30 11 O 0.758816 2.254588 -1.144256 0
M  V30 12 C 0.981116 3.287886 -0.381731 0
M  V30 13 C 1.548769 4.534424 -0.653904 0
M  V30 14 C 1.617351 5.381529 0.427300 0
M  V30 15 C 1.186610 5.107537 1.708637 0
M  V30 16 C 0.626262 3.855967 1.942165 0
M  V30 17 C 0.544267 2.995764 0.890854 0
M  V30 18 C -1.545213 1.276382 2.785839 0
M  V30 19 O -2.111855 2.372230 3.081915 0
M  V30 20 N -1.958775 0.188244 3.589754 0
M  V30 21 C -1.220849 -0.950613 3.110105 0
M  V30 22 O -1.267173 -2.129056 3.529389 0
M  V30 23 C 1.863031 -0.788900 0.818733 0
M  V30 24 N 2.420430 -1.739411 0.053780 0
M  V30 25 C 3.757104 -1.675702 -0.503825 0
M  V30 26 C 1.566836 -2.771136 -0.131889 0
M  V30 27 C 1.657141 -3.976599 -0.837329 0
M  V30 28 C 0.554747 -4.840587 -0.829550 0
M  V30 29 Cl 0.697889 -6.330496 -1.715458 0
M  V30 30 H -2.539050 -4.856782 1.582015 0
M  V30 31 H -3.155822 -4.114859 0.109651 0
M  V30 32 H -3.614628 -5.874279 0.517528 0
M  V30 33 H -1.564435 -3.135681 1.038094 0
M  V30 34 H -0.003867 0.409881 -1.046947 0
M  V30 35 H 1.894868 4.784274 -1.636112 0
M  V30 36 H 2.064162 6.361410 0.208753 0
M  V30 37 H 1.253173 5.782235 2.523946 0
M  V30 38 H 0.278526 3.573907 2.915917 0
M  V30 39 H -2.636488 0.053225 4.395186 0
M  V30 40 H 2.350036 0.132625 1.107407 0
M  V30 41 H 3.887534 -0.713381 -1.081435 0
M  V30 42 H 4.457064 -1.586099 0.358628 0
M  V30 43 H 3.985350 -2.551243 -1.135893 0
M  V30 44 H 2.568216 -4.206172 -1.364131 0
M  V30 END ATOM
M  V30 BEGIN BOND
M  V30 1 1 1 2
M  V30 2 1 2 3
M  V30 3 2 3 4
M  V30 4 1 4 5
M  V30 5 1 5 6
M  V30 6 1 6 7
M  V30 7 2 7 8
M  V30 8 1 8 9
M  V30 9 2 9 10
M  V30 10 1 10 11
M  V30 11 1 11 12
M  V30 12 2 12 13
M  V30 13 1 13 14
M  V30 14 2 14 15
M  V30 15 1 15 16
M  V30 16 2 16 17
M  V30 17 1 8 18
M  V30 18 2 18 19
M  V30 19 1 18 20
M  V30 20 1 20 21
M  V30 21 2 21 22
M  V30 22 2 6 23
M  V30 23 1 23 24
M  V30 24 1 24 25
M  V30 25 1 24 26
M  V30 26 1 26 27
M  V30 27 2 27 28
M  V30 28 1 28 29
M  V30 29 1 28 3
M  V30 30 2 26 5
M  V30 31 1 21 7
M  V30 32 1 17 9
M  V30 33 1 17 12
M  V30 34 1 1 30
M  V30 35 1 1 31
M  V30 36 1 1 32
M  V30 37 1 4 33
M  V30 38 1 10 34
M  V30 39 1 13 35
M  V30 40 1 14 36
M  V30 41 1 15 37
M  V30 42 1 16 38
M  V30 43 1 20 39
M  V30 44 1 23 40
M  V30 45 1 25 41
M  V30 46 1 25 42
M  V30 47 1 25 43
M  V30 48 1 27 44
M  V30 END BOND
M  V30 END CTAB
M  END
>  <Dataset>  (755) 
ChEMBL_Kinases

>  <Ligand_Instance>  (755) 
nan

>  <PDB_ID>  (755) 
nan

>  <Standardized_SMILES>  (755) 
COc1cc2c(C3=C(c4coc5ccccc45)C(=O)NC3=O)cn(C)c2cc1Cl

>  <Name>  (755) 
nan

>  <Pocket>  (755) 
nan

>  <ATP_Site>  (755) 
nan

>  <Peripheral>  (755) 
nan

>  <Num_H_Atoms_ProtBoundConf>  (755) 
nan

>  <Num_Resolved_Atoms>  (755) 
nan

>  <Num_Not_Resolved_Atoms>  (755) 
nan

$$$$
CHEMBL483747
     RDKit          3D

  0  0  0  0  0  0  0  0  0  0999 V3000
M  V30 BEGIN CTAB
M  V30 COUNTS 46 49 0 0 0
M  V30 BEGIN ATOM
M  V30 1 N 3.588381 -4.482263 1.764271 0
M  V30 2 S 4.215879 -3.415615 0.537725 0
M  V30 3 O 5.214084 -2.516998 1.213926 0
M  V30 4 O 4.788585 -4.165383 -0.601467 0
M  V30 5 C 2.835068 -2.429468 0.033093 0
M  V30 6 C 2.089636 -2.956344 -1.024985 0
M  V30 7 C 1.003737 -2.227057 -1.456141 0
M  V30 8 C 0.680877 -1.022469 -0.851709 0
M  V30 9 C 1.456497 -0.531203 0.206983 0
M  V30 10 C 1.042296 0.749106 0.785837 0
M  V30 11 C 2.030672 1.682944 1.031803 0
M  V30 12 C 1.687998 2.902764 1.576220 0
M  V30 13 C 2.686828 3.836269 1.820630 0
M  V30 14 C 2.288797 5.055120 2.372219 0
M  V30 15 N 1.002607 5.306352 2.650366 0
M  V30 16 C 0.020617 4.412411 2.419797 0
M  V30 17 C 0.372693 3.194406 1.874829 0
M  V30 18 C -0.621513 2.268845 1.633033 0
M  V30 19 C -0.296052 1.033733 1.084730 0
M  V30 20 O -1.169760 0.008591 0.785864 0
M  V30 21 C -2.551144 0.005531 0.973276 0
M  V30 22 C -3.096617 -1.311742 0.510440 0
M  V30 23 C -3.151948 -2.302293 1.490447 0
M  V30 24 C -3.645797 -3.553818 1.141997 0
M  V30 25 C -4.080740 -3.840640 -0.142100 0
M  V30 26 C -4.012445 -2.837808 -1.088305 0
M  V30 27 C -3.527042 -1.586059 -0.771733 0
M  V30 28 C 2.550864 -1.251913 0.652080 0
M  V30 29 H 2.913231 -4.001854 2.375278 0
M  V30 30 H 4.319363 -5.023723 2.240964 0
M  V30 31 H 2.358131 -3.907355 -1.490002 0
M  V30 32 H 0.427363 -2.636799 -2.275997 0
M  V30 33 H -0.189700 -0.543126 -1.275499 0
M  V30 34 H 3.075478 1.472731 0.803350 0
M  V30 35 H 3.729909 3.666855 1.609062 0
M  V30 36 H 3.042449 5.823987 2.582952 0
M  V30 37 H -1.011262 4.643767 2.655108 0
M  V30 38 H -1.679976 2.424964 1.841275 0
M  V30 39 H -2.976917 0.764302 0.284695 0
M  V30 40 H -2.876326 0.215007 2.009384 0
M  V30 41 H -2.825010 -2.140695 2.520410 0
M  V30 42 H -3.685201 -4.328368 1.922760 0
M  V30 43 H -4.467499 -4.831651 -0.401954 0
M  V30 44 H -4.346339 -3.029573 -2.108156 0
M  V30 45 H -3.455865 -0.768747 -1.484805 0
M  V30 46 H 3.133410 -0.871190 1.455950 0
M  V30 END ATOM
M  V30 BEGIN BOND
M  V30 1 1 1 2
M  V30 2 2 2 3
M  V30 3 2 2 4
M  V30 4 1 2 5
M  V30 5 2 5 6
M  V30 6 1 6 7
M  V30 7 2 7 8
M  V30 8 1 8 9
M  V30 9 1 9 10
M  V30 10 2 10 11
M  V30 11 1 11 12
M  V30 12 2 12 13
M  V30 13 1 13 14
M  V30 14 2 14 15
M  V30 15 1 15 16
M  V30 16 2 16 17
M  V30 17 1 17 18
M  V30 18 2 18 19
M  V30 19 1 19 20
M  V30 20 1 20 21
M  V30 21 1 21 22
M  V30 22 2 22 23
M  V30 23 1 23 24
M  V30 24 2 24 25
M  V30 25 1 25 26
M  V30 26 2 26 27
M  V30 27 2 9 28
M  V30 28 1 28 5
M  V30 29 1 19 10
M  V30 30 1 27 22
M  V30 31 1 17 12
M  V30 32 1 1 29
M  V30 33 1 1 30
M  V30 34 1 6 31
M  V30 35 1 7 32
M  V30 36 1 8 33
M  V30 37 1 11 34
M  V30 38 1 13 35
M  V30 39 1 14 36
M  V30 40 1 16 37
M  V30 41 1 18 38
M  V30 42 1 21 39
M  V30 43 1 21 40
M  V30 44 1 23 41
M  V30 45 1 24 42
M  V30 46 1 25 43
M  V30 47 1 26 44
M  V30 48 1 27 45
M  V30 49 1 28 46
M  V30 END BOND
M  V30 END CTAB
M  END
>  <Dataset>  (756) 
ChEMBL_Kinases

>  <Ligand_Instance>  (756) 
nan

>  <PDB_ID>  (756) 
nan

>  <Standardized_SMILES>  (756) 
NS(=O)(=O)c1cccc(-c2cc3ccncc3cc2OCc2ccccc2)c1

>  <Name>  (756) 
GSK-980961A

>  <Pocket>  (756) 
nan

>  <ATP_Site>  (756) 
nan

>  <Peripheral>  (756) 
nan

>  <Num_H_Atoms_ProtBoundConf>  (756) 
nan

>  <Num_Resolved_Atoms>  (756) 
nan

>  <Num_Not_Resolved_Atoms>  (756) 
nan

$$$$
CHEMBL483748
     RDKit          3D

  0  0  0  0  0  0  0  0  0  0999 V3000
M  V30 BEGIN CTAB
M  V30 COUNTS 46 49 0 0 0
M  V30 BEGIN ATOM
M  V30 1 N 0.901717 -4.555723 5.957292 0
M  V30 2 S 2.038443 -4.461068 4.677125 0
M  V30 3 O 3.401006 -4.339232 5.303604 0
M  V30 4 O 2.045186 -5.753888 3.912353 0
M  V30 5 C 1.738101 -3.100021 3.604135 0
M  V30 6 C 2.349500 -1.896393 3.903439 0
M  V30 7 C 2.189445 -0.759766 3.136574 0
M  V30 8 C 1.372019 -0.870172 2.025566 0
M  V30 9 C 1.088393 0.246044 1.092410 0
M  V30 10 C 2.314557 0.877925 0.823359 0
M  V30 11 C 2.341588 1.972704 -0.034891 0
M  V30 12 C 3.477490 2.673748 -0.375520 0
M  V30 13 C 3.359365 3.757879 -1.252425 0
M  V30 14 N 2.187527 4.151360 -1.781539 0
M  V30 15 C 1.036290 3.487466 -1.473061 0
M  V30 16 C 1.174955 2.425639 -0.609906 0
M  V30 17 C 0.012742 1.762764 -0.304229 0
M  V30 18 C -0.120974 0.690609 0.515747 0
M  V30 19 O -1.047158 -0.156558 1.011385 0
M  V30 20 C -2.401104 -0.128962 0.726030 0
M  V30 21 C -2.778970 -0.341384 -0.680834 0
M  V30 22 C -3.098782 0.466105 -1.745418 0
M  V30 23 C -3.398516 -0.011598 -2.991929 0
M  V30 24 C -3.399311 -1.359215 -3.264223 0
M  V30 25 C -3.088789 -2.207971 -2.241222 0
M  V30 26 C -2.786697 -1.714664 -0.983611 0
M  V30 27 C 0.758713 -2.068334 1.720957 0
M  V30 28 C 0.916720 -3.209098 2.486863 0
M  V30 29 H 0.764253 -3.627769 6.388057 0
M  V30 30 H 0.055015 -5.100349 5.753297 0
M  V30 31 H 2.990553 -1.821655 4.780338 0
M  V30 32 H 2.644752 0.195150 3.331662 0
M  V30 33 H 3.301629 0.652619 1.185537 0
M  V30 34 H 4.414364 2.353873 0.051694 0
M  V30 35 H 4.303442 4.260718 -1.472572 0
M  V30 36 H 0.081648 3.780015 -1.882033 0
M  V30 37 H -0.955190 2.032475 -0.685840 0
M  V30 38 H -2.818124 0.896684 1.015744 0
M  V30 39 H -2.998537 -0.827875 1.358534 0
M  V30 40 H -3.088388 1.499599 -1.450555 0
M  V30 41 H -3.622831 0.803674 -3.690455 0
M  V30 42 H -3.655337 -1.574792 -4.290598 0
M  V30 43 H -3.101021 -3.257723 -2.496988 0
M  V30 44 H -2.563059 -2.530295 -0.287362 0
M  V30 45 H 0.101894 -2.209993 0.853344 0
M  V30 46 H 0.449776 -4.149022 2.268068 0
M  V30 END ATOM
M  V30 BEGIN BOND
M  V30 1 1 1 2
M  V30 2 2 2 3
M  V30 3 2 2 4
M  V30 4 1 2 5
M  V30 5 2 5 6
M  V30 6 1 6 7
M  V30 7 2 7 8
M  V30 8 1 8 9
M  V30 9 2 9 10
M  V30 10 1 10 11
M  V30 11 2 11 12
M  V30 12 1 12 13
M  V30 13 2 13 14
M  V30 14 1 14 15
M  V30 15 2 15 16
M  V30 16 1 16 17
M  V30 17 2 17 18
M  V30 18 1 18 19
M  V30 19 1 19 20
M  V30 20 1 20 21
M  V30 21 2 21 22
M  V30 22 1 22 23
M  V30 23 2 23 24
M  V30 24 1 24 25
M  V30 25 2 25 26
M  V30 26 1 8 27
M  V30 27 2 27 28
M  V30 28 1 28 5
M  V30 29 1 18 9
M  V30 30 1 26 21
M  V30 31 1 16 11
M  V30 32 1 1 29
M  V30 33 1 1 30
M  V30 34 1 6 31
M  V30 35 1 7 32
M  V30 36 1 10 33
M  V30 37 1 12 34
M  V30 38 1 13 35
M  V30 39 1 15 36
M  V30 40 1 17 37
M  V30 41 1 20 38
M  V30 42 1 20 39
M  V30 43 1 22 40
M  V30 44 1 23 41
M  V30 45 1 24 42
M  V30 46 1 25 43
M  V30 47 1 26 44
M  V30 48 1 27 45
M  V30 49 1 28 46
M  V30 END BOND
M  V30 END CTAB
M  END
>  <Dataset>  (757) 
ChEMBL_Kinases

>  <Ligand_Instance>  (757) 
nan

>  <PDB_ID>  (757) 
nan

>  <Standardized_SMILES>  (757) 
NS(=O)(=O)c1ccc(-c2cc3ccncc3cc2OCc2ccccc2)cc1

>  <Name>  (757) 
GSK-953913A

>  <Pocket>  (757) 
nan

>  <ATP_Site>  (757) 
nan

>  <Peripheral>  (757) 
nan

>  <Num_H_Atoms_ProtBoundConf>  (757) 
nan

>  <Num_Resolved_Atoms>  (757) 
nan

>  <Num_Not_Resolved_Atoms>  (757) 
nan

$$$$
CHEMBL4091719
     RDKit          3D

  0  0  0  0  0  0  0  0  0  0999 V3000
M  V30 BEGIN CTAB
M  V30 COUNTS 33 36 0 0 0
M  V30 BEGIN ATOM
M  V30 1 O 2.297941 -6.118206 -0.617230 0
M  V30 2 C 1.679486 -5.381764 0.197957 0
M  V30 3 N 1.249246 -5.821759 1.478332 0
M  V30 4 C 0.609756 -4.687638 2.042149 0
M  V30 5 O 0.054056 -4.559678 3.174393 0
M  V30 6 N 0.635390 -3.577949 1.154349 0
M  V30 7 C 1.284059 -3.987285 0.027387 0
M  V30 8 C 1.509637 -3.184073 -1.072726 0
M  V30 9 C 1.024598 -1.886271 -0.972830 0
M  V30 10 C 1.220092 -1.038610 -2.039754 0
M  V30 11 C 0.766366 0.273519 -2.019794 0
M  V30 12 C 0.104028 0.722885 -0.892611 0
M  V30 13 O -0.348485 2.037668 -0.877312 0
M  V30 14 C -1.018008 2.518838 0.241879 0
M  V30 15 C -0.198628 3.097619 1.217451 0
M  V30 16 C -0.663892 3.635446 2.403842 0
M  V30 17 C -2.024213 3.569132 2.580987 0
M  V30 18 C -2.886125 3.011891 1.658380 0
M  V30 19 C -2.384324 2.486083 0.487797 0
M  V30 20 C -0.110904 -0.110722 0.206745 0
M  V30 21 C 0.361641 -1.423711 0.145843 0
M  V30 22 C 0.193469 -2.315399 1.185358 0
M  V30 23 O -0.412268 -1.909256 2.219817 0
M  V30 24 H 1.331746 -6.733941 1.979227 0
M  V30 25 H 2.028313 -3.551125 -1.944087 0
M  V30 26 H 1.740890 -1.372621 -2.940522 0
M  V30 27 H 0.951861 0.894346 -2.894720 0
M  V30 28 H 0.892760 3.150719 1.075104 0
M  V30 29 H 0.026230 4.068885 3.116969 0
M  V30 30 H -2.430484 3.978867 3.496642 0
M  V30 31 H -3.957897 2.968807 1.816352 0
M  V30 32 H -2.958034 2.032437 -0.292496 0
M  V30 33 H -0.627323 0.230793 1.092228 0
M  V30 END ATOM
M  V30 BEGIN BOND
M  V30 1 2 1 2
M  V30 2 1 2 3
M  V30 3 1 3 4
M  V30 4 2 4 5
M  V30 5 1 4 6
M  V30 6 1 6 7
M  V30 7 2 7 8
M  V30 8 1 8 9
M  V30 9 2 9 10
M  V30 10 1 10 11
M  V30 11 2 11 12
M  V30 12 1 12 13
M  V30 13 1 13 14
M  V30 14 2 14 15
M  V30 15 1 15 16
M  V30 16 2 16 17
M  V30 17 1 17 18
M  V30 18 2 18 19
M  V30 19 1 12 20
M  V30 20 2 20 21
M  V30 21 1 21 22
M  V30 22 2 22 23
M  V30 23 1 7 2
M  V30 24 1 21 9
M  V30 25 1 22 6
M  V30 26 1 19 14
M  V30 27 1 3 24
M  V30 28 1 8 25
M  V30 29 1 10 26
M  V30 30 1 11 27
M  V30 31 1 15 28
M  V30 32 1 16 29
M  V30 33 1 17 30
M  V30 34 1 18 31
M  V30 35 1 19 32
M  V30 36 1 20 33
M  V30 END BOND
M  V30 END CTAB
M  END
>  <Dataset>  (758) 
ChEMBL_Kinases

>  <Ligand_Instance>  (758) 
nan

>  <PDB_ID>  (758) 
nan

>  <Standardized_SMILES>  (758) 
O=C1NC(=O)n2c1cc1ccc(Oc3ccccc3)cc1c2=O

>  <Name>  (758) 
nan

>  <Pocket>  (758) 
nan

>  <ATP_Site>  (758) 
nan

>  <Peripheral>  (758) 
nan

>  <Num_H_Atoms_ProtBoundConf>  (758) 
nan

>  <Num_Resolved_Atoms>  (758) 
nan

>  <Num_Not_Resolved_Atoms>  (758) 
nan

$$$$
CHEMBL4276872
     RDKit          3D

  0  0  0  0  0  0  0  0  0  0999 V3000
M  V30 BEGIN CTAB
M  V30 COUNTS 56 60 0 0 0
M  V30 BEGIN ATOM
M  V30 1 C 1.103944 -3.420339 5.547348 0
M  V30 2 O 0.958766 -3.287827 4.146058 0
M  V30 3 C 1.435809 -2.195740 3.422961 0
M  V30 4 C 2.693499 -2.154821 2.881597 0
M  V30 5 F 3.514843 -3.214486 3.050241 0
M  V30 6 C 3.092380 -1.044231 2.181961 0
M  V30 7 C 2.279379 0.054332 1.990819 0
M  V30 8 C 2.603921 1.266008 1.272883 0
M  V30 9 C 3.659326 2.042774 1.717171 0
M  V30 10 N 4.007753 3.181762 1.087955 0
M  V30 11 C 3.353362 3.627904 -0.003085 0
M  V30 12 N 3.456289 4.688961 -0.825968 0
M  V30 13 C 2.511018 4.637725 -1.790299 0
M  V30 14 C 1.761779 3.515679 -1.603860 0
M  V30 15 C 2.288601 2.898681 -0.499006 0
M  V30 16 C 1.941086 1.733648 0.154008 0
M  V30 17 C 0.827337 0.915872 -0.315612 0
M  V30 18 C 1.092346 -0.371335 -0.736172 0
M  V30 19 C 0.081814 -1.188687 -1.190127 0
M  V30 20 C -1.236310 -0.794604 -1.257619 0
M  V30 21 N -2.297717 -1.614259 -1.725601 0
M  V30 22 C -3.709434 -1.313081 -1.720413 0
M  V30 23 C -4.558689 -2.323913 -1.011252 0
M  V30 24 N -4.164498 -3.683355 -1.145539 0
M  V30 25 C -4.488417 -4.366985 0.095301 0
M  V30 26 C -2.799730 -3.934665 -1.453860 0
M  V30 27 C -2.114654 -2.918169 -2.304486 0
M  V30 28 C -1.465243 0.494457 -0.830839 0
M  V30 29 C -0.483751 1.346844 -0.368859 0
M  V30 30 C 1.007265 -0.021828 2.555098 0
M  V30 31 C 0.582930 -1.125452 3.261889 0
M  V30 32 F -0.659394 -1.164171 3.795797 0
M  V30 33 H 2.105190 -3.031864 5.889533 0
M  V30 34 H 0.279885 -2.881207 6.045186 0
M  V30 35 H 1.096896 -4.514327 5.791901 0
M  V30 36 H 4.079120 -0.983068 1.743459 0
M  V30 37 H 4.210040 1.718370 2.589832 0
M  V30 38 H 4.181603 5.430380 -0.702972 0
M  V30 39 H 2.346984 5.349707 -2.591377 0
M  V30 40 H 0.920605 3.160668 -2.189712 0
M  V30 41 H 2.103266 -0.722782 -0.702041 0
M  V30 42 H 0.373137 -2.172239 -1.495929 0
M  V30 43 H -3.859988 -0.352719 -1.191979 0
M  V30 44 H -4.044551 -1.125196 -2.761945 0
M  V30 45 H -5.579234 -2.246563 -1.491258 0
M  V30 46 H -4.745491 -2.051613 0.049898 0
M  V30 47 H -5.048278 -3.691978 0.803640 0
M  V30 48 H -5.084794 -5.286793 -0.051971 0
M  V30 49 H -3.541763 -4.593111 0.649354 0
M  V30 50 H -2.227490 -4.149676 -0.514787 0
M  V30 51 H -2.773274 -4.901041 -2.033172 0
M  V30 52 H -1.054142 -3.228984 -2.397538 0
M  V30 53 H -2.615955 -2.914833 -3.307085 0
M  V30 54 H -2.428734 0.969912 -0.815189 0
M  V30 55 H -0.640723 2.356462 -0.031241 0
M  V30 56 H 0.295587 0.789935 2.459749 0
M  V30 END ATOM
M  V30 BEGIN BOND
M  V30 1 1 1 2
M  V30 2 1 2 3
M  V30 3 2 3 4
M  V30 4 1 4 5
M  V30 5 1 4 6
M  V30 6 2 6 7
M  V30 7 1 7 8
M  V30 8 2 8 9
M  V30 9 1 9 10
M  V30 10 2 10 11
M  V30 11 1 11 12
M  V30 12 1 12 13
M  V30 13 2 13 14
M  V30 14 1 14 15
M  V30 15 2 15 16
M  V30 16 1 16 17
M  V30 17 2 17 18
M  V30 18 1 18 19
M  V30 19 2 19 20
M  V30 20 1 20 21
M  V30 21 1 21 22
M  V30 22 1 22 23
M  V30 23 1 23 24
M  V30 24 1 24 25
M  V30 25 1 24 26
M  V30 26 1 26 27
M  V30 27 1 20 28
M  V30 28 2 28 29
M  V30 29 1 7 30
M  V30 30 2 30 31
M  V30 31 1 31 32
M  V30 32 1 31 3
M  V30 33 1 16 8
M  V30 34 1 29 17
M  V30 35 1 15 11
M  V30 36 1 27 21
M  V30 37 1 1 33
M  V30 38 1 1 34
M  V30 39 1 1 35
M  V30 40 1 6 36
M  V30 41 1 9 37
M  V30 42 1 12 38
M  V30 43 1 13 39
M  V30 44 1 14 40
M  V30 45 1 18 41
M  V30 46 1 19 42
M  V30 47 1 22 43
M  V30 48 1 22 44
M  V30 49 1 23 45
M  V30 50 1 23 46
M  V30 51 1 25 47
M  V30 52 1 25 48
M  V30 53 1 25 49
M  V30 54 1 26 50
M  V30 55 1 26 51
M  V30 56 1 27 52
M  V30 57 1 27 53
M  V30 58 1 28 54
M  V30 59 1 29 55
M  V30 60 1 30 56
M  V30 END BOND
M  V30 END CTAB
M  END
>  <Dataset>  (759) 
ChEMBL_Kinases

>  <Ligand_Instance>  (759) 
nan

>  <PDB_ID>  (759) 
nan

>  <Standardized_SMILES>  (759) 
COc1c(F)cc(-c2cnc3[nH]ccc3c2-c2ccc(N3CCN(C)CC3)cc2)cc1F

>  <Name>  (759) 
nan

>  <Pocket>  (759) 
nan

>  <ATP_Site>  (759) 
nan

>  <Peripheral>  (759) 
nan

>  <Num_H_Atoms_ProtBoundConf>  (759) 
nan

>  <Num_Resolved_Atoms>  (759) 
nan

>  <Num_Not_Resolved_Atoms>  (759) 
nan

$$$$
CHEMBL483786
     RDKit          3D

  0  0  0  0  0  0  0  0  0  0999 V3000
M  V30 BEGIN CTAB
M  V30 COUNTS 55 60 0 0 0
M  V30 BEGIN ATOM
M  V30 1 O 2.625895 2.543032 3.186799 0
M  V30 2 C 1.505059 1.967857 3.203104 0
M  V30 3 N 0.316616 2.312936 3.946425 0
M  V30 4 C -0.697538 1.370262 3.640620 0
M  V30 5 O -1.759521 1.557755 4.213338 0
M  V30 6 C -0.203511 0.405623 2.707490 0
M  V30 7 C 1.097762 0.770230 2.457750 0
M  V30 8 C 1.853163 0.009112 1.572575 0
M  V30 9 C 3.248952 0.392681 1.305805 0
M  V30 10 C 3.392195 1.271981 0.253772 0
M  V30 11 Cl 2.021641 1.877784 -0.685496 0
M  V30 12 C 4.647932 1.742812 -0.137739 0
M  V30 13 C 5.712745 1.275471 0.588028 0
M  V30 14 C 5.591439 0.399196 1.639635 0
M  V30 15 C 4.333637 -0.066860 2.024916 0
M  V30 16 Cl 3.986048 -1.173465 3.324233 0
M  V30 17 C 1.311757 -1.112228 0.938719 0
M  V30 18 C -0.003200 -1.448342 1.215777 0
M  V30 19 C -0.731754 -0.679114 2.096391 0
M  V30 20 C -1.976665 -1.228756 2.187235 0
M  V30 21 C -3.163032 -1.037277 2.829841 0
M  V30 22 C -4.286851 -1.823300 2.705338 0
M  V30 23 O -5.465479 -1.561535 3.397617 0
M  V30 24 C -4.228812 -2.923794 1.846759 0
M  V30 25 C -3.048031 -3.157430 1.174126 0
M  V30 26 C -1.941123 -2.317040 1.346550 0
M  V30 27 N -0.739593 -2.492580 0.722915 0
M  V30 28 C -0.285851 -3.449407 -0.205483 0
M  V30 29 C -0.293358 -3.221979 -1.646152 0
M  V30 30 C -1.514285 -2.920254 -2.401065 0
M  V30 31 C -2.198230 -1.651943 -2.069719 0
M  V30 32 O -3.163594 -1.239988 -1.358358 0
M  V30 33 N -1.674037 -0.466120 -2.706987 0
M  V30 34 C -2.031938 0.832611 -2.645385 0
M  V30 35 C -1.243360 1.644814 -3.437338 0
M  V30 36 N -0.358901 0.828837 -4.017061 0
M  V30 37 C -0.622261 -0.411406 -3.579498 0
M  V30 38 H 0.370034 3.158547 4.566990 0
M  V30 39 H 4.747973 2.432082 -0.963293 0
M  V30 40 H 6.708967 1.618601 0.314739 0
M  V30 41 H 6.416760 0.011703 2.232935 0
M  V30 42 H 1.932674 -1.659875 0.269735 0
M  V30 43 H -3.286252 -0.223295 3.498717 0
M  V30 44 H -5.611560 -0.657005 3.825572 0
M  V30 45 H -5.081227 -3.568435 1.715719 0
M  V30 46 H -3.032538 -4.006108 0.524115 0
M  V30 47 H 0.773451 -3.817187 0.049313 0
M  V30 48 H -0.862686 -4.431519 -0.044696 0
M  V30 49 H 0.116142 -4.198023 -2.101431 0
M  V30 50 H 0.507428 -2.498603 -1.991772 0
M  V30 51 H -2.260459 -3.782667 -2.376940 0
M  V30 52 H -1.305500 -2.854322 -3.516073 0
M  V30 53 H -2.839163 1.221050 -2.053367 0
M  V30 54 H -1.347779 2.713688 -3.542822 0
M  V30 55 H -0.015096 -1.219744 -3.935669 0
M  V30 END ATOM
M  V30 BEGIN BOND
M  V30 1 2 1 2
M  V30 2 1 2 3
M  V30 3 1 3 4
M  V30 4 2 4 5
M  V30 5 1 4 6
M  V30 6 2 6 7
M  V30 7 1 7 8
M  V30 8 1 8 9
M  V30 9 2 9 10
M  V30 10 1 10 11
M  V30 11 1 10 12
M  V30 12 2 12 13
M  V30 13 1 13 14
M  V30 14 2 14 15
M  V30 15 1 15 16
M  V30 16 2 8 17
M  V30 17 1 17 18
M  V30 18 2 18 19
M  V30 19 1 19 20
M  V30 20 2 20 21
M  V30 21 1 21 22
M  V30 22 1 22 23
M  V30 23 2 22 24
M  V30 24 1 24 25
M  V30 25 2 25 26
M  V30 26 1 26 27
M  V30 27 1 27 28
M  V30 28 1 28 29
M  V30 29 1 29 30
M  V30 30 1 30 31
M  V30 31 2 31 32
M  V30 32 1 31 33
M  V30 33 1 33 34
M  V30 34 2 34 35
M  V30 35 1 35 36
M  V30 36 2 36 37
M  V30 37 1 7 2
M  V30 38 1 15 9
M  V30 39 1 27 18
M  V30 40 1 37 33
M  V30 41 1 19 6
M  V30 42 1 26 20
M  V30 43 1 3 38
M  V30 44 1 12 39
M  V30 45 1 13 40
M  V30 46 1 14 41
M  V30 47 1 17 42
M  V30 48 1 21 43
M  V30 49 1 23 44
M  V30 50 1 24 45
M  V30 51 1 25 46
M  V30 52 1 28 47
M  V30 53 1 28 48
M  V30 54 1 29 49
M  V30 55 1 29 50
M  V30 56 1 30 51
M  V30 57 1 30 52
M  V30 58 1 34 53
M  V30 59 1 35 54
M  V30 60 1 37 55
M  V30 END BOND
M  V30 END CTAB
M  END
>  <Dataset>  (760) 
ChEMBL_Kinases

>  <Ligand_Instance>  (760) 
nan

>  <PDB_ID>  (760) 
nan

>  <Standardized_SMILES>  (760) 
O=C1NC(=O)c2c1c(-c1c(Cl)cccc1Cl)cc1c2c2cc(O)ccc2n1CCCC(=O)n1ccnc1

>  <Name>  (760) 
nan

>  <Pocket>  (760) 
nan

>  <ATP_Site>  (760) 
nan

>  <Peripheral>  (760) 
nan

>  <Num_H_Atoms_ProtBoundConf>  (760) 
nan

>  <Num_Resolved_Atoms>  (760) 
nan

>  <Num_Not_Resolved_Atoms>  (760) 
nan

$$$$
CHEMBL483800
     RDKit          3D

  0  0  0  0  0  0  0  0  0  0999 V3000
M  V30 BEGIN CTAB
M  V30 COUNTS 48 52 0 0 0
M  V30 BEGIN ATOM
M  V30 1 O 4.921283 -3.529665 -1.221681 0
M  V30 2 C 4.675226 -2.335775 -0.909955 0
M  V30 3 N 5.588021 -1.251744 -0.755587 0
M  V30 4 C 4.853506 -0.095047 -0.397379 0
M  V30 5 O 5.498009 0.946770 -0.222623 0
M  V30 6 C 3.450361 -0.400163 -0.311026 0
M  V30 7 C 3.381124 -1.736026 -0.620805 0
M  V30 8 C 2.145217 -2.387116 -0.635922 0
M  V30 9 C 1.036070 -1.628952 -0.329852 0
M  V30 10 C 1.091246 -0.296485 -0.018176 0
M  V30 11 C 2.325931 0.307320 -0.015117 0
M  V30 12 C 2.140094 1.615481 0.305710 0
M  V30 13 C 2.885304 2.727180 0.478458 0
M  V30 14 C 2.395172 3.958872 0.814742 0
M  V30 15 O 3.178314 5.107370 0.991754 0
M  V30 16 C 1.020127 4.126005 1.004466 0
M  V30 17 C 0.245527 2.982814 0.827748 0
M  V30 18 C 0.779778 1.732664 0.482382 0
M  V30 19 N 0.101507 0.555869 0.287795 0
M  V30 20 C -1.323670 0.427729 0.396424 0
M  V30 21 C -1.857727 0.193771 1.763169 0
M  V30 22 C -1.426476 -1.021346 2.485088 0
M  V30 23 N -1.751325 -2.288424 1.895198 0
M  V30 24 C -3.004433 -2.900375 1.662870 0
M  V30 25 C -4.228707 -2.397900 2.016599 0
M  V30 26 C -5.452733 -2.975808 1.783325 0
M  V30 27 C -5.436284 -4.183433 1.126775 0
M  V30 28 C -4.252626 -4.762885 0.734523 0
M  V30 29 C -3.076023 -4.111207 1.010674 0
M  V30 30 H 6.624750 -1.407968 -0.910155 0
M  V30 31 H 2.051403 -3.437207 -0.875323 0
M  V30 32 H 0.082552 -2.128003 -0.356926 0
M  V30 33 H 3.940974 2.740920 0.365347 0
M  V30 34 H 2.870083 5.918804 0.463609 0
M  V30 35 H 0.592376 5.071880 1.268359 0
M  V30 36 H -0.813751 3.152745 0.983357 0
M  V30 37 H -1.670206 -0.355353 -0.341460 0
M  V30 38 H -1.749169 1.380387 -0.029909 0
M  V30 39 H -2.984232 0.246875 1.683803 0
M  V30 40 H -1.621622 1.114991 2.372958 0
M  V30 41 H -1.835638 -0.987311 3.549486 0
M  V30 42 H -0.312478 -0.947593 2.675437 0
M  V30 43 H -0.912444 -2.865899 1.598246 0
M  V30 44 H -4.286636 -1.460135 2.544154 0
M  V30 45 H -6.381182 -2.538472 2.081687 0
M  V30 46 H -6.338223 -4.711132 0.899619 0
M  V30 47 H -4.250945 -5.713187 0.218828 0
M  V30 48 H -2.163400 -4.621048 0.674031 0
M  V30 END ATOM
M  V30 BEGIN BOND
M  V30 1 2 1 2
M  V30 2 1 2 3
M  V30 3 1 3 4
M  V30 4 2 4 5
M  V30 5 1 4 6
M  V30 6 2 6 7
M  V30 7 1 7 8
M  V30 8 2 8 9
M  V30 9 1 9 10
M  V30 10 2 10 11
M  V30 11 1 11 12
M  V30 12 2 12 13
M  V30 13 1 13 14
M  V30 14 1 14 15
M  V30 15 2 14 16
M  V30 16 1 16 17
M  V30 17 2 17 18
M  V30 18 1 18 19
M  V30 19 1 19 20
M  V30 20 1 20 21
M  V30 21 1 21 22
M  V30 22 1 22 23
M  V30 23 1 23 24
M  V30 24 2 24 25
M  V30 25 1 25 26
M  V30 26 2 26 27
M  V30 27 1 27 28
M  V30 28 2 28 29
M  V30 29 1 7 2
M  V30 30 1 19 10
M  V30 31 1 29 24
M  V30 32 1 11 6
M  V30 33 1 18 12
M  V30 34 1 3 30
M  V30 35 1 8 31
M  V30 36 1 9 32
M  V30 37 1 13 33
M  V30 38 1 15 34
M  V30 39 1 16 35
M  V30 40 1 17 36
M  V30 41 1 20 37
M  V30 42 1 20 38
M  V30 43 1 21 39
M  V30 44 1 21 40
M  V30 45 1 22 41
M  V30 46 1 22 42
M  V30 47 1 23 43
M  V30 48 1 25 44
M  V30 49 1 26 45
M  V30 50 1 27 46
M  V30 51 1 28 47
M  V30 52 1 29 48
M  V30 END BOND
M  V30 END CTAB
M  END
>  <Dataset>  (761) 
ChEMBL_Kinases

>  <Ligand_Instance>  (761) 
nan

>  <PDB_ID>  (761) 
nan

>  <Standardized_SMILES>  (761) 
O=C1NC(=O)c2c1ccc1c2c2cc(O)ccc2n1CCCNc1ccccc1

>  <Name>  (761) 
nan

>  <Pocket>  (761) 
nan

>  <ATP_Site>  (761) 
nan

>  <Peripheral>  (761) 
nan

>  <Num_H_Atoms_ProtBoundConf>  (761) 
nan

>  <Num_Resolved_Atoms>  (761) 
nan

>  <Num_Not_Resolved_Atoms>  (761) 
nan

$$$$
CHEMBL483801
     RDKit          3D

  0  0  0  0  0  0  0  0  0  0999 V3000
M  V30 BEGIN CTAB
M  V30 COUNTS 51 54 0 0 0
M  V30 BEGIN ATOM
M  V30 1 C 1.259747 -1.275724 4.648344 0
M  V30 2 N 2.212843 -0.582054 3.806624 0
M  V30 3 C 3.038166 0.248062 4.625016 0
M  V30 4 C 2.965950 -1.548835 3.036733 0
M  V30 5 C 3.963159 -0.884877 2.149570 0
M  V30 6 N 3.422499 0.033888 1.185808 0
M  V30 7 C 2.486624 -0.357663 0.151189 0
M  V30 8 O 2.328598 -1.588540 0.342240 0
M  V30 9 C 2.118530 0.808602 -0.670394 0
M  V30 10 C 1.158020 0.571719 -1.775564 0
M  V30 11 N -0.128313 0.076851 -1.404144 0
M  V30 12 C -1.196263 0.854030 -1.039410 0
M  V30 13 C -1.225309 2.252850 -0.941978 0
M  V30 14 C -2.348903 2.956727 -0.565363 0
M  V30 15 C -3.493599 2.205204 -0.274978 0
M  V30 16 O -4.633440 2.906895 0.106271 0
M  V30 17 C -3.423851 0.837039 -0.382495 0
M  V30 18 C -2.326835 0.122392 -0.751934 0
M  V30 19 C -1.961726 -1.175813 -0.942505 0
M  V30 20 C -2.663773 -2.324978 -0.815219 0
M  V30 21 C -2.066599 -3.533018 -1.076663 0
M  V30 22 C -0.732289 -3.592071 -1.475783 0
M  V30 23 C -0.071557 -2.387073 -1.586574 0
M  V30 24 C -0.642080 -1.158018 -1.331239 0
M  V30 25 C -2.957720 -4.672208 -0.892700 0
M  V30 26 O -2.702705 -5.892945 -1.053741 0
M  V30 27 N -4.198641 -4.063102 -0.482646 0
M  V30 28 C -4.004479 -2.662461 -0.441956 0
M  V30 29 O -4.986780 -1.992022 -0.104119 0
M  V30 30 H 0.614742 -0.528621 5.153214 0
M  V30 31 H 0.610839 -1.969446 4.103475 0
M  V30 32 H 1.866845 -1.841482 5.395823 0
M  V30 33 H 3.984755 -0.239716 4.951359 0
M  V30 34 H 2.476070 0.489212 5.553267 0
M  V30 35 H 3.243488 1.237461 4.150682 0
M  V30 36 H 2.385494 -2.293589 2.513034 0
M  V30 37 H 3.564000 -2.120160 3.813234 0
M  V30 38 H 4.770472 -0.436641 2.739001 0
M  V30 39 H 4.484159 -1.688098 1.538209 0
M  V30 40 H 3.781104 1.036464 1.311261 0
M  V30 41 H 3.085473 1.165882 -1.131227 0
M  V30 42 H 1.811608 1.648207 -0.005043 0
M  V30 43 H 0.981411 1.576659 -2.262251 0
M  V30 44 H 1.589404 -0.062819 -2.581453 0
M  V30 45 H -0.368290 2.881126 -1.155207 0
M  V30 46 H -2.364962 4.032040 -0.492276 0
M  V30 47 H -4.817193 3.064349 1.092957 0
M  V30 48 H -4.345011 0.369575 -0.140041 0
M  V30 49 H -0.233747 -4.527223 -1.689155 0
M  V30 50 H 0.964530 -2.420569 -1.895665 0
M  V30 51 H -5.026760 -4.682175 -0.280927 0
M  V30 END ATOM
M  V30 BEGIN BOND
M  V30 1 1 1 2
M  V30 2 1 2 3
M  V30 3 1 2 4
M  V30 4 1 4 5
M  V30 5 1 5 6
M  V30 6 1 6 7
M  V30 7 2 7 8
M  V30 8 1 7 9
M  V30 9 1 9 10
M  V30 10 1 10 11
M  V30 11 1 11 12
M  V30 12 2 12 13
M  V30 13 1 13 14
M  V30 14 2 14 15
M  V30 15 1 15 16
M  V30 16 1 15 17
M  V30 17 2 17 18
M  V30 18 1 18 19
M  V30 19 2 19 20
M  V30 20 1 20 21
M  V30 21 2 21 22
M  V30 22 1 22 23
M  V30 23 2 23 24
M  V30 24 1 21 25
M  V30 25 2 25 26
M  V30 26 1 25 27
M  V30 27 1 27 28
M  V30 28 2 28 29
M  V30 29 1 24 11
M  V30 30 1 18 12
M  V30 31 1 24 19
M  V30 32 1 28 20
M  V30 33 1 1 30
M  V30 34 1 1 31
M  V30 35 1 1 32
M  V30 36 1 3 33
M  V30 37 1 3 34
M  V30 38 1 3 35
M  V30 39 1 4 36
M  V30 40 1 4 37
M  V30 41 1 5 38
M  V30 42 1 5 39
M  V30 43 1 6 40
M  V30 44 1 9 41
M  V30 45 1 9 42
M  V30 46 1 10 43
M  V30 47 1 10 44
M  V30 48 1 13 45
M  V30 49 1 14 46
M  V30 50 1 16 47
M  V30 51 1 17 48
M  V30 52 1 22 49
M  V30 53 1 23 50
M  V30 54 1 27 51
M  V30 END BOND
M  V30 END CTAB
M  END
>  <Dataset>  (762) 
ChEMBL_Kinases

>  <Ligand_Instance>  (762) 
nan

>  <PDB_ID>  (762) 
nan

>  <Standardized_SMILES>  (762) 
CN(C)CCNC(=O)CCn1c2ccc(O)cc2c2c3c(ccc21)C(=O)NC3=O

>  <Name>  (762) 
nan

>  <Pocket>  (762) 
nan

>  <ATP_Site>  (762) 
nan

>  <Peripheral>  (762) 
nan

>  <Num_H_Atoms_ProtBoundConf>  (762) 
nan

>  <Num_Resolved_Atoms>  (762) 
nan

>  <Num_Not_Resolved_Atoms>  (762) 
nan

$$$$
CHEMBL483841
     RDKit          3D

  0  0  0  0  0  0  0  0  0  0999 V3000
M  V30 BEGIN CTAB
M  V30 COUNTS 60 62 0 0 0
M  V30 BEGIN ATOM
M  V30 1 C 0.389871 -2.095302 7.055289 0
M  V30 2 C 0.724889 -1.116469 5.992371 0
M  V30 3 C 1.570218 -1.488942 5.023169 0
M  V30 4 O 2.241406 -2.682595 4.794708 0
M  V30 5 C 1.689253 -0.323775 4.152756 0
M  V30 6 C 2.382769 -0.131356 3.056841 0
M  V30 7 C 2.515341 1.044490 2.161433 0 CFG=2
M  V30 8 C 1.870123 2.250126 2.748180 0
M  V30 9 C 2.059814 0.705542 0.760685 0
M  V30 10 C 2.193109 1.880711 -0.133889 0
M  V30 11 C 1.774207 1.717533 -1.539995 0
M  V30 12 C 0.374193 1.428873 -1.825851 0
M  V30 13 C 0.125064 1.289123 -3.281476 0
M  V30 14 C -0.765677 1.272725 -1.202040 0
M  V30 15 C -2.167242 1.013846 -1.121702 0
M  V30 16 C -2.990889 0.600680 -2.279079 0
M  V30 17 C -2.644665 -0.685126 -2.909548 0
M  V30 18 C -1.952424 -1.266949 -3.948236 0
M  V30 19 O -1.997749 -2.572086 -3.970377 0
M  V30 20 C -2.716916 -2.985531 -2.960908 0
M  V30 21 C -2.981479 -4.416389 -2.675641 0
M  V30 22 C -1.916388 -4.924335 -1.783000 0
M  V30 23 C -0.690853 -5.510999 -2.017664 0
M  V30 24 C -0.185744 -5.750086 -0.742577 0
M  V30 25 O -1.031503 -5.343797 0.160789 0
M  V30 26 C -2.084662 -4.841184 -0.404793 0
M  V30 27 C -3.130195 -1.856795 -2.288775 0
M  V30 28 O 0.904997 0.730046 4.625035 0
M  V30 29 C 0.288721 0.258494 5.779438 0
M  V30 30 O -0.506784 0.827457 6.559904 0
M  V30 31 H -0.389351 -2.773074 6.630029 0
M  V30 32 H 1.249882 -2.697845 7.340991 0
M  V30 33 H -0.091093 -1.610511 7.944157 0
M  V30 34 H 3.191447 -2.758080 5.186794 0
M  V30 35 H 2.999782 -0.965804 2.688012 0
M  V30 36 H 3.614850 1.281873 2.068122 0
M  V30 37 H 2.175513 3.191370 2.201897 0
M  V30 38 H 0.785297 2.216558 2.824065 0
M  V30 39 H 2.261149 2.420988 3.779234 0
M  V30 40 H 2.863267 -0.024158 0.394421 0
M  V30 41 H 1.153035 0.116170 0.726254 0
M  V30 42 H 1.721851 2.806700 0.259352 0
M  V30 43 H 3.294849 2.141959 -0.154622 0
M  V30 44 H 2.060267 2.655543 -2.096474 0
M  V30 45 H 2.439980 0.905999 -1.974702 0
M  V30 46 H 0.735024 2.102701 -3.786889 0
M  V30 47 H 0.554896 0.330863 -3.654897 0
M  V30 48 H -0.884955 1.474855 -3.621598 0
M  V30 49 H -0.454813 1.483772 -0.141816 0
M  V30 50 H -2.735570 1.839957 -0.555413 0
M  V30 51 H -2.301049 0.145509 -0.368198 0
M  V30 52 H -3.108551 1.421912 -3.049696 0
M  V30 53 H -4.058373 0.513724 -1.880037 0
M  V30 54 H -1.446806 -0.606505 -4.636633 0
M  V30 55 H -3.992691 -4.596502 -2.274811 0
M  V30 56 H -2.897647 -5.012871 -3.621486 0
M  V30 57 H -0.324858 -5.688240 -3.011916 0
M  V30 58 H 0.795041 -6.218878 -0.606662 0
M  V30 59 H -2.846354 -4.475535 0.279700 0
M  V30 60 H -3.748149 -1.995346 -1.407354 0
M  V30 END ATOM
M  V30 BEGIN BOND
M  V30 1 1 1 2
M  V30 2 2 2 3
M  V30 3 1 3 4
M  V30 4 1 3 5
M  V30 5 2 5 6
M  V30 6 1 6 7
M  V30 7 1 7 8
M  V30 8 1 7 9
M  V30 9 1 9 10
M  V30 10 1 10 11
M  V30 11 1 11 12
M  V30 12 1 12 13
M  V30 13 2 12 14
M  V30 14 1 14 15
M  V30 15 1 15 16
M  V30 16 1 16 17
M  V30 17 2 17 18
M  V30 18 1 18 19
M  V30 19 1 19 20
M  V30 20 1 20 21
M  V30 21 1 21 22
M  V30 22 1 22 23
M  V30 23 2 23 24
M  V30 24 1 24 25
M  V30 25 1 25 26
M  V30 26 2 20 27
M  V30 27 1 5 28
M  V30 28 1 28 29
M  V30 29 2 29 30
M  V30 30 1 29 2
M  V30 31 1 27 17
M  V30 32 2 26 22
M  V30 33 1 1 31
M  V30 34 1 1 32
M  V30 35 1 1 33
M  V30 36 1 4 34
M  V30 37 1 6 35
M  V30 38 1 7 36 CFG=3
M  V30 39 1 8 37
M  V30 40 1 8 38
M  V30 41 1 8 39
M  V30 42 1 9 40
M  V30 43 1 9 41
M  V30 44 1 10 42
M  V30 45 1 10 43
M  V30 46 1 11 44
M  V30 47 1 11 45
M  V30 48 1 13 46
M  V30 49 1 13 47
M  V30 50 1 13 48
M  V30 51 1 14 49
M  V30 52 1 15 50
M  V30 53 1 15 51
M  V30 54 1 16 52
M  V30 55 1 16 53
M  V30 56 1 18 54
M  V30 57 1 21 55
M  V30 58 1 21 56
M  V30 59 1 23 57
M  V30 60 1 24 58
M  V30 61 1 26 59
M  V30 62 1 27 60
M  V30 END BOND
M  V30 END CTAB
M  END
>  <Dataset>  (763) 
ChEMBL_Kinases

>  <Ligand_Instance>  (763) 
nan

>  <PDB_ID>  (763) 
nan

>  <Standardized_SMILES>  (763) 
CC1=C(O)/C(=C/[C@H](C)CCC/C(C)=C/CCc2coc(Cc3ccoc3)c2)OC1=O

>  <Name>  (763) 
IRCININ 1

>  <Pocket>  (763) 
nan

>  <ATP_Site>  (763) 
nan

>  <Peripheral>  (763) 
nan

>  <Num_H_Atoms_ProtBoundConf>  (763) 
nan

>  <Num_Resolved_Atoms>  (763) 
nan

>  <Num_Not_Resolved_Atoms>  (763) 
nan

$$$$
CHEMBL483842
     RDKit          3D

  0  0  0  0  0  0  0  0  0  0999 V3000
M  V30 BEGIN CTAB
M  V30 COUNTS 60 62 0 0 0
M  V30 BEGIN ATOM
M  V30 1 C -0.240925 -2.160090 6.432935 0
M  V30 2 C 0.335824 -1.617795 5.170246 0
M  V30 3 C 1.415248 -0.851046 5.167431 0
M  V30 4 O 2.224968 -0.381841 6.172724 0
M  V30 5 C 1.647464 -0.539330 3.772774 0
M  V30 6 C 2.546907 0.167811 3.138524 0
M  V30 7 C 2.764235 0.475479 1.674711 0 CFG=2
M  V30 8 C 2.665032 2.008399 1.647196 0
M  V30 9 C 1.753427 -0.181515 0.820314 0
M  V30 10 C 1.903322 0.042124 -0.638788 0
M  V30 11 C 1.811321 1.413114 -1.135863 0
M  V30 12 C 0.849693 1.797128 -1.984491 0
M  V30 13 C 0.673324 3.186949 -2.547275 0
M  V30 14 C -0.230573 1.020960 -2.605517 0
M  V30 15 C -1.623203 1.496230 -2.252255 0
M  V30 16 C -2.623836 0.641710 -2.992875 0
M  V30 17 C -2.548568 -0.786495 -2.713001 0
M  V30 18 C -1.741489 -1.631192 -3.487587 0
M  V30 19 O -1.834443 -2.867742 -3.070600 0
M  V30 20 C -2.662046 -2.928067 -2.048360 0
M  V30 21 C -2.941118 -4.207040 -1.397318 0
M  V30 22 C -1.967159 -4.575697 -0.343256 0
M  V30 23 C -1.888532 -4.377358 1.013935 0
M  V30 24 C -0.713784 -4.964897 1.492095 0
M  V30 25 O -0.110996 -5.494612 0.464347 0
M  V30 26 C -0.806592 -5.292574 -0.632130 0
M  V30 27 C -3.106325 -1.666118 -1.817008 0
M  V30 28 O 0.669111 -1.153144 3.001142 0
M  V30 29 C -0.199831 -1.857582 3.834185 0
M  V30 30 O -1.218759 -2.556649 3.606631 0
M  V30 31 H -0.007885 -3.244986 6.427422 0
M  V30 32 H 0.119170 -1.638429 7.322567 0
M  V30 33 H -1.361673 -2.077636 6.363803 0
M  V30 34 H 1.795157 0.251791 6.847992 0
M  V30 35 H 3.316368 0.651575 3.756721 0
M  V30 36 H 3.815847 0.242583 1.410343 0
M  V30 37 H 2.695028 2.433524 2.701143 0
M  V30 38 H 3.471314 2.480474 1.088774 0
M  V30 39 H 1.695742 2.354286 1.241775 0
M  V30 40 H 0.756193 0.219365 1.109517 0
M  V30 41 H 1.815359 -1.281982 0.975297 0
M  V30 42 H 1.203663 -0.596335 -1.225113 0
M  V30 43 H 2.913495 -0.383833 -0.922703 0
M  V30 44 H 2.430241 2.280043 -0.963992 0
M  V30 45 H 0.826917 3.138539 -3.635040 0
M  V30 46 H -0.219734 3.693150 -2.196381 0
M  V30 47 H 1.535053 3.791148 -2.144467 0
M  V30 48 H -0.223379 -0.059824 -2.375451 0
M  V30 49 H -0.182484 1.072511 -3.731545 0
M  V30 50 H -1.835676 2.529618 -2.527900 0
M  V30 51 H -1.811460 1.293139 -1.160769 0
M  V30 52 H -2.547801 0.815533 -4.105662 0
M  V30 53 H -3.674880 0.976685 -2.733728 0
M  V30 54 H -1.101260 -1.357499 -4.333981 0
M  V30 55 H -2.972876 -5.052525 -2.144588 0
M  V30 56 H -3.948582 -4.242365 -0.924195 0
M  V30 57 H -2.677892 -3.831357 1.535448 0
M  V30 58 H -0.414562 -4.950982 2.526490 0
M  V30 59 H -0.457234 -5.667263 -1.605472 0
M  V30 60 H -3.797195 -1.343031 -1.054303 0
M  V30 END ATOM
M  V30 BEGIN BOND
M  V30 1 1 1 2
M  V30 2 2 2 3
M  V30 3 1 3 4
M  V30 4 1 3 5
M  V30 5 2 5 6
M  V30 6 1 6 7
M  V30 7 1 7 8
M  V30 8 1 7 9
M  V30 9 1 9 10
M  V30 10 1 10 11
M  V30 11 2 11 12
M  V30 12 1 12 13
M  V30 13 1 12 14
M  V30 14 1 14 15
M  V30 15 1 15 16
M  V30 16 1 16 17
M  V30 17 2 17 18
M  V30 18 1 18 19
M  V30 19 1 19 20
M  V30 20 1 20 21
M  V30 21 1 21 22
M  V30 22 1 22 23
M  V30 23 2 23 24
M  V30 24 1 24 25
M  V30 25 1 25 26
M  V30 26 2 20 27
M  V30 27 1 5 28
M  V30 28 1 28 29
M  V30 29 2 29 30
M  V30 30 1 29 2
M  V30 31 1 27 17
M  V30 32 2 26 22
M  V30 33 1 1 31
M  V30 34 1 1 32
M  V30 35 1 1 33
M  V30 36 1 4 34
M  V30 37 1 6 35
M  V30 38 1 7 36 CFG=3
M  V30 39 1 8 37
M  V30 40 1 8 38
M  V30 41 1 8 39
M  V30 42 1 9 40
M  V30 43 1 9 41
M  V30 44 1 10 42
M  V30 45 1 10 43
M  V30 46 1 11 44
M  V30 47 1 13 45
M  V30 48 1 13 46
M  V30 49 1 13 47
M  V30 50 1 14 48
M  V30 51 1 14 49
M  V30 52 1 15 50
M  V30 53 1 15 51
M  V30 54 1 16 52
M  V30 55 1 16 53
M  V30 56 1 18 54
M  V30 57 1 21 55
M  V30 58 1 21 56
M  V30 59 1 23 57
M  V30 60 1 24 58
M  V30 61 1 26 59
M  V30 62 1 27 60
M  V30 END BOND
M  V30 END CTAB
M  END
>  <Dataset>  (764) 
ChEMBL_Kinases

>  <Ligand_Instance>  (764) 
nan

>  <PDB_ID>  (764) 
nan

>  <Standardized_SMILES>  (764) 
CC1=C(O)/C(=C/[C@H](C)CC/C=C(/C)CCCc2coc(Cc3ccoc3)c2)OC1=O

>  <Name>  (764) 
IRCININ 2

>  <Pocket>  (764) 
nan

>  <ATP_Site>  (764) 
nan

>  <Peripheral>  (764) 
nan

>  <Num_H_Atoms_ProtBoundConf>  (764) 
nan

>  <Num_Resolved_Atoms>  (764) 
nan

>  <Num_Not_Resolved_Atoms>  (764) 
nan

$$$$
CHEMBL483953
     RDKit          3D

  0  0  0  0  0  0  0  0  0  0999 V3000
M  V30 BEGIN CTAB
M  V30 COUNTS 53 57 0 0 0
M  V30 BEGIN ATOM
M  V30 1 C 2.711715 -5.298773 3.776045 0
M  V30 2 N 2.417009 -4.025988 3.134389 0
M  V30 3 C 3.257767 -3.815965 1.985055 0
M  V30 4 C 3.006621 -2.420411 1.494784 0
M  V30 5 N 1.629435 -2.103001 1.300763 0
M  V30 6 C 1.252465 -0.898203 1.974987 0
M  V30 7 C 1.826350 0.360917 1.462972 0
M  V30 8 C 1.543273 0.766916 0.076299 0
M  V30 9 N 0.178467 0.979963 -0.282768 0
M  V30 10 C -0.493638 2.167457 -0.151289 0
M  V30 11 C 0.008929 3.363922 0.352158 0
M  V30 12 C -0.763657 4.527418 0.445716 0
M  V30 13 C -2.089373 4.425121 -0.000033 0
M  V30 14 O -2.843222 5.589898 0.099748 0
M  V30 15 C -2.536665 3.217365 -0.489337 0
M  V30 16 C -1.800242 2.091638 -0.583469 0
M  V30 17 C -1.952142 0.822206 -0.997731 0
M  V30 18 C -3.021769 0.170780 -1.525428 0
M  V30 19 C -2.929576 -1.153848 -1.883062 0
M  V30 20 C -1.735624 -1.864906 -1.714161 0
M  V30 21 C -0.687360 -1.146142 -1.173633 0
M  V30 22 C -0.755751 0.168239 -0.811048 0
M  V30 23 C -4.180051 -1.701969 -2.437581 0
M  V30 24 O -4.397038 -2.862647 -2.844987 0
M  V30 25 N -5.084272 -0.585952 -2.397091 0
M  V30 26 C -4.381369 0.517975 -1.853058 0
M  V30 27 O -5.019174 1.574499 -1.745789 0
M  V30 28 C 0.710309 -3.161872 1.561779 0
M  V30 29 C 1.060896 -4.055618 2.697706 0
M  V30 30 H 3.799481 -5.434595 3.940383 0
M  V30 31 H 2.277380 -6.091643 3.133349 0
M  V30 32 H 2.143920 -5.295372 4.735295 0
M  V30 33 H 4.311939 -3.844027 2.329057 0
M  V30 34 H 3.026533 -4.588506 1.235242 0
M  V30 35 H 3.577553 -2.273416 0.556279 0
M  V30 36 H 3.425976 -1.711170 2.238317 0
M  V30 37 H 1.628321 -1.015798 3.032051 0
M  V30 38 H 0.148296 -0.897302 2.077589 0
M  V30 39 H 2.947766 0.274774 1.562874 0
M  V30 40 H 1.550706 1.174236 2.165991 0
M  V30 41 H 1.995381 0.048321 -0.652608 0
M  V30 42 H 2.077940 1.725864 -0.115787 0
M  V30 43 H 1.024050 3.484459 0.705527 0
M  V30 44 H -0.352680 5.445463 0.839942 0
M  V30 45 H -3.460543 5.773088 0.888036 0
M  V30 46 H -3.540481 3.286887 -0.783911 0
M  V30 47 H -1.633041 -2.891754 -1.981785 0
M  V30 48 H 0.231213 -1.698623 -1.050764 0
M  V30 49 H -6.060387 -0.713261 -2.742268 0
M  V30 50 H 0.592649 -3.764464 0.635970 0
M  V30 51 H -0.284349 -2.707708 1.782090 0
M  V30 52 H 0.796812 -5.118655 2.458053 0
M  V30 53 H 0.429320 -3.829799 3.606744 0
M  V30 END ATOM
M  V30 BEGIN BOND
M  V30 1 1 1 2
M  V30 2 1 2 3
M  V30 3 1 3 4
M  V30 4 1 4 5
M  V30 5 1 5 6
M  V30 6 1 6 7
M  V30 7 1 7 8
M  V30 8 1 8 9
M  V30 9 1 9 10
M  V30 10 2 10 11
M  V30 11 1 11 12
M  V30 12 2 12 13
M  V30 13 1 13 14
M  V30 14 1 13 15
M  V30 15 2 15 16
M  V30 16 1 16 17
M  V30 17 2 17 18
M  V30 18 1 18 19
M  V30 19 2 19 20
M  V30 20 1 20 21
M  V30 21 2 21 22
M  V30 22 1 19 23
M  V30 23 2 23 24
M  V30 24 1 23 25
M  V30 25 1 25 26
M  V30 26 2 26 27
M  V30 27 1 5 28
M  V30 28 1 28 29
M  V30 29 1 29 2
M  V30 30 1 22 9
M  V30 31 1 16 10
M  V30 32 1 22 17
M  V30 33 1 26 18
M  V30 34 1 1 30
M  V30 35 1 1 31
M  V30 36 1 1 32
M  V30 37 1 3 33
M  V30 38 1 3 34
M  V30 39 1 4 35
M  V30 40 1 4 36
M  V30 41 1 6 37
M  V30 42 1 6 38
M  V30 43 1 7 39
M  V30 44 1 7 40
M  V30 45 1 8 41
M  V30 46 1 8 42
M  V30 47 1 11 43
M  V30 48 1 12 44
M  V30 49 1 14 45
M  V30 50 1 15 46
M  V30 51 1 20 47
M  V30 52 1 21 48
M  V30 53 1 25 49
M  V30 54 1 28 50
M  V30 55 1 28 51
M  V30 56 1 29 52
M  V30 57 1 29 53
M  V30 END BOND
M  V30 END CTAB
M  END
>  <Dataset>  (765) 
ChEMBL_Kinases

>  <Ligand_Instance>  (765) 
nan

>  <PDB_ID>  (765) 
nan

>  <Standardized_SMILES>  (765) 
CN1CCN(CCCn2c3ccc(O)cc3c3c4c(ccc32)C(=O)NC4=O)CC1

>  <Name>  (765) 
nan

>  <Pocket>  (765) 
nan

>  <ATP_Site>  (765) 
nan

>  <Peripheral>  (765) 
nan

>  <Num_H_Atoms_ProtBoundConf>  (765) 
nan

>  <Num_Resolved_Atoms>  (765) 
nan

>  <Num_Not_Resolved_Atoms>  (765) 
nan

$$$$
CHEMBL484007
     RDKit          3D

  0  0  0  0  0  0  0  0  0  0999 V3000
M  V30 BEGIN CTAB
M  V30 COUNTS 53 56 0 0 0
M  V30 BEGIN ATOM
M  V30 1 C 2.178124 -3.548560 5.393209 0
M  V30 2 C 2.463891 -2.078907 5.238298 0
M  V30 3 C 1.584124 -1.334522 6.224128 0
M  V30 4 C 3.915762 -1.841455 5.589436 0
M  V30 5 C 2.199252 -1.647052 3.831048 0
M  V30 6 C 2.446542 -0.291334 3.624480 0
M  V30 7 C 2.250678 0.265860 2.377429 0
M  V30 8 C 1.809361 -0.523897 1.336544 0
M  V30 9 C 1.556283 -0.071811 -0.043164 0
M  V30 10 O 1.148742 -0.819663 -0.988526 0
M  V30 11 N 1.746663 1.278142 -0.466947 0
M  V30 12 C 1.407531 1.361691 -1.864164 0
M  V30 13 N 2.191490 1.193189 -2.943930 0
M  V30 14 N 1.491980 1.355376 -4.053648 0
M  V30 15 C 0.208931 1.639265 -3.707220 0
M  V30 16 C 0.122635 1.650601 -2.324827 0
M  V30 17 C -1.286046 1.962886 -2.048007 0
M  V30 18 N -1.984399 1.258060 -3.104628 0
M  V30 19 C -3.023158 0.287842 -3.107638 0
M  V30 20 O -3.686199 -0.374518 -3.973593 0
M  V30 21 C -3.507531 -0.096884 -1.751127 0
M  V30 22 C -4.568992 -1.097425 -1.935097 0
M  V30 23 C -4.415207 -2.492891 -2.004916 0
M  V30 24 C -5.549268 -3.246556 -2.181150 0
M  V30 25 C -6.782809 -2.534930 -2.277014 0
M  V30 26 S -6.298327 -0.799196 -2.113257 0
M  V30 27 C -1.186972 1.952569 -4.111700 0
M  V30 28 C 1.564086 -1.876829 1.548583 0
M  V30 29 C 1.757085 -2.444411 2.793427 0
M  V30 30 H 2.959806 -4.167956 4.920883 0
M  V30 31 H 1.158248 -3.808037 5.018845 0
M  V30 32 H 2.148605 -3.766652 6.483929 0
M  V30 33 H 1.333320 -1.930759 7.100782 0
M  V30 34 H 0.618314 -1.028204 5.753512 0
M  V30 35 H 2.048990 -0.373375 6.564263 0
M  V30 36 H 4.030468 -1.426575 6.601507 0
M  V30 37 H 4.532508 -2.766480 5.548633 0
M  V30 38 H 4.380880 -1.151933 4.836445 0
M  V30 39 H 2.794781 0.416605 4.372537 0
M  V30 40 H 2.421999 1.308435 2.144928 0
M  V30 41 H 2.081676 1.986075 0.229625 0
M  V30 42 H 1.814343 1.289210 -5.044839 0
M  V30 43 H -1.567778 1.600940 -1.031418 0
M  V30 44 H -1.517088 3.047448 -2.043003 0
M  V30 45 H -4.024241 0.819082 -1.358406 0
M  V30 46 H -2.714002 -0.405615 -1.070148 0
M  V30 47 H -3.430221 -2.925167 -1.919867 0
M  V30 48 H -5.545167 -4.324677 -2.248151 0
M  V30 49 H -7.728167 -2.969207 -2.411786 0
M  V30 50 H -1.447224 1.482616 -5.084912 0
M  V30 51 H -1.328329 3.036370 -4.084585 0
M  V30 52 H 1.217090 -2.562749 0.786354 0
M  V30 53 H 1.593003 -3.478016 3.046448 0
M  V30 END ATOM
M  V30 BEGIN BOND
M  V30 1 1 1 2
M  V30 2 1 2 3
M  V30 3 1 2 4
M  V30 4 1 2 5
M  V30 5 2 5 6
M  V30 6 1 6 7
M  V30 7 2 7 8
M  V30 8 1 8 9
M  V30 9 2 9 10
M  V30 10 1 9 11
M  V30 11 1 11 12
M  V30 12 2 12 13
M  V30 13 1 13 14
M  V30 14 1 14 15
M  V30 15 2 15 16
M  V30 16 1 16 17
M  V30 17 1 17 18
M  V30 18 1 18 19
M  V30 19 2 19 20
M  V30 20 1 19 21
M  V30 21 1 21 22
M  V30 22 2 22 23
M  V30 23 1 23 24
M  V30 24 2 24 25
M  V30 25 1 25 26
M  V30 26 1 18 27
M  V30 27 1 8 28
M  V30 28 2 28 29
M  V30 29 1 29 5
M  V30 30 1 16 12
M  V30 31 1 26 22
M  V30 32 1 27 15
M  V30 33 1 1 30
M  V30 34 1 1 31
M  V30 35 1 1 32
M  V30 36 1 3 33
M  V30 37 1 3 34
M  V30 38 1 3 35
M  V30 39 1 4 36
M  V30 40 1 4 37
M  V30 41 1 4 38
M  V30 42 1 6 39
M  V30 43 1 7 40
M  V30 44 1 11 41
M  V30 45 1 14 42
M  V30 46 1 17 43
M  V30 47 1 17 44
M  V30 48 1 21 45
M  V30 49 1 21 46
M  V30 50 1 23 47
M  V30 51 1 24 48
M  V30 52 1 25 49
M  V30 53 1 27 50
M  V30 54 1 27 51
M  V30 55 1 28 52
M  V30 56 1 29 53
M  V30 END BOND
M  V30 END CTAB
M  END
>  <Dataset>  (766) 
ChEMBL_Kinases

>  <Ligand_Instance>  (766) 
nan

>  <PDB_ID>  (766) 
nan

>  <Standardized_SMILES>  (766) 
CC(C)(C)c1ccc(C(=O)Nc2n[nH]c3c2CN(C(=O)Cc2cccs2)C3)cc1

>  <Name>  (766) 
nan

>  <Pocket>  (766) 
nan

>  <ATP_Site>  (766) 
nan

>  <Peripheral>  (766) 
nan

>  <Num_H_Atoms_ProtBoundConf>  (766) 
nan

>  <Num_Resolved_Atoms>  (766) 
nan

>  <Num_Not_Resolved_Atoms>  (766) 
nan

$$$$
CHEMBL4091527
     RDKit          3D

  0  0  0  0  0  0  0  0  0  0999 V3000
M  V30 BEGIN CTAB
M  V30 COUNTS 52 55 0 0 0
M  V30 BEGIN ATOM
M  V30 1 O 0.365942 0.080797 -0.807946 0
M  V30 2 C 0.729911 0.548719 0.301638 0
M  V30 3 C 1.493411 1.797984 0.301397 0
M  V30 4 C 1.881013 2.547692 -0.700773 0
M  V30 5 C 2.603039 3.757740 -0.998503 0
M  V30 6 C 2.628589 4.249455 -2.285119 0
M  V30 7 N 3.260809 5.353567 -2.623482 0
M  V30 8 C 3.916812 6.049308 -1.693498 0
M  V30 9 C 3.912946 5.586815 -0.401129 0
M  V30 10 C 3.250435 4.417508 -0.018932 0
M  V30 11 C 3.484752 4.131429 1.376506 0
M  V30 12 C 3.000452 5.035291 2.337754 0
M  V30 13 N 3.349109 4.633228 3.589670 0
M  V30 14 N 4.041481 3.505959 3.501048 0
M  V30 15 C 4.130914 3.195209 2.198370 0
M  V30 16 N 0.478298 -0.010303 1.582701 0
M  V30 17 C -0.264048 -1.227060 1.598716 0
M  V30 18 C 0.489180 -2.390889 1.531330 0
M  V30 19 C -0.218861 -3.576123 1.546188 0
M  V30 20 C -1.613493 -3.652551 1.623461 0
M  V30 21 C -2.203056 -5.016090 1.628850 0
M  V30 22 N -2.476558 -5.456610 0.277486 0
M  V30 23 C -3.393370 -4.615936 -0.438691 0
M  V30 24 C -4.816448 -4.784908 0.024163 0
M  V30 25 O -5.234263 -6.071124 -0.256776 0
M  V30 26 C -4.221719 -6.932926 -0.612194 0
M  V30 27 C -2.977823 -6.796632 0.248153 0
M  V30 28 C -2.323547 -2.470962 1.688778 0
M  V30 29 C -1.642437 -1.253358 1.676138 0
M  V30 30 H 1.822128 2.288598 1.201792 0
M  V30 31 H 1.496232 2.009667 -1.586951 0
M  V30 32 H 2.111793 3.726034 -3.086999 0
M  V30 33 H 4.419509 6.949187 -2.019133 0
M  V30 34 H 4.483743 6.243684 0.262754 0
M  V30 35 H 2.435183 5.940445 2.287736 0
M  V30 36 H 4.494559 2.863507 4.189060 0
M  V30 37 H 4.599030 2.368962 1.636354 0
M  V30 38 H 0.818496 0.445756 2.459298 0
M  V30 39 H 1.572072 -2.390544 1.469953 0
M  V30 40 H 0.381332 -4.488896 1.492784 0
M  V30 41 H -1.485497 -5.736580 2.060873 0
M  V30 42 H -3.108974 -5.031390 2.262378 0
M  V30 43 H -3.352974 -4.955390 -1.506539 0
M  V30 44 H -3.060863 -3.578642 -0.390524 0
M  V30 45 H -4.833175 -4.667932 1.130027 0
M  V30 46 H -5.461193 -4.061534 -0.480147 0
M  V30 47 H -4.619220 -7.972050 -0.439060 0
M  V30 48 H -3.956520 -6.895013 -1.697407 0
M  V30 49 H -2.234784 -7.517049 -0.199116 0
M  V30 50 H -3.180470 -7.198064 1.264424 0
M  V30 51 H -3.400483 -2.547940 1.748671 0
M  V30 52 H -2.207053 -0.326589 1.728155 0
M  V30 END ATOM
M  V30 BEGIN BOND
M  V30 1 2 1 2
M  V30 2 1 2 3
M  V30 3 2 3 4
M  V30 4 1 4 5
M  V30 5 2 5 6
M  V30 6 1 6 7
M  V30 7 2 7 8
M  V30 8 1 8 9
M  V30 9 2 9 10
M  V30 10 1 10 11
M  V30 11 1 11 12
M  V30 12 2 12 13
M  V30 13 1 13 14
M  V30 14 1 14 15
M  V30 15 1 2 16
M  V30 16 1 16 17
M  V30 17 2 17 18
M  V30 18 1 18 19
M  V30 19 2 19 20
M  V30 20 1 20 21
M  V30 21 1 21 22
M  V30 22 1 22 23
M  V30 23 1 23 24
M  V30 24 1 24 25
M  V30 25 1 25 26
M  V30 26 1 26 27
M  V30 27 1 20 28
M  V30 28 2 28 29
M  V30 29 1 10 5
M  V30 30 2 15 11
M  V30 31 1 29 17
M  V30 32 1 27 22
M  V30 33 1 3 30
M  V30 34 1 4 31
M  V30 35 1 6 32
M  V30 36 1 8 33
M  V30 37 1 9 34
M  V30 38 1 12 35
M  V30 39 1 14 36
M  V30 40 1 15 37
M  V30 41 1 16 38
M  V30 42 1 18 39
M  V30 43 1 19 40
M  V30 44 1 21 41
M  V30 45 1 21 42
M  V30 46 1 23 43
M  V30 47 1 23 44
M  V30 48 1 24 45
M  V30 49 1 24 46
M  V30 50 1 26 47
M  V30 51 1 26 48
M  V30 52 1 27 49
M  V30 53 1 27 50
M  V30 54 1 28 51
M  V30 55 1 29 52
M  V30 END BOND
M  V30 END CTAB
M  END
>  <Dataset>  (767) 
ChEMBL_Kinases

>  <Ligand_Instance>  (767) 
nan

>  <PDB_ID>  (767) 
nan

>  <Standardized_SMILES>  (767) 
O=C(/C=C/c1cnccc1-c1cn[nH]c1)Nc1ccc(CN2CCOCC2)cc1

>  <Name>  (767) 
nan

>  <Pocket>  (767) 
nan

>  <ATP_Site>  (767) 
nan

>  <Peripheral>  (767) 
nan

>  <Num_H_Atoms_ProtBoundConf>  (767) 
nan

>  <Num_Resolved_Atoms>  (767) 
nan

>  <Num_Not_Resolved_Atoms>  (767) 
nan

$$$$
CHEMBL4091496
     RDKit          3D

  0  0  0  0  0  0  0  0  0  0999 V3000
M  V30 BEGIN CTAB
M  V30 COUNTS 26 28 0 0 0
M  V30 BEGIN ATOM
M  V30 1 O -5.162065 -0.846194 1.135778 0
M  V30 2 C -4.296791 -1.245960 0.314639 0
M  V30 3 N -4.595606 -1.884856 -0.911205 0
M  V30 4 C -3.499215 -2.276819 -1.728966 0
M  V30 5 S -3.548144 -2.657630 -3.314103 0
M  V30 6 S -2.087043 -2.242859 -0.591031 0
M  V30 7 C -2.863119 -1.079868 0.564358 0
M  V30 8 C -2.217368 -0.293508 1.409751 0
M  V30 9 C -0.741773 -0.361436 1.420492 0
M  V30 10 C -0.054233 -0.239490 2.623589 0
M  V30 11 C 1.313819 -0.301457 2.639761 0
M  V30 12 C 2.022061 -0.484891 1.468130 0
M  V30 13 C 3.399067 -0.548780 1.475978 0
M  V30 14 C 3.999585 -0.734389 0.248848 0
M  V30 15 C 3.349712 -0.858943 -0.962390 0
M  V30 16 C 1.949524 -0.788889 -0.929657 0
M  V30 17 C 1.303813 -0.603519 0.279825 0
M  V30 18 N -0.061575 -0.540088 0.275567 0
M  V30 19 H -5.588342 -2.079114 -1.238539 0
M  V30 20 H -2.833095 0.345121 2.033036 0
M  V30 21 H -0.561854 -0.094817 3.565399 0
M  V30 22 H 1.882716 -0.211548 3.549441 0
M  V30 23 H 3.977053 -0.459986 2.383476 0
M  V30 24 H 5.096744 -0.781860 0.284130 0
M  V30 25 H 3.959401 -1.000460 -1.844291 0
M  V30 26 H 1.445111 -0.887372 -1.886471 0
M  V30 END ATOM
M  V30 BEGIN BOND
M  V30 1 2 1 2
M  V30 2 1 2 3
M  V30 3 1 3 4
M  V30 4 2 4 5
M  V30 5 1 4 6
M  V30 6 1 6 7
M  V30 7 2 7 8
M  V30 8 1 8 9
M  V30 9 2 9 10
M  V30 10 1 10 11
M  V30 11 2 11 12
M  V30 12 1 12 13
M  V30 13 2 13 14
M  V30 14 1 14 15
M  V30 15 2 15 16
M  V30 16 1 16 17
M  V30 17 2 17 18
M  V30 18 1 7 2
M  V30 19 1 18 9
M  V30 20 1 17 12
M  V30 21 1 3 19
M  V30 22 1 8 20
M  V30 23 1 10 21
M  V30 24 1 11 22
M  V30 25 1 13 23
M  V30 26 1 14 24
M  V30 27 1 15 25
M  V30 28 1 16 26
M  V30 END BOND
M  V30 END CTAB
M  END
>  <Dataset>  (768) 
ChEMBL_Kinases

>  <Ligand_Instance>  (768) 
nan

>  <PDB_ID>  (768) 
nan

>  <Standardized_SMILES>  (768) 
O=C1NC(=S)S/C1=C\c1ccc2ccccc2n1

>  <Name>  (768) 
nan

>  <Pocket>  (768) 
nan

>  <ATP_Site>  (768) 
nan

>  <Peripheral>  (768) 
nan

>  <Num_H_Atoms_ProtBoundConf>  (768) 
nan

>  <Num_Resolved_Atoms>  (768) 
nan

>  <Num_Not_Resolved_Atoms>  (768) 
nan

$$$$
CHEMBL484012
     RDKit          3D

  0  0  0  0  0  0  0  0  0  0999 V3000
M  V30 BEGIN CTAB
M  V30 COUNTS 46 49 0 0 0
M  V30 BEGIN ATOM
M  V30 1 C -3.216395 -0.793777 -1.366418 0
M  V30 2 C -2.845871 -1.409305 -0.171549 0
M  V30 3 C -1.483916 -1.752156 -0.023956 0
M  V30 4 C -0.606669 -1.462804 -1.043606 0
M  V30 5 C 0.931372 -1.769740 -0.844978 0
M  V30 6 C 1.085450 -2.691451 -1.718129 0
M  V30 7 C 2.315328 -2.595502 -1.284039 0
M  V30 8 C 3.224439 -3.658388 -1.986956 0
M  V30 9 C 4.599189 -3.981093 -1.872254 0
M  V30 10 N 5.361476 -3.292570 -1.018559 0
M  V30 11 C 4.843781 -2.290191 -0.253690 0
M  V30 12 C 3.540776 -2.234965 -0.589704 0
M  V30 13 C 2.759710 -1.214580 0.205391 0
M  V30 14 C 1.350651 -0.894968 0.137763 0
M  V30 15 O 0.489542 -0.032401 0.748866 0
M  V30 16 C 0.665810 0.888270 1.711792 0
M  V30 17 C -0.615525 1.591615 2.081544 0
M  V30 18 C -1.583272 0.590040 2.589047 0
M  V30 19 C -2.190660 0.886579 3.940283 0
M  V30 20 C -1.329606 1.605408 4.895467 0
M  V30 21 N -0.270476 2.396321 4.368009 0
M  V30 22 C -0.338673 2.749145 2.996180 0
M  V30 23 C -0.997598 -0.846771 -2.242544 0
M  V30 24 C -2.312890 -0.539006 -2.342045 0
M  V30 25 H -4.286926 -0.622482 -1.252341 0
M  V30 26 H -3.290649 -1.751737 0.765198 0
M  V30 27 H -0.965626 -2.242842 0.791379 0
M  V30 28 H 0.959084 -3.430589 -2.456908 0
M  V30 29 H 2.931095 -4.433537 -2.773869 0
M  V30 30 H 5.178607 -4.739154 -2.371601 0
M  V30 31 H 5.158370 -1.592810 0.480221 0
M  V30 32 H 3.193637 -0.534415 0.983954 0
M  V30 33 H 1.174822 0.530483 2.636872 0
M  V30 34 H 1.355705 1.690026 1.306874 0
M  V30 35 H -0.962929 2.077035 1.116622 0
M  V30 36 H -2.457503 0.603246 1.857928 0
M  V30 37 H -1.210352 -0.447442 2.540039 0
M  V30 38 H -3.212939 1.367742 3.812240 0
M  V30 39 H -2.438112 -0.104805 4.393624 0
M  V30 40 H -0.832160 0.882136 5.612530 0
M  V30 41 H -1.992473 2.234046 5.562765 0
M  V30 42 H 0.683073 2.145300 4.679650 0
M  V30 43 H -1.042649 3.603598 2.793634 0
M  V30 44 H 0.663316 3.139499 2.699814 0
M  V30 45 H -0.314282 -0.624411 -3.031326 0
M  V30 46 H -2.778786 -0.043064 -3.175314 0
M  V30 END ATOM
M  V30 BEGIN BOND
M  V30 1 2 1 2
M  V30 2 1 2 3
M  V30 3 2 3 4
M  V30 4 1 4 5
M  V30 5 2 5 6
M  V30 6 1 6 7
M  V30 7 2 7 8
M  V30 8 1 8 9
M  V30 9 2 9 10
M  V30 10 1 10 11
M  V30 11 2 11 12
M  V30 12 1 12 13
M  V30 13 2 13 14
M  V30 14 1 14 15
M  V30 15 1 15 16
M  V30 16 1 16 17
M  V30 17 1 17 18
M  V30 18 1 18 19
M  V30 19 1 19 20
M  V30 20 1 20 21
M  V30 21 1 21 22
M  V30 22 1 4 23
M  V30 23 2 23 24
M  V30 24 1 24 1
M  V30 25 1 14 5
M  V30 26 1 22 17
M  V30 27 1 12 7
M  V30 28 1 1 25
M  V30 29 1 2 26
M  V30 30 1 3 27
M  V30 31 1 6 28
M  V30 32 1 8 29
M  V30 33 1 9 30
M  V30 34 1 11 31
M  V30 35 1 13 32
M  V30 36 1 16 33
M  V30 37 1 16 34
M  V30 38 1 17 35
M  V30 39 1 18 36
M  V30 40 1 18 37
M  V30 41 1 19 38
M  V30 42 1 19 39
M  V30 43 1 20 40
M  V30 44 1 20 41
M  V30 45 1 21 42
M  V30 46 1 22 43
M  V30 47 1 22 44
M  V30 48 1 23 45
M  V30 49 1 24 46
M  V30 END BOND
M  V30 END CTAB
M  END
>  <Dataset>  (769) 
ChEMBL_Kinases

>  <Ligand_Instance>  (769) 
nan

>  <PDB_ID>  (769) 
nan

>  <Standardized_SMILES>  (769) 
c1ccc(-c2cc3ccncc3cc2OCC2CCCNC2)cc1

>  <Name>  (769) 
nan

>  <Pocket>  (769) 
nan

>  <ATP_Site>  (769) 
nan

>  <Peripheral>  (769) 
nan

>  <Num_H_Atoms_ProtBoundConf>  (769) 
nan

>  <Num_Resolved_Atoms>  (769) 
nan

>  <Num_Not_Resolved_Atoms>  (769) 
nan

$$$$
CHEMBL48449
     RDKit          3D

  0  0  0  0  0  0  0  0  0  0999 V3000
M  V30 BEGIN CTAB
M  V30 COUNTS 26 28 0 0 0
M  V30 BEGIN ATOM
M  V30 1 C 1.011562 0.539928 -0.883068 0
M  V30 2 C 0.873439 0.210139 0.566478 0 CFG=1
M  V30 3 C 1.461442 1.286148 1.399789 0
M  V30 4 O 2.675114 1.617454 1.334257 0
M  V30 5 O 0.482003 1.830101 2.219302 0
M  V30 6 C -0.755874 1.257567 1.912595 0
M  V30 7 O -1.842517 1.746294 2.345142 0
M  V30 8 C -0.534051 0.081794 1.062560 0 CFG=1
M  V30 9 C -1.573018 0.033321 -0.028574 0
M  V30 10 C -0.461060 -1.161813 1.887666 0 CFG=1
M  V30 11 C -0.470626 -2.408719 1.017884 0
M  V30 12 C 0.906502 -2.302288 0.363825 0
M  V30 13 C 1.487250 -1.080324 1.003404 0 CFG=2
M  V30 14 O 0.889682 -1.179821 2.285445 0
M  V30 15 H 2.030227 0.950905 -1.055700 0
M  V30 16 H 0.891378 -0.326332 -1.554026 0
M  V30 17 H 0.287862 1.335452 -1.129732 0
M  V30 18 H -1.359446 -0.694123 -0.809718 0
M  V30 19 H -2.546569 -0.128517 0.473905 0
M  V30 20 H -1.623585 1.059262 -0.466101 0
M  V30 21 H -1.165798 -1.218305 2.717491 0
M  V30 22 H -0.544013 -3.270687 1.693059 0
M  V30 23 H -1.272521 -2.427712 0.280611 0
M  V30 24 H 0.843258 -2.258621 -0.729993 0
M  V30 25 H 1.496811 -3.166228 0.739662 0
M  V30 26 H 2.588506 -1.061803 1.071983 0
M  V30 END ATOM
M  V30 BEGIN BOND
M  V30 1 1 2 1 CFG=3
M  V30 2 1 2 3
M  V30 3 2 3 4
M  V30 4 1 3 5
M  V30 5 1 5 6
M  V30 6 2 6 7
M  V30 7 1 6 8
M  V30 8 1 8 9 CFG=3
M  V30 9 1 8 10
M  V30 10 1 10 11
M  V30 11 1 11 12
M  V30 12 1 12 13
M  V30 13 1 13 14
M  V30 14 1 8 2
M  V30 15 1 14 10
M  V30 16 1 13 2
M  V30 17 1 1 15
M  V30 18 1 1 16
M  V30 19 1 1 17
M  V30 20 1 9 18
M  V30 21 1 9 19
M  V30 22 1 9 20
M  V30 23 1 10 21 CFG=1
M  V30 24 1 11 22
M  V30 25 1 11 23
M  V30 26 1 12 24
M  V30 27 1 12 25
M  V30 28 1 13 26 CFG=1
M  V30 END BOND
M  V30 END CTAB
M  END
>  <Dataset>  (770) 
ChEMBL_Kinases

>  <Ligand_Instance>  (770) 
nan

>  <PDB_ID>  (770) 
nan

>  <Standardized_SMILES>  (770) 
C[C@@]12C(=O)OC(=O)[C@]1(C)[C@H]1CC[C@@H]2O1

>  <Name>  (770) 
CANTHARIDIN

>  <Pocket>  (770) 
nan

>  <ATP_Site>  (770) 
nan

>  <Peripheral>  (770) 
nan

>  <Num_H_Atoms_ProtBoundConf>  (770) 
nan

>  <Num_Resolved_Atoms>  (770) 
nan

>  <Num_Not_Resolved_Atoms>  (770) 
nan

$$$$
CHEMBL4091694
     RDKit          3D

  0  0  0  0  0  0  0  0  0  0999 V3000
M  V30 BEGIN CTAB
M  V30 COUNTS 42 45 0 0 0
M  V30 BEGIN ATOM
M  V30 1 C 0.013144 -4.715307 2.677404 0
M  V30 2 C 1.166351 -5.404253 2.051016 0
M  V30 3 N 1.588181 -6.633046 2.403436 0
M  V30 4 N 2.626996 -6.918222 1.639506 0
M  V30 5 C 2.869112 -5.892689 0.811332 0
M  V30 6 C 1.933068 -4.893217 1.057626 0
M  V30 7 C 1.870613 -3.594822 0.340750 0
M  V30 8 C 1.072635 -2.551479 0.436798 0
M  V30 9 C 1.273240 -1.480136 -0.381341 0
M  V30 10 N 0.602931 -0.316004 -0.471972 0
M  V30 11 C 0.925557 0.650682 -1.337487 0
M  V30 12 C 0.125064 1.929812 -1.376703 0
M  V30 13 N 0.619268 2.943330 -0.531941 0
M  V30 14 C 0.611756 2.761688 0.863329 0
M  V30 15 C -0.709439 2.647013 1.512135 0
M  V30 16 C -1.223243 3.901826 1.873368 0
M  V30 17 C -2.438073 4.058855 2.496905 0
M  V30 18 C -3.220732 2.959487 2.800114 0
M  V30 19 C -2.710109 1.729351 2.442584 0
M  V30 20 C -1.507130 1.570454 1.824919 0
M  V30 21 N 1.964644 0.567666 -2.221979 0
M  V30 22 C 2.704372 -0.555132 -2.218352 0
M  V30 23 O 3.679268 -0.830457 -2.930657 0
M  V30 24 C 2.305112 -1.515372 -1.287798 0
M  V30 25 S 3.029034 -3.205543 -0.932184 0
M  V30 26 H 0.330988 -3.778237 3.204490 0
M  V30 27 H -0.819892 -4.509596 1.975499 0
M  V30 28 H -0.456871 -5.361335 3.470371 0
M  V30 29 H 3.179464 -7.802809 1.669568 0
M  V30 30 H 3.690526 -5.899773 0.077261 0
M  V30 31 H 0.276674 -2.573500 1.165324 0
M  V30 32 H 0.157300 2.292373 -2.418805 0
M  V30 33 H -0.929363 1.640130 -1.196812 0
M  V30 34 H 0.650034 3.903972 -0.898454 0
M  V30 35 H 1.230930 3.569108 1.322236 0
M  V30 36 H 1.216272 1.826624 1.076528 0
M  V30 37 H -0.718040 4.861584 1.698169 0
M  V30 38 H -2.850073 5.014221 2.782389 0
M  V30 39 H -4.171828 3.032932 3.284166 0
M  V30 40 H -3.282196 0.848405 2.657877 0
M  V30 41 H -1.053081 0.638160 1.523232 0
M  V30 42 H 2.242428 1.290712 -2.902133 0
M  V30 END ATOM
M  V30 BEGIN BOND
M  V30 1 1 1 2
M  V30 2 2 2 3
M  V30 3 1 3 4
M  V30 4 1 4 5
M  V30 5 2 5 6
M  V30 6 1 6 7
M  V30 7 2 7 8
M  V30 8 1 8 9
M  V30 9 1 9 10
M  V30 10 2 10 11
M  V30 11 1 11 12
M  V30 12 1 12 13
M  V30 13 1 13 14
M  V30 14 1 14 15
M  V30 15 2 15 16
M  V30 16 1 16 17
M  V30 17 2 17 18
M  V30 18 1 18 19
M  V30 19 2 19 20
M  V30 20 1 11 21
M  V30 21 1 21 22
M  V30 22 2 22 23
M  V30 23 1 22 24
M  V30 24 1 24 25
M  V30 25 1 6 2
M  V30 26 1 25 7
M  V30 27 2 24 9
M  V30 28 1 20 15
M  V30 29 1 1 26
M  V30 30 1 1 27
M  V30 31 1 1 28
M  V30 32 1 4 29
M  V30 33 1 5 30
M  V30 34 1 8 31
M  V30 35 1 12 32
M  V30 36 1 12 33
M  V30 37 1 13 34
M  V30 38 1 14 35
M  V30 39 1 14 36
M  V30 40 1 16 37
M  V30 41 1 17 38
M  V30 42 1 18 39
M  V30 43 1 19 40
M  V30 44 1 20 41
M  V30 45 1 21 42
M  V30 END BOND
M  V30 END CTAB
M  END
>  <Dataset>  (771) 
ChEMBL_Kinases

>  <Ligand_Instance>  (771) 
nan

>  <PDB_ID>  (771) 
nan

>  <Standardized_SMILES>  (771) 
Cc1n[nH]cc1-c1cc2nc(CNCc3ccccc3)[nH]c(=O)c2s1

>  <Name>  (771) 
nan

>  <Pocket>  (771) 
nan

>  <ATP_Site>  (771) 
nan

>  <Peripheral>  (771) 
nan

>  <Num_H_Atoms_ProtBoundConf>  (771) 
nan

>  <Num_Resolved_Atoms>  (771) 
nan

>  <Num_Not_Resolved_Atoms>  (771) 
nan

$$$$
CHEMBL4092981
     RDKit          3D

  0  0  0  0  0  0  0  0  0  0999 V3000
M  V30 BEGIN CTAB
M  V30 COUNTS 49 52 0 0 0
M  V30 BEGIN ATOM
M  V30 1 N 2.447765 -6.293642 2.274096 0
M  V30 2 S 1.300242 -6.574270 1.033417 0
M  V30 3 O 0.140102 -7.321095 1.666287 0
M  V30 4 O 1.933941 -7.465074 0.008205 0
M  V30 5 C 0.766436 -5.094531 0.279459 0
M  V30 6 C 1.493771 -4.666562 -0.810200 0
M  V30 7 C 1.179206 -3.514061 -1.497287 0
M  V30 8 C 0.088257 -2.816048 -1.023269 0
M  V30 9 N -0.265372 -1.611966 -1.714604 0
M  V30 10 C -1.327321 -0.699056 -1.462620 0
M  V30 11 N -0.989466 0.271977 -0.613269 0
M  V30 12 C -1.831266 1.241748 -0.232515 0
M  V30 13 O -1.778039 2.319946 0.581820 0
M  V30 14 C -0.843035 2.904255 1.385734 0
M  V30 15 C -0.278064 2.133920 2.521593 0
M  V30 16 C 0.710350 2.995423 3.274276 0
M  V30 17 C 2.019525 3.202413 2.637019 0
M  V30 18 C 2.587952 2.029307 1.902205 0
M  V30 19 C 1.554200 1.165254 1.239420 0
M  V30 20 C 0.438978 0.872081 2.213381 0
M  V30 21 C -3.123467 1.179245 -0.790847 0
M  V30 22 N -4.292290 1.886024 -0.733252 0
M  V30 23 N -5.208420 1.336573 -1.501254 0
M  V30 24 N -4.754828 0.259591 -2.115035 0
M  V30 25 C -3.493069 0.165730 -1.684086 0
M  V30 26 N -2.556100 -0.764916 -1.998236 0
M  V30 27 C -0.689279 -3.173982 0.055268 0
M  V30 28 C -0.312509 -4.346297 0.698063 0
M  V30 29 H 2.960966 -5.398592 2.151442 0
M  V30 30 H 2.132247 -6.506019 3.225697 0
M  V30 31 H 2.352682 -5.225333 -1.175069 0
M  V30 32 H 1.744181 -3.170963 -2.353095 0
M  V30 33 H 0.267498 -1.256692 -2.542159 0
M  V30 34 H -1.355395 3.801908 1.871452 0
M  V30 35 H -0.023425 3.435701 0.795409 0
M  V30 36 H -1.109672 1.932297 3.235723 0
M  V30 37 H 0.806066 2.539170 4.283399 0
M  V30 38 H 0.206652 3.983740 3.438006 0
M  V30 39 H 2.762584 3.445728 3.450029 0
M  V30 40 H 1.984907 4.127948 2.006051 0
M  V30 41 H 3.239561 1.395636 2.537553 0
M  V30 42 H 3.233958 2.445378 1.100900 0
M  V30 43 H 2.023650 0.194730 0.977618 0
M  V30 44 H 1.241345 1.638156 0.305037 0
M  V30 45 H -0.156617 -0.007369 1.994357 0
M  V30 46 H 0.986651 0.596187 3.175081 0
M  V30 47 H -5.216477 -0.395987 -2.781228 0
M  V30 48 H -1.532944 -2.592665 0.385942 0
M  V30 49 H -0.873717 -4.712396 1.569683 0
M  V30 END ATOM
M  V30 BEGIN BOND
M  V30 1 1 1 2
M  V30 2 2 2 3
M  V30 3 2 2 4
M  V30 4 1 2 5
M  V30 5 2 5 6
M  V30 6 1 6 7
M  V30 7 2 7 8
M  V30 8 1 8 9
M  V30 9 1 9 10
M  V30 10 2 10 11
M  V30 11 1 11 12
M  V30 12 1 12 13
M  V30 13 1 13 14
M  V30 14 1 14 15
M  V30 15 1 15 16
M  V30 16 1 16 17
M  V30 17 1 17 18
M  V30 18 1 18 19
M  V30 19 1 19 20
M  V30 20 2 12 21
M  V30 21 1 21 22
M  V30 22 2 22 23
M  V30 23 1 23 24
M  V30 24 1 24 25
M  V30 25 2 25 26
M  V30 26 1 8 27
M  V30 27 2 27 28
M  V30 28 1 28 5
M  V30 29 1 26 10
M  V30 30 1 20 15
M  V30 31 1 25 21
M  V30 32 1 1 29
M  V30 33 1 1 30
M  V30 34 1 6 31
M  V30 35 1 7 32
M  V30 36 1 9 33
M  V30 37 1 14 34
M  V30 38 1 14 35
M  V30 39 1 15 36
M  V30 40 1 16 37
M  V30 41 1 16 38
M  V30 42 1 17 39
M  V30 43 1 17 40
M  V30 44 1 18 41
M  V30 45 1 18 42
M  V30 46 1 19 43
M  V30 47 1 19 44
M  V30 48 1 20 45
M  V30 49 1 20 46
M  V30 50 1 24 47
M  V30 51 1 27 48
M  V30 52 1 28 49
M  V30 END BOND
M  V30 END CTAB
M  END
>  <Dataset>  (772) 
ChEMBL_Kinases

>  <Ligand_Instance>  (772) 
nan

>  <PDB_ID>  (772) 
nan

>  <Standardized_SMILES>  (772) 
NS(=O)(=O)c1ccc(Nc2nc(OCC3CCCCC3)c3nn[nH]c3n2)cc1

>  <Name>  (772) 
nan

>  <Pocket>  (772) 
nan

>  <ATP_Site>  (772) 
nan

>  <Peripheral>  (772) 
nan

>  <Num_H_Atoms_ProtBoundConf>  (772) 
nan

>  <Num_Resolved_Atoms>  (772) 
nan

>  <Num_Not_Resolved_Atoms>  (772) 
nan

$$$$
CHEMBL4092865
     RDKit          3D

  0  0  0  0  0  0  0  0  0  0999 V3000
M  V30 BEGIN CTAB
M  V30 COUNTS 59 63 0 0 0
M  V30 BEGIN ATOM
M  V30 1 O -0.399395 -0.920100 5.138951 0
M  V30 2 C 0.395111 -0.908544 4.178462 0
M  V30 3 C 1.836966 -1.068870 4.282588 0
M  V30 4 C 2.752170 -1.064931 3.332829 0
M  V30 5 C 4.172497 -1.232215 3.512426 0
M  V30 6 C 4.778035 -1.423340 4.757183 0
M  V30 7 N 6.105163 -1.584769 4.871296 0
M  V30 8 C 6.973268 -1.581743 3.847820 0
M  V30 9 C 6.369091 -1.391146 2.612947 0
M  V30 10 C 5.015247 -1.218630 2.422227 0
M  V30 11 C 4.558276 -1.014194 1.037488 0
M  V30 12 C 4.997061 -1.915118 0.066436 0
M  V30 13 N 4.473773 -1.550278 -1.140529 0
M  V30 14 N 3.727197 -0.458041 -0.953063 0
M  V30 15 C 2.982022 0.276610 -1.950088 0
M  V30 16 C 1.732189 0.986479 -1.582101 0
M  V30 17 C 2.954308 1.769258 -1.918965 0
M  V30 18 C 3.755729 -0.107257 0.343421 0
M  V30 19 N -0.209369 -0.725401 2.932571 0
M  V30 20 C -1.403674 -0.530409 2.193188 0
M  V30 21 C -2.023110 -1.720179 1.780179 0
M  V30 22 C -3.195671 -1.776166 1.047315 0
M  V30 23 C -3.701473 -0.525520 0.759875 0
M  V30 24 C -4.955182 -0.457616 -0.041130 0
M  V30 25 N -4.607295 -0.382059 -1.448586 0
M  V30 26 C -5.829105 -0.298055 -2.220253 0
M  V30 27 C -6.124785 -1.570839 -2.958709 0
M  V30 28 O -5.150581 -1.900843 -3.897721 0
M  V30 29 C -3.869673 -1.654147 -3.406389 0
M  V30 30 C -3.878406 -1.537581 -1.893364 0
M  V30 31 C -3.164021 0.689891 1.122981 0
M  V30 32 C -1.990596 0.662122 1.854184 0
M  V30 33 H 2.180329 -1.208556 5.287654 0
M  V30 34 H 2.358545 -0.926257 2.337693 0
M  V30 35 H 4.164465 -1.441457 5.641297 0
M  V30 36 H 8.018699 -1.718532 4.023308 0
M  V30 37 H 7.039303 -1.382329 1.739725 0
M  V30 38 H 5.614120 -2.794486 -0.000509 0
M  V30 39 H 2.944051 -0.182573 -2.981920 0
M  V30 40 H 0.904090 1.125616 -2.316661 0
M  V30 41 H 1.371574 0.937847 -0.536284 0
M  V30 42 H 3.014443 2.301259 -2.901843 0
M  V30 43 H 3.416425 2.354233 -1.109344 0
M  V30 44 H 3.310279 0.688368 0.903909 0
M  V30 45 H 0.401465 -0.697297 2.060072 0
M  V30 46 H -1.590546 -2.702700 2.028436 0
M  V30 47 H -3.630497 -2.717620 0.755964 0
M  V30 48 H -5.517167 -1.432483 0.054047 0
M  V30 49 H -5.646235 0.312968 0.282579 0
M  V30 50 H -5.782305 0.504272 -2.994657 0
M  V30 51 H -6.682363 -0.009737 -1.568514 0
M  V30 52 H -7.129408 -1.482125 -3.446128 0
M  V30 53 H -6.201128 -2.402412 -2.240985 0
M  V30 54 H -3.494336 -0.743743 -3.914560 0
M  V30 55 H -3.229788 -2.496512 -3.729828 0
M  V30 56 H -2.822219 -1.436972 -1.571375 0
M  V30 57 H -4.303284 -2.493875 -1.522521 0
M  V30 58 H -3.623218 1.622168 0.860378 0
M  V30 59 H -1.492189 1.541629 2.186146 0
M  V30 END ATOM
M  V30 BEGIN BOND
M  V30 1 2 1 2
M  V30 2 1 2 3
M  V30 3 2 3 4
M  V30 4 1 4 5
M  V30 5 2 5 6
M  V30 6 1 6 7
M  V30 7 2 7 8
M  V30 8 1 8 9
M  V30 9 2 9 10
M  V30 10 1 10 11
M  V30 11 1 11 12
M  V30 12 2 12 13
M  V30 13 1 13 14
M  V30 14 1 14 15
M  V30 15 1 15 16
M  V30 16 1 16 17
M  V30 17 1 14 18
M  V30 18 1 2 19
M  V30 19 1 19 20
M  V30 20 2 20 21
M  V30 21 1 21 22
M  V30 22 2 22 23
M  V30 23 1 23 24
M  V30 24 1 24 25
M  V30 25 1 25 26
M  V30 26 1 26 27
M  V30 27 1 27 28
M  V30 28 1 28 29
M  V30 29 1 29 30
M  V30 30 1 23 31
M  V30 31 2 31 32
M  V30 32 1 10 5
M  V30 33 2 18 11
M  V30 34 1 32 20
M  V30 35 1 17 15
M  V30 36 1 30 25
M  V30 37 1 3 33
M  V30 38 1 4 34
M  V30 39 1 6 35
M  V30 40 1 8 36
M  V30 41 1 9 37
M  V30 42 1 12 38
M  V30 43 1 15 39
M  V30 44 1 16 40
M  V30 45 1 16 41
M  V30 46 1 17 42
M  V30 47 1 17 43
M  V30 48 1 18 44
M  V30 49 1 19 45
M  V30 50 1 21 46
M  V30 51 1 22 47
M  V30 52 1 24 48
M  V30 53 1 24 49
M  V30 54 1 26 50
M  V30 55 1 26 51
M  V30 56 1 27 52
M  V30 57 1 27 53
M  V30 58 1 29 54
M  V30 59 1 29 55
M  V30 60 1 30 56
M  V30 61 1 30 57
M  V30 62 1 31 58
M  V30 63 1 32 59
M  V30 END BOND
M  V30 END CTAB
M  END
>  <Dataset>  (773) 
ChEMBL_Kinases

>  <Ligand_Instance>  (773) 
nan

>  <PDB_ID>  (773) 
nan

>  <Standardized_SMILES>  (773) 
O=C(/C=C/c1cnccc1-c1cnn(C2CC2)c1)Nc1ccc(CN2CCOCC2)cc1

>  <Name>  (773) 
nan

>  <Pocket>  (773) 
nan

>  <ATP_Site>  (773) 
nan

>  <Peripheral>  (773) 
nan

>  <Num_H_Atoms_ProtBoundConf>  (773) 
nan

>  <Num_Resolved_Atoms>  (773) 
nan

>  <Num_Not_Resolved_Atoms>  (773) 
nan

$$$$
CHEMBL482770
     RDKit          3D

  0  0  0  0  0  0  0  0  0  0999 V3000
M  V30 BEGIN CTAB
M  V30 COUNTS 48 51 0 0 0
M  V30 BEGIN ATOM
M  V30 1 N -0.633580 -5.430528 -0.096401 0
M  V30 2 C 0.075446 -4.720143 0.938627 0
M  V30 3 C 1.007546 -3.702737 0.348357 0
M  V30 4 C 2.312386 -4.036233 0.035203 0
M  V30 5 C 3.171261 -3.097639 -0.509003 0
M  V30 6 C 2.750268 -1.803081 -0.754466 0
M  V30 7 C 1.441137 -1.454571 -0.444345 0
M  V30 8 C 0.864724 -0.108618 -0.655855 0
M  V30 9 C 1.223064 0.372413 -1.922515 0
M  V30 10 C 0.780813 1.625442 -2.318525 0
M  V30 11 C 1.095994 2.164629 -3.555728 0
M  V30 12 C 0.587507 3.430969 -3.825975 0
M  V30 13 N -0.176765 4.129433 -2.953949 0
M  V30 14 C -0.485466 3.603852 -1.744864 0
M  V30 15 C 0.001101 2.351011 -1.442672 0
M  V30 16 C -0.349424 1.877291 -0.200265 0
M  V30 17 C 0.070515 0.637701 0.228569 0
M  V30 18 O -0.093735 -0.112773 1.371451 0
M  V30 19 C -0.831783 0.336577 2.452387 0
M  V30 20 C -0.024848 0.460079 3.727594 0
M  V30 21 C -0.904214 0.205775 4.930887 0
M  V30 22 N -2.131689 0.953834 4.733688 0
M  V30 23 C -2.905083 0.230330 3.745747 0
M  V30 24 C -1.997473 -0.560647 2.806830 0
M  V30 25 C 0.602174 -2.408163 0.097969 0
M  V30 26 H -1.368320 -5.998209 0.379006 0
M  V30 27 H 0.009325 -6.100822 -0.564867 0
M  V30 28 H 0.730164 -5.473397 1.435940 0
M  V30 29 H -0.573349 -4.289133 1.716727 0
M  V30 30 H 2.630536 -5.059824 0.233921 0
M  V30 31 H 4.187615 -3.370515 -0.749081 0
M  V30 32 H 3.376956 -1.023005 -1.179345 0
M  V30 33 H 1.816922 -0.126776 -2.646256 0
M  V30 34 H 1.699505 1.602829 -4.233461 0
M  V30 35 H 0.841745 3.852708 -4.809945 0
M  V30 36 H -1.101831 4.181725 -1.057058 0
M  V30 37 H -0.946866 2.356428 0.552353 0
M  V30 38 H -1.237083 1.337274 2.245613 0
M  V30 39 H 0.855247 -0.171518 3.784343 0
M  V30 40 H 0.343771 1.519673 3.858590 0
M  V30 41 H -1.069417 -0.848168 5.164503 0
M  V30 42 H -0.420689 0.647582 5.837297 0
M  V30 43 H -2.671404 1.073384 5.618567 0
M  V30 44 H -3.553146 -0.545017 4.218347 0
M  V30 45 H -3.542852 0.863786 3.119471 0
M  V30 46 H -1.658598 -1.504948 3.268604 0
M  V30 47 H -2.627507 -0.830657 1.946459 0
M  V30 48 H -0.426576 -2.204814 0.362252 0
M  V30 END ATOM
M  V30 BEGIN BOND
M  V30 1 1 1 2
M  V30 2 1 2 3
M  V30 3 2 3 4
M  V30 4 1 4 5
M  V30 5 2 5 6
M  V30 6 1 6 7
M  V30 7 1 7 8
M  V30 8 2 8 9
M  V30 9 1 9 10
M  V30 10 2 10 11
M  V30 11 1 11 12
M  V30 12 2 12 13
M  V30 13 1 13 14
M  V30 14 2 14 15
M  V30 15 1 15 16
M  V30 16 2 16 17
M  V30 17 1 17 18
M  V30 18 1 18 19
M  V30 19 1 19 20
M  V30 20 1 20 21
M  V30 21 1 21 22
M  V30 22 1 22 23
M  V30 23 1 23 24
M  V30 24 2 7 25
M  V30 25 1 25 3
M  V30 26 1 17 8
M  V30 27 1 24 19
M  V30 28 1 15 10
M  V30 29 1 1 26
M  V30 30 1 1 27
M  V30 31 1 2 28
M  V30 32 1 2 29
M  V30 33 1 4 30
M  V30 34 1 5 31
M  V30 35 1 6 32
M  V30 36 1 9 33
M  V30 37 1 11 34
M  V30 38 1 12 35
M  V30 39 1 14 36
M  V30 40 1 16 37
M  V30 41 1 19 38
M  V30 42 1 20 39
M  V30 43 1 20 40
M  V30 44 1 21 41
M  V30 45 1 21 42
M  V30 46 1 22 43
M  V30 47 1 23 44
M  V30 48 1 23 45
M  V30 49 1 24 46
M  V30 50 1 24 47
M  V30 51 1 25 48
M  V30 END BOND
M  V30 END CTAB
M  END
>  <Dataset>  (774) 
ChEMBL_Kinases

>  <Ligand_Instance>  (774) 
nan

>  <PDB_ID>  (774) 
nan

>  <Standardized_SMILES>  (774) 
NCc1cccc(-c2cc3ccncc3cc2OC2CCNCC2)c1

>  <Name>  (774) 
nan

>  <Pocket>  (774) 
nan

>  <ATP_Site>  (774) 
nan

>  <Peripheral>  (774) 
nan

>  <Num_H_Atoms_ProtBoundConf>  (774) 
nan

>  <Num_Resolved_Atoms>  (774) 
nan

>  <Num_Not_Resolved_Atoms>  (774) 
nan

$$$$
CHEMBL482944
     RDKit          3D

  0  0  0  0  0  0  0  0  0  0999 V3000
M  V30 BEGIN CTAB
M  V30 COUNTS 51 54 0 0 0
M  V30 BEGIN ATOM
M  V30 1 N 2.705407 -5.516593 2.687302 0
M  V30 2 S 3.358793 -4.982609 1.161838 0
M  V30 3 O 4.837197 -5.101326 1.231153 0
M  V30 4 O 2.789939 -5.863819 0.091803 0
M  V30 5 C 2.945788 -3.314130 0.866628 0
M  V30 6 C 1.753090 -3.098783 0.188285 0
M  V30 7 C 1.334493 -1.792891 -0.096352 0
M  V30 8 C 2.095053 -0.702765 0.289760 0
M  V30 9 C 1.706681 0.678369 0.019268 0
M  V30 10 C 2.565089 1.649006 -0.461717 0
M  V30 11 C 2.133715 2.946653 -0.698778 0
M  V30 12 C 3.026762 3.891020 -1.181627 0
M  V30 13 C 2.580626 5.179740 -1.412500 0
M  V30 14 N 1.271259 5.451299 -1.148671 0
M  V30 15 C 0.413852 4.533764 -0.682181 0
M  V30 16 C 0.810080 3.227749 -0.433837 0
M  V30 17 C -0.075944 2.285443 0.046652 0
M  V30 18 C 0.366764 0.996114 0.278569 0
M  V30 19 O -0.553319 0.088292 0.758571 0
M  V30 20 C -1.898507 0.316550 1.043229 0
M  V30 21 C -2.557026 -0.957308 1.554152 0
M  V30 22 C -3.990162 -0.655471 1.841707 0
M  V30 23 C -4.943315 -1.749044 1.521360 0
M  V30 24 C -4.190938 -3.068682 1.717968 0
M  V30 25 N -3.298891 -3.112610 0.573941 0
M  V30 26 C -2.287576 -2.095038 0.632955 0
M  V30 27 C 3.294376 -0.943069 0.972770 0
M  V30 28 C 3.706732 -2.230255 1.253192 0
M  V30 29 H 3.220635 -5.045429 3.483996 0
M  V30 30 H 1.709316 -5.180615 2.816326 0
M  V30 31 H 1.118521 -3.912614 -0.137488 0
M  V30 32 H 0.403861 -1.629942 -0.625457 0
M  V30 33 H 3.604705 1.356430 -0.650552 0
M  V30 34 H 4.052113 3.632870 -1.376029 0
M  V30 35 H 3.247282 5.953874 -1.791489 0
M  V30 36 H -0.608320 4.837322 -0.500771 0
M  V30 37 H -1.091240 2.620140 0.217942 0
M  V30 38 H -2.096322 1.172272 1.688618 0
M  V30 39 H -2.413216 0.519846 0.065164 0
M  V30 40 H -2.053666 -1.187635 2.519183 0
M  V30 41 H -4.120145 -0.373728 2.907370 0
M  V30 42 H -4.323864 0.235860 1.249369 0
M  V30 43 H -5.804501 -1.699251 2.207838 0
M  V30 44 H -5.285813 -1.716077 0.449580 0
M  V30 45 H -4.836363 -3.943274 1.715443 0
M  V30 46 H -3.577856 -2.933549 2.632230 0
M  V30 47 H -3.847608 -3.050222 -0.318444 0
M  V30 48 H -2.155563 -1.692226 -0.393269 0
M  V30 49 H -1.334032 -2.615010 0.883246 0
M  V30 50 H 3.916944 -0.094665 1.290492 0
M  V30 51 H 4.622820 -2.440689 1.775921 0
M  V30 END ATOM
M  V30 BEGIN BOND
M  V30 1 1 1 2
M  V30 2 2 2 3
M  V30 3 2 2 4
M  V30 4 1 2 5
M  V30 5 2 5 6
M  V30 6 1 6 7
M  V30 7 2 7 8
M  V30 8 1 8 9
M  V30 9 2 9 10
M  V30 10 1 10 11
M  V30 11 2 11 12
M  V30 12 1 12 13
M  V30 13 2 13 14
M  V30 14 1 14 15
M  V30 15 2 15 16
M  V30 16 1 16 17
M  V30 17 2 17 18
M  V30 18 1 18 19
M  V30 19 1 19 20
M  V30 20 1 20 21
M  V30 21 1 21 22
M  V30 22 1 22 23
M  V30 23 1 23 24
M  V30 24 1 24 25
M  V30 25 1 25 26
M  V30 26 1 8 27
M  V30 27 2 27 28
M  V30 28 1 28 5
M  V30 29 1 18 9
M  V30 30 1 26 21
M  V30 31 1 16 11
M  V30 32 1 1 29
M  V30 33 1 1 30
M  V30 34 1 6 31
M  V30 35 1 7 32
M  V30 36 1 10 33
M  V30 37 1 12 34
M  V30 38 1 13 35
M  V30 39 1 15 36
M  V30 40 1 17 37
M  V30 41 1 20 38
M  V30 42 1 20 39
M  V30 43 1 21 40
M  V30 44 1 22 41
M  V30 45 1 22 42
M  V30 46 1 23 43
M  V30 47 1 23 44
M  V30 48 1 24 45
M  V30 49 1 24 46
M  V30 50 1 25 47
M  V30 51 1 26 48
M  V30 52 1 26 49
M  V30 53 1 27 50
M  V30 54 1 28 51
M  V30 END BOND
M  V30 END CTAB
M  END
>  <Dataset>  (775) 
ChEMBL_Kinases

>  <Ligand_Instance>  (775) 
nan

>  <PDB_ID>  (775) 
nan

>  <Standardized_SMILES>  (775) 
NS(=O)(=O)c1ccc(-c2cc3ccncc3cc2OCC2CCCNC2)cc1

>  <Name>  (775) 
nan

>  <Pocket>  (775) 
nan

>  <ATP_Site>  (775) 
nan

>  <Peripheral>  (775) 
nan

>  <Num_H_Atoms_ProtBoundConf>  (775) 
nan

>  <Num_Resolved_Atoms>  (775) 
nan

>  <Num_Not_Resolved_Atoms>  (775) 
nan

$$$$
CHEMBL482945
     RDKit          3D

  0  0  0  0  0  0  0  0  0  0999 V3000
M  V30 BEGIN CTAB
M  V30 COUNTS 46 49 0 0 0
M  V30 BEGIN ATOM
M  V30 1 C 2.286379 -5.108001 1.195120 0
M  V30 2 C 3.266887 -4.506202 0.416581 0
M  V30 3 C 3.039812 -3.245170 -0.087392 0
M  V30 4 C 1.858034 -2.573916 0.168561 0
M  V30 5 C 1.591512 -1.233987 -0.355191 0
M  V30 6 C 1.954588 -1.164368 -1.708654 0
M  V30 7 C 1.785751 0.014762 -2.403382 0
M  V30 8 C 2.106999 0.197278 -3.732545 0
M  V30 9 C 1.900101 1.423548 -4.343893 0
M  V30 10 N 1.382641 2.478857 -3.676259 0
M  V30 11 C 1.046200 2.355671 -2.358369 0
M  V30 12 C 1.262873 1.123570 -1.774974 0
M  V30 13 C 0.912020 1.039212 -0.447633 0
M  V30 14 C 1.057032 -0.109395 0.296074 0
M  V30 15 O 0.809084 -0.488670 1.585790 0
M  V30 16 C 0.272104 0.250243 2.638629 0
M  V30 17 C -1.114127 0.760479 2.458071 0
M  V30 18 C -2.067327 -0.402619 2.247674 0
M  V30 19 C -3.496293 0.096713 2.242984 0
M  V30 20 N -3.828870 0.827429 3.433665 0
M  V30 21 C -2.740115 0.959592 4.351741 0
M  V30 22 C -1.476971 1.523543 3.723603 0
M  V30 23 C 0.863920 -3.167132 0.949636 0
M  V30 24 C 1.099564 -4.435286 1.452853 0
M  V30 25 H 2.446616 -6.091462 1.596524 0
M  V30 26 H 4.200010 -5.027548 0.210261 0
M  V30 27 H 3.771166 -2.735175 -0.697960 0
M  V30 28 H 2.371846 -1.958514 -2.308718 0
M  V30 29 H 2.523263 -0.653929 -4.267175 0
M  V30 30 H 2.157861 1.551386 -5.390122 0
M  V30 31 H 0.631367 3.190325 -1.810553 0
M  V30 32 H 0.506843 1.827668 0.148056 0
M  V30 33 H 0.409550 -0.272955 3.617939 0
M  V30 34 H 0.927418 1.169483 2.753779 0
M  V30 35 H -1.271767 1.435120 1.605677 0
M  V30 36 H -1.855098 -0.798071 1.232740 0
M  V30 37 H -1.911740 -1.225278 2.959635 0
M  V30 38 H -3.649948 0.767972 1.385808 0
M  V30 39 H -4.174819 -0.760263 2.105743 0
M  V30 40 H -4.389787 1.672837 3.300856 0
M  V30 41 H -2.497331 0.004074 4.845383 0
M  V30 42 H -3.049348 1.694141 5.140205 0
M  V30 43 H -0.678376 1.457746 4.487907 0
M  V30 44 H -1.586042 2.599964 3.487781 0
M  V30 45 H -0.069950 -2.635684 1.151349 0
M  V30 46 H 0.304764 -4.874458 2.060096 0
M  V30 END ATOM
M  V30 BEGIN BOND
M  V30 1 2 1 2
M  V30 2 1 2 3
M  V30 3 2 3 4
M  V30 4 1 4 5
M  V30 5 2 5 6
M  V30 6 1 6 7
M  V30 7 2 7 8
M  V30 8 1 8 9
M  V30 9 2 9 10
M  V30 10 1 10 11
M  V30 11 2 11 12
M  V30 12 1 12 13
M  V30 13 2 13 14
M  V30 14 1 14 15
M  V30 15 1 15 16
M  V30 16 1 16 17
M  V30 17 1 17 18
M  V30 18 1 18 19
M  V30 19 1 19 20
M  V30 20 1 20 21
M  V30 21 1 21 22
M  V30 22 1 4 23
M  V30 23 2 23 24
M  V30 24 1 24 1
M  V30 25 1 14 5
M  V30 26 1 22 17
M  V30 27 1 12 7
M  V30 28 1 1 25
M  V30 29 1 2 26
M  V30 30 1 3 27
M  V30 31 1 6 28
M  V30 32 1 8 29
M  V30 33 1 9 30
M  V30 34 1 11 31
M  V30 35 1 13 32
M  V30 36 1 16 33
M  V30 37 1 16 34
M  V30 38 1 17 35
M  V30 39 1 18 36
M  V30 40 1 18 37
M  V30 41 1 19 38
M  V30 42 1 19 39
M  V30 43 1 20 40
M  V30 44 1 21 41
M  V30 45 1 21 42
M  V30 46 1 22 43
M  V30 47 1 22 44
M  V30 48 1 23 45
M  V30 49 1 24 46
M  V30 END BOND
M  V30 END CTAB
M  END
>  <Dataset>  (776) 
ChEMBL_Kinases

>  <Ligand_Instance>  (776) 
nan

>  <PDB_ID>  (776) 
nan

>  <Standardized_SMILES>  (776) 
c1ccc(-c2cc3ccncc3cc2OCC2CCNCC2)cc1

>  <Name>  (776) 
nan

>  <Pocket>  (776) 
nan

>  <ATP_Site>  (776) 
nan

>  <Peripheral>  (776) 
nan

>  <Num_H_Atoms_ProtBoundConf>  (776) 
nan

>  <Num_Resolved_Atoms>  (776) 
nan

>  <Num_Not_Resolved_Atoms>  (776) 
nan

$$$$
CHEMBL4092709
     RDKit          3D

  0  0  0  0  0  0  0  0  0  0999 V3000
M  V30 BEGIN CTAB
M  V30 COUNTS 37 40 0 0 0
M  V30 BEGIN ATOM
M  V30 1 C -0.711961 -6.172776 3.329213 0
M  V30 2 S 0.584175 -5.376471 2.471914 0
M  V30 3 C 0.193128 -3.634235 1.893823 0
M  V30 4 S 1.608287 -2.958193 1.033848 0
M  V30 5 C 0.893296 -1.405392 0.667861 0
M  V30 6 C 1.768646 -0.476186 -0.082002 0
M  V30 7 O 2.937701 -0.859709 -0.394357 0
M  V30 8 N 1.493778 0.813547 -0.517783 0
M  V30 9 C 2.387290 1.648645 -1.234392 0
M  V30 10 C 3.677798 1.475751 -1.684341 0
M  V30 11 C 4.133894 2.596714 -2.344794 0
M  V30 12 N 3.103590 3.439496 -2.284520 0
M  V30 13 C 3.152090 4.785122 -2.874984 0
M  V30 14 N 2.095571 2.915049 -1.653300 0
M  V30 15 C -0.350403 -1.472518 1.201434 0
M  V30 16 C -0.661427 -2.598794 1.803444 0
M  V30 17 C -1.991839 -2.862009 2.461299 0
M  V30 18 S -2.839472 -4.003196 3.285679 0
M  V30 19 N -4.443714 -3.135742 3.578435 0
M  V30 20 C -4.040904 -1.921809 2.905606 0
M  V30 21 C -2.818009 -1.734670 2.327349 0
M  V30 22 C -2.605979 -0.426973 1.697393 0
M  V30 23 C -1.269776 -0.325786 1.100168 0
M  V30 24 H -0.975755 -5.799823 4.342217 0
M  V30 25 H -0.344535 -7.244354 3.599797 0
M  V30 26 H -1.561360 -6.417373 2.670604 0
M  V30 27 H 0.551620 1.195287 -0.299730 0
M  V30 28 H 4.272177 0.596306 -1.552305 0
M  V30 29 H 5.106033 2.729857 -2.795469 0
M  V30 30 H 3.806464 5.435978 -2.257215 0
M  V30 31 H 3.594528 4.715233 -3.880537 0
M  V30 32 H 2.141012 5.225424 -2.976249 0
M  V30 33 H -4.986608 -1.405407 3.076047 0
M  V30 34 H -2.760740 0.418484 2.435928 0
M  V30 35 H -3.364055 -0.214958 0.892557 0
M  V30 36 H -0.786232 0.607468 1.518928 0
M  V30 37 H -1.390659 -0.108410 -0.018595 0
M  V30 END ATOM
M  V30 BEGIN BOND
M  V30 1 1 1 2
M  V30 2 1 2 3
M  V30 3 1 3 4
M  V30 4 1 4 5
M  V30 5 1 5 6
M  V30 6 2 6 7
M  V30 7 1 6 8
M  V30 8 1 8 9
M  V30 9 1 9 10
M  V30 10 2 10 11
M  V30 11 1 11 12
M  V30 12 1 12 13
M  V30 13 1 12 14
M  V30 14 2 5 15
M  V30 15 1 15 16
M  V30 16 1 16 17
M  V30 17 1 17 18
M  V30 18 1 18 19
M  V30 19 2 19 20
M  V30 20 1 20 21
M  V30 21 1 21 22
M  V30 22 1 22 23
M  V30 23 2 16 3
M  V30 24 2 21 17
M  V30 25 2 14 9
M  V30 26 1 23 15
M  V30 27 1 1 24
M  V30 28 1 1 25
M  V30 29 1 1 26
M  V30 30 1 8 27
M  V30 31 1 10 28
M  V30 32 1 11 29
M  V30 33 1 13 30
M  V30 34 1 13 31
M  V30 35 1 13 32
M  V30 36 1 20 33
M  V30 37 1 22 34
M  V30 38 1 22 35
M  V30 39 1 23 36
M  V30 40 1 23 37
M  V30 END BOND
M  V30 END CTAB
M  END
>  <Dataset>  (777) 
ChEMBL_Kinases

>  <Ligand_Instance>  (777) 
nan

>  <PDB_ID>  (777) 
nan

>  <Standardized_SMILES>  (777) 
CSc1sc(C(=O)Nc2ccn(C)n2)c2c1-c1sncc1CC2

>  <Name>  (777) 
nan

>  <Pocket>  (777) 
nan

>  <ATP_Site>  (777) 
nan

>  <Peripheral>  (777) 
nan

>  <Num_H_Atoms_ProtBoundConf>  (777) 
nan

>  <Num_Resolved_Atoms>  (777) 
nan

>  <Num_Not_Resolved_Atoms>  (777) 
nan

$$$$
CHEMBL4092704
     RDKit          3D

  0  0  0  0  0  0  0  0  0  0999 V3000
M  V30 BEGIN CTAB
M  V30 COUNTS 48 52 0 0 0
M  V30 BEGIN ATOM
M  V30 1 O 3.274495 -0.790552 4.366026 0
M  V30 2 C 2.292675 -0.735892 3.614911 0
M  V30 3 C 2.191082 0.014771 2.369424 0
M  V30 4 C 3.064288 0.775951 1.767328 0
M  V30 5 C 2.926555 1.516374 0.520484 0
M  V30 6 C 3.962100 1.464376 -0.419512 0
M  V30 7 N 3.641671 2.228108 -1.503620 0
M  V30 8 C 2.427010 2.762140 -1.270336 0
M  V30 9 N 1.617745 3.587144 -1.958321 0
M  V30 10 C 0.423888 4.004195 -1.509569 0
M  V30 11 F -0.394857 4.831809 -2.193313 0
M  V30 12 C -0.006613 3.558271 -0.256608 0
M  V30 13 C 0.772003 2.713922 0.497510 0
M  V30 14 C 1.976186 2.337539 -0.037719 0
M  V30 15 O 0.931031 -0.221748 1.885173 0
M  V30 16 C 0.218603 -1.063996 2.723307 0
M  V30 17 C 1.001786 -1.408754 3.795295 0
M  V30 18 C 0.536613 -2.241355 4.791565 0
M  V30 19 C -0.754290 -2.701190 4.642986 0
M  V30 20 C -1.548348 -2.361112 3.569687 0
M  V30 21 O -2.836605 -2.886755 3.525462 0
M  V30 22 C -1.068201 -1.517108 2.564941 0
M  V30 23 C -2.004268 -1.252134 1.474138 0
M  V30 24 N -1.848190 -1.989723 0.285958 0
M  V30 25 C -0.637236 -1.955674 -0.409886 0
M  V30 26 C -0.562007 -2.835716 -1.628012 0
M  V30 27 N -1.723935 -2.787054 -2.458248 0
M  V30 28 C -2.884094 -3.074096 -1.662198 0
M  V30 29 C -3.037738 -2.188521 -0.478340 0
M  V30 30 H 4.021834 0.838689 2.312564 0
M  V30 31 H 4.899772 0.931080 -0.377056 0
M  V30 32 H 4.234686 2.367698 -2.352774 0
M  V30 33 H -0.969026 3.856264 0.177977 0
M  V30 34 H 0.447599 2.379023 1.460205 0
M  V30 35 H 1.204270 -2.474605 5.609826 0
M  V30 36 H -1.116406 -3.363198 5.441620 0
M  V30 37 H -3.060470 -3.763784 3.101890 0
M  V30 38 H -1.891653 -0.158844 1.196000 0
M  V30 39 H -3.074739 -1.316325 1.795348 0
M  V30 40 H -0.381336 -0.924289 -0.715301 0
M  V30 41 H 0.215605 -2.297148 0.250580 0
M  V30 42 H 0.295207 -2.458836 -2.246588 0
M  V30 43 H -0.299880 -3.887630 -1.400215 0
M  V30 44 H -1.805776 -1.899386 -2.970486 0
M  V30 45 H -2.939637 -4.156263 -1.416073 0
M  V30 46 H -3.763804 -2.876283 -2.327233 0
M  V30 47 H -3.853981 -2.578456 0.162585 0
M  V30 48 H -3.369590 -1.168136 -0.816656 0
M  V30 END ATOM
M  V30 BEGIN BOND
M  V30 1 2 1 2
M  V30 2 1 2 3
M  V30 3 2 3 4
M  V30 4 1 4 5
M  V30 5 2 5 6
M  V30 6 1 6 7
M  V30 7 1 7 8
M  V30 8 2 8 9
M  V30 9 1 9 10
M  V30 10 1 10 11
M  V30 11 2 10 12
M  V30 12 1 12 13
M  V30 13 2 13 14
M  V30 14 1 3 15
M  V30 15 1 15 16
M  V30 16 2 16 17
M  V30 17 1 17 18
M  V30 18 2 18 19
M  V30 19 1 19 20
M  V30 20 1 20 21
M  V30 21 2 20 22
M  V30 22 1 22 23
M  V30 23 1 23 24
M  V30 24 1 24 25
M  V30 25 1 25 26
M  V30 26 1 26 27
M  V30 27 1 27 28
M  V30 28 1 28 29
M  V30 29 1 17 2
M  V30 30 1 29 24
M  V30 31 1 14 5
M  V30 32 1 22 16
M  V30 33 1 14 8
M  V30 34 1 4 30
M  V30 35 1 6 31
M  V30 36 1 7 32
M  V30 37 1 12 33
M  V30 38 1 13 34
M  V30 39 1 18 35
M  V30 40 1 19 36
M  V30 41 1 21 37
M  V30 42 1 23 38
M  V30 43 1 23 39
M  V30 44 1 25 40
M  V30 45 1 25 41
M  V30 46 1 26 42
M  V30 47 1 26 43
M  V30 48 1 27 44
M  V30 49 1 28 45
M  V30 50 1 28 46
M  V30 51 1 29 47
M  V30 52 1 29 48
M  V30 END BOND
M  V30 END CTAB
M  END
>  <Dataset>  (778) 
ChEMBL_Kinases

>  <Ligand_Instance>  (778) 
nan

>  <PDB_ID>  (778) 
nan

>  <Standardized_SMILES>  (778) 
O=C1/C(=C/c2c[nH]c3nc(F)ccc23)Oc2c1ccc(O)c2CN1CCNCC1

>  <Name>  (778) 
nan

>  <Pocket>  (778) 
nan

>  <ATP_Site>  (778) 
nan

>  <Peripheral>  (778) 
nan

>  <Num_H_Atoms_ProtBoundConf>  (778) 
nan

>  <Num_Resolved_Atoms>  (778) 
nan

>  <Num_Not_Resolved_Atoms>  (778) 
nan

$$$$
CHEMBL482946
     RDKit          3D

  0  0  0  0  0  0  0  0  0  0999 V3000
M  V30 BEGIN CTAB
M  V30 COUNTS 66 69 0 0 0
M  V30 BEGIN ATOM
M  V30 1 C 4.362209 -0.999001 3.772535 0
M  V30 2 N 5.631802 -0.412003 3.367911 0
M  V30 3 C 6.653655 -1.381337 3.768472 0
M  V30 4 C 5.711283 -0.331947 1.920575 0
M  V30 5 C 4.718623 0.666569 1.358420 0
M  V30 6 C 4.858994 0.696853 -0.130439 0
M  V30 7 S 3.702814 1.844394 -0.894855 0
M  V30 8 O 4.085385 3.211064 -0.451010 0
M  V30 9 O 3.997501 1.765814 -2.385455 0
M  V30 10 N 2.152174 1.404785 -0.549326 0
M  V30 11 C 1.637790 0.164678 -0.959936 0
M  V30 12 C 0.102980 0.202228 -0.849689 0
M  V30 13 C -0.288285 0.345721 0.578224 0
M  V30 14 C -1.721899 0.598846 0.884465 0
M  V30 15 O -2.678606 -0.283361 0.528773 0
M  V30 16 C -3.152614 -0.733953 -0.623055 0
M  V30 17 C -3.035470 -0.620624 -1.989626 0
M  V30 18 C -3.755126 -1.301896 -2.934190 0
M  V30 19 C -3.440442 -1.002049 -4.239119 0
M  V30 20 N -4.150228 -1.675046 -5.189616 0
M  V30 21 C -5.094492 -2.571798 -4.834983 0
M  V30 22 C -5.393669 -2.856083 -3.509089 0
M  V30 23 C -4.702987 -2.201120 -2.520899 0
M  V30 24 C -4.908857 -2.397876 -1.178988 0
M  V30 25 C -4.141499 -1.671256 -0.249784 0
M  V30 26 C -4.566005 -2.079342 1.111330 0
M  V30 27 C -3.534358 -2.344666 2.023202 0
M  V30 28 C -3.995258 -2.712792 3.269853 0
M  V30 29 C -5.294199 -2.846702 3.712101 0
M  V30 30 C -6.268500 -2.564748 2.744046 0
M  V30 31 C -5.887370 -2.190002 1.473957 0
M  V30 32 C 0.628819 1.351078 1.246227 0
M  V30 33 C 1.294729 2.230958 0.210626 0
M  V30 34 H 4.515623 -1.603764 4.670224 0
M  V30 35 H 3.666836 -0.181761 4.059101 0
M  V30 36 H 3.992237 -1.645430 2.970405 0
M  V30 37 H 6.450609 -2.294951 3.168346 0
M  V30 38 H 7.658274 -0.957807 3.602700 0
M  V30 39 H 6.477722 -1.660013 4.826087 0
M  V30 40 H 5.540387 -1.339602 1.512393 0
M  V30 41 H 6.726446 0.019298 1.655449 0
M  V30 42 H 3.704495 0.369824 1.692216 0
M  V30 43 H 4.948380 1.686605 1.748303 0
M  V30 44 H 5.909367 0.993530 -0.351741 0
M  V30 45 H 4.716455 -0.309535 -0.560849 0
M  V30 46 H 2.016296 -0.641015 -0.306193 0
M  V30 47 H 1.891689 -0.129246 -2.008287 0
M  V30 48 H -0.269780 -0.743840 -1.303303 0
M  V30 49 H -0.277723 1.061620 -1.433425 0
M  V30 50 H 0.003046 -0.647016 1.070480 0
M  V30 51 H -1.795128 0.761555 2.001043 0
M  V30 52 H -2.002704 1.650115 0.504729 0
M  V30 53 H -2.301585 0.100289 -2.233823 0
M  V30 54 H -2.696308 -0.295611 -4.549218 0
M  V30 55 H -5.640747 -3.087779 -5.636024 0
M  V30 56 H -6.149927 -3.574041 -3.225474 0
M  V30 57 H -5.680753 -3.129333 -0.984216 0
M  V30 58 H -2.473215 -2.284469 1.828269 0
M  V30 59 H -3.213941 -2.929451 4.013871 0
M  V30 60 H -5.490080 -3.148499 4.734485 0
M  V30 61 H -7.300072 -2.657926 3.051626 0
M  V30 62 H -6.664416 -1.973843 0.727495 0
M  V30 63 H -0.041283 2.042199 1.833976 0
M  V30 64 H 1.349996 0.905510 1.942477 0
M  V30 65 H 1.929862 2.966234 0.767344 0
M  V30 66 H 0.527828 2.798465 -0.351885 0
M  V30 END ATOM
M  V30 BEGIN BOND
M  V30 1 1 1 2
M  V30 2 1 2 3
M  V30 3 1 2 4
M  V30 4 1 4 5
M  V30 5 1 5 6
M  V30 6 1 6 7
M  V30 7 2 7 8
M  V30 8 2 7 9
M  V30 9 1 7 10
M  V30 10 1 10 11
M  V30 11 1 11 12
M  V30 12 1 12 13
M  V30 13 1 13 14
M  V30 14 1 14 15
M  V30 15 1 15 16
M  V30 16 2 16 17
M  V30 17 1 17 18
M  V30 18 2 18 19
M  V30 19 1 19 20
M  V30 20 2 20 21
M  V30 21 1 21 22
M  V30 22 2 22 23
M  V30 23 1 23 24
M  V30 24 2 24 25
M  V30 25 1 25 26
M  V30 26 2 26 27
M  V30 27 1 27 28
M  V30 28 2 28 29
M  V30 29 1 29 30
M  V30 30 2 30 31
M  V30 31 1 13 32
M  V30 32 1 32 33
M  V30 33 1 33 10
M  V30 34 1 25 16
M  V30 35 1 31 26
M  V30 36 1 23 18
M  V30 37 1 1 34
M  V30 38 1 1 35
M  V30 39 1 1 36
M  V30 40 1 3 37
M  V30 41 1 3 38
M  V30 42 1 3 39
M  V30 43 1 4 40
M  V30 44 1 4 41
M  V30 45 1 5 42
M  V30 46 1 5 43
M  V30 47 1 6 44
M  V30 48 1 6 45
M  V30 49 1 11 46
M  V30 50 1 11 47
M  V30 51 1 12 48
M  V30 52 1 12 49
M  V30 53 1 13 50
M  V30 54 1 14 51
M  V30 55 1 14 52
M  V30 56 1 17 53
M  V30 57 1 19 54
M  V30 58 1 21 55
M  V30 59 1 22 56
M  V30 60 1 24 57
M  V30 61 1 27 58
M  V30 62 1 28 59
M  V30 63 1 29 60
M  V30 64 1 30 61
M  V30 65 1 31 62
M  V30 66 1 32 63
M  V30 67 1 32 64
M  V30 68 1 33 65
M  V30 69 1 33 66
M  V30 END BOND
M  V30 END CTAB
M  END
>  <Dataset>  (779) 
ChEMBL_Kinases

>  <Ligand_Instance>  (779) 
nan

>  <PDB_ID>  (779) 
nan

>  <Standardized_SMILES>  (779) 
CN(C)CCCS(=O)(=O)N1CCC(COc2cc3cnccc3cc2-c2ccccc2)CC1

>  <Name>  (779) 
nan

>  <Pocket>  (779) 
nan

>  <ATP_Site>  (779) 
nan

>  <Peripheral>  (779) 
nan

>  <Num_H_Atoms_ProtBoundConf>  (779) 
nan

>  <Num_Resolved_Atoms>  (779) 
nan

>  <Num_Not_Resolved_Atoms>  (779) 
nan

$$$$
CHEMBL4092659
     RDKit          3D

  0  0  0  0  0  0  0  0  0  0999 V3000
M  V30 BEGIN CTAB
M  V30 COUNTS 87 89 0 0 0
M  V30 BEGIN ATOM
M  V30 1 C 3.690700 -4.721096 1.166686 0
M  V30 2 C 2.667218 -5.464377 0.329733 0
M  V30 3 C 1.401565 -4.635241 0.320888 0
M  V30 4 C 0.303263 -5.255903 -0.470630 0
M  V30 5 C 0.600340 -5.484671 -1.913845 0
M  V30 6 C 0.922050 -4.271226 -2.714926 0
M  V30 7 C -0.152816 -3.238399 -2.760335 0
M  V30 8 C 0.356327 -2.080337 -3.631387 0
M  V30 9 C -0.716199 -1.003203 -3.703997 0
M  V30 10 C -0.198409 0.118028 -4.568304 0
M  V30 11 C -1.205223 1.236623 -4.700986 0
M  V30 12 C -1.553235 1.852434 -3.353300 0
M  V30 13 C -2.564699 2.957118 -3.494425 0
M  V30 14 C -2.891296 3.568912 -2.157231 0
M  V30 15 C -3.451619 2.620428 -1.154054 0
M  V30 16 C -3.767352 3.268586 0.143727 0
M  V30 17 O -3.666678 4.530062 0.290013 0
M  V30 18 N -4.175045 2.291310 1.126087 0
M  V30 19 C -4.285584 0.837207 0.943437 0
M  V30 20 C -3.171081 0.251294 1.785492 0
M  V30 21 N -2.548137 1.261083 2.618238 0
M  V30 22 C -1.175878 1.559150 2.653036 0
M  V30 23 O -0.946929 0.681130 1.781825 0
M  V30 24 C 0.240628 1.902968 2.723132 0
M  V30 25 S 0.794517 1.550287 4.420370 0
M  V30 26 C 2.133867 0.389798 4.362043 0
M  V30 27 C 2.667654 0.006118 5.578419 0
M  V30 28 C 3.723455 -0.902215 5.654975 0
M  V30 29 C 4.237596 -1.422848 4.467416 0
M  V30 30 C 3.692506 -1.026646 3.287146 0
M  V30 31 C 2.649288 -0.129535 3.209319 0
M  V30 32 N 2.177282 0.204075 1.914315 0
M  V30 33 C 2.675398 -0.304586 0.655216 0
M  V30 34 C 3.778084 0.627109 0.217545 0
M  V30 35 C 1.090959 1.144777 1.771489 0
M  V30 36 O 0.668562 1.490026 0.613662 0
M  V30 37 C -3.552410 1.951035 3.423558 0
M  V30 38 C -4.534014 2.688865 2.498722 0
M  V30 39 H 3.573555 -4.971276 2.256865 0
M  V30 40 H 3.636370 -3.625146 1.050246 0
M  V30 41 H 4.743097 -5.004232 0.908983 0
M  V30 42 H 3.121363 -5.530500 -0.691679 0
M  V30 43 H 2.518899 -6.445990 0.800928 0
M  V30 44 H 1.629163 -3.598809 0.066973 0
M  V30 45 H 1.049834 -4.618002 1.386852 0
M  V30 46 H 0.079611 -6.254318 -0.018388 0
M  V30 47 H -0.597806 -4.655285 -0.326782 0
M  V30 48 H -0.311455 -5.944833 -2.382639 0
M  V30 49 H 1.399293 -6.216516 -2.087964 0
M  V30 50 H 1.079782 -4.613028 -3.763318 0
M  V30 51 H 1.910331 -3.828492 -2.417896 0
M  V30 52 H -1.023653 -3.671790 -3.308655 0
M  V30 53 H -0.411783 -2.780215 -1.800013 0
M  V30 54 H 0.574157 -2.405943 -4.668437 0
M  V30 55 H 1.294233 -1.649408 -3.223953 0
M  V30 56 H -0.980155 -0.697192 -2.681480 0
M  V30 57 H -1.622019 -1.392857 -4.208344 0
M  V30 58 H -0.049233 -0.299508 -5.584833 0
M  V30 59 H 0.736919 0.572524 -4.185328 0
M  V30 60 H -2.076823 0.960778 -5.297841 0
M  V30 61 H -0.669488 2.050269 -5.272522 0
M  V30 62 H -0.629003 2.252701 -2.916217 0
M  V30 63 H -2.033054 1.041311 -2.767248 0
M  V30 64 H -2.097309 3.775987 -4.098933 0
M  V30 65 H -3.482037 2.582918 -3.995939 0
M  V30 66 H -1.970179 4.082725 -1.801867 0
M  V30 67 H -3.608803 4.412406 -2.361758 0
M  V30 68 H -2.753776 1.768695 -1.033890 0
M  V30 69 H -4.402886 2.209703 -1.549130 0
M  V30 70 H -5.276475 0.551278 1.346605 0
M  V30 71 H -4.264420 0.527506 -0.100872 0
M  V30 72 H -2.465615 -0.273559 1.138784 0
M  V30 73 H -3.647957 -0.461927 2.515528 0
M  V30 74 H 0.450606 2.980581 2.563040 0
M  V30 75 H 2.276975 0.405105 6.526004 0
M  V30 76 H 4.116979 -1.180241 6.621097 0
M  V30 77 H 5.057974 -2.123232 4.584711 0
M  V30 78 H 4.148531 -1.473359 2.418702 0
M  V30 79 H 1.864441 -0.366709 -0.109050 0
M  V30 80 H 3.084723 -1.315871 0.740535 0
M  V30 81 H 3.280388 1.450164 -0.370600 0
M  V30 82 H 4.304528 1.091884 1.074780 0
M  V30 83 H 4.557225 0.115186 -0.393809 0
M  V30 84 H -3.117638 2.710747 4.075596 0
M  V30 85 H -4.129932 1.175578 3.954927 0
M  V30 86 H -4.487701 3.770175 2.611689 0
M  V30 87 H -5.573245 2.349188 2.637516 0
M  V30 END ATOM
M  V30 BEGIN BOND
M  V30 1 1 1 2
M  V30 2 1 2 3
M  V30 3 1 3 4
M  V30 4 1 4 5
M  V30 5 1 5 6
M  V30 6 1 6 7
M  V30 7 1 7 8
M  V30 8 1 8 9
M  V30 9 1 9 10
M  V30 10 1 10 11
M  V30 11 1 11 12
M  V30 12 1 12 13
M  V30 13 1 13 14
M  V30 14 1 14 15
M  V30 15 1 15 16
M  V30 16 2 16 17
M  V30 17 1 16 18
M  V30 18 1 18 19
M  V30 19 1 19 20
M  V30 20 1 20 21
M  V30 21 1 21 22
M  V30 22 2 22 23
M  V30 23 1 22 24
M  V30 24 1 24 25
M  V30 25 1 25 26
M  V30 26 2 26 27
M  V30 27 1 27 28
M  V30 28 2 28 29
M  V30 29 1 29 30
M  V30 30 2 30 31
M  V30 31 1 31 32
M  V30 32 1 32 33
M  V30 33 1 33 34
M  V30 34 1 32 35
M  V30 35 2 35 36
M  V30 36 1 21 37
M  V30 37 1 37 38
M  V30 38 1 38 18
M  V30 39 1 35 24
M  V30 40 1 31 26
M  V30 41 1 1 39
M  V30 42 1 1 40
M  V30 43 1 1 41
M  V30 44 1 2 42
M  V30 45 1 2 43
M  V30 46 1 3 44
M  V30 47 1 3 45
M  V30 48 1 4 46
M  V30 49 1 4 47
M  V30 50 1 5 48
M  V30 51 1 5 49
M  V30 52 1 6 50
M  V30 53 1 6 51
M  V30 54 1 7 52
M  V30 55 1 7 53
M  V30 56 1 8 54
M  V30 57 1 8 55
M  V30 58 1 9 56
M  V30 59 1 9 57
M  V30 60 1 10 58
M  V30 61 1 10 59
M  V30 62 1 11 60
M  V30 63 1 11 61
M  V30 64 1 12 62
M  V30 65 1 12 63
M  V30 66 1 13 64
M  V30 67 1 13 65
M  V30 68 1 14 66
M  V30 69 1 14 67
M  V30 70 1 15 68
M  V30 71 1 15 69
M  V30 72 1 19 70
M  V30 73 1 19 71
M  V30 74 1 20 72
M  V30 75 1 20 73
M  V30 76 1 24 74
M  V30 77 1 27 75
M  V30 78 1 28 76
M  V30 79 1 29 77
M  V30 80 1 30 78
M  V30 81 1 33 79
M  V30 82 1 33 80
M  V30 83 1 34 81
M  V30 84 1 34 82
M  V30 85 1 34 83
M  V30 86 1 37 84
M  V30 87 1 37 85
M  V30 88 1 38 86
M  V30 89 1 38 87
M  V30 END BOND
M  V30 END CTAB
M  END
>  <Dataset>  (780) 
ChEMBL_Kinases

>  <Ligand_Instance>  (780) 
nan

>  <PDB_ID>  (780) 
nan

>  <Standardized_SMILES>  (780) 
CCCCCCCCCCCCCCCC(=O)N1CCN(C(=O)C2Sc3ccccc3N(CC)C2=O)CC1

>  <Name>  (780) 
nan

>  <Pocket>  (780) 
nan

>  <ATP_Site>  (780) 
nan

>  <Peripheral>  (780) 
nan

>  <Num_H_Atoms_ProtBoundConf>  (780) 
nan

>  <Num_Resolved_Atoms>  (780) 
nan

>  <Num_Not_Resolved_Atoms>  (780) 
nan

$$$$
CHEMBL4092652
     RDKit          3D

  0  0  0  0  0  0  0  0  0  0999 V3000
M  V30 BEGIN CTAB
M  V30 COUNTS 40 43 0 0 0
M  V30 BEGIN ATOM
M  V30 1 C -2.021210 -3.540814 1.638598 0
M  V30 2 N -0.945912 -2.547974 1.854209 0
M  V30 3 C 0.325032 -3.259389 2.034078 0
M  V30 4 C 0.765610 -3.774182 0.662018 0
M  V30 5 C 1.011580 -2.555051 -0.237750 0
M  V30 6 C 2.144454 -1.754666 0.275390 0
M  V30 7 O 2.148796 -0.464808 0.069660 0
M  V30 8 C 2.115486 0.812009 -0.110943 0
M  V30 9 C 3.310425 1.071009 -0.733232 0
M  V30 10 C 3.814398 2.321659 -1.147050 0
M  V30 11 N 2.980182 3.342593 -0.871579 0
M  V30 12 C 1.798642 3.077212 -0.258316 0
M  V30 13 N 0.876891 4.025490 0.113414 0
M  V30 14 C -0.149209 3.370817 0.717729 0
M  V30 15 O -1.017500 4.187943 1.086201 0
M  V30 16 N 0.107946 2.060844 0.726823 0
M  V30 17 C 1.263362 1.857073 0.160901 0
M  V30 18 C -0.759394 1.029983 1.161782 0
M  V30 19 N -0.432481 -0.229446 1.421689 0
M  V30 20 C -1.331319 -1.163300 1.757234 0
M  V30 21 C -2.690990 -0.952563 1.886939 0
M  V30 22 C -3.090266 0.370187 1.623719 0
M  V30 23 C -2.107175 1.283379 1.274640 0
M  V30 24 Cl -2.944383 2.773321 0.912136 0
M  V30 25 H -1.671548 -4.538936 1.400937 0
M  V30 26 H -2.735372 -3.176446 0.884683 0
M  V30 27 H -2.564180 -3.595923 2.628703 0
M  V30 28 H 0.138618 -4.152167 2.648652 0
M  V30 29 H 1.003635 -2.630495 2.560605 0
M  V30 30 H 1.668452 -4.363138 0.689757 0
M  V30 31 H -0.061720 -4.327219 0.230736 0
M  V30 32 H 1.352593 -3.041799 -1.202331 0
M  V30 33 H 0.126083 -2.003057 -0.516410 0
M  V30 34 H 3.116943 -2.276256 -0.160963 0
M  V30 35 H 2.362611 -1.953126 1.371995 0
M  V30 36 H 4.118650 0.386072 -1.041523 0
M  V30 37 H 4.711284 2.648118 -1.632187 0
M  V30 38 H 1.025699 5.065808 -0.078035 0
M  V30 39 H -3.401724 -1.732052 2.170527 0
M  V30 40 H -4.159508 0.500844 1.732394 0
M  V30 END ATOM
M  V30 BEGIN BOND
M  V30 1 1 1 2
M  V30 2 1 2 3
M  V30 3 1 3 4
M  V30 4 1 4 5
M  V30 5 1 5 6
M  V30 6 1 6 7
M  V30 7 1 7 8
M  V30 8 1 8 9
M  V30 9 2 9 10
M  V30 10 1 10 11
M  V30 11 2 11 12
M  V30 12 1 12 13
M  V30 13 1 13 14
M  V30 14 2 14 15
M  V30 15 1 14 16
M  V30 16 1 16 17
M  V30 17 1 16 18
M  V30 18 1 18 19
M  V30 19 2 19 20
M  V30 20 1 20 21
M  V30 21 2 21 22
M  V30 22 1 22 23
M  V30 23 1 23 24
M  V30 24 1 20 2
M  V30 25 2 17 8
M  V30 26 2 23 18
M  V30 27 1 17 12
M  V30 28 1 1 25
M  V30 29 1 1 26
M  V30 30 1 1 27
M  V30 31 1 3 28
M  V30 32 1 3 29
M  V30 33 1 4 30
M  V30 34 1 4 31
M  V30 35 1 5 32
M  V30 36 1 5 33
M  V30 37 1 6 34
M  V30 38 1 6 35
M  V30 39 1 9 36
M  V30 40 1 10 37
M  V30 41 1 13 38
M  V30 42 1 21 39
M  V30 43 1 22 40
M  V30 END BOND
M  V30 END CTAB
M  END
>  <Dataset>  (781) 
ChEMBL_Kinases

>  <Ligand_Instance>  (781) 
nan

>  <PDB_ID>  (781) 
nan

>  <Standardized_SMILES>  (781) 
CN1CCCCOc2ccnc3[nH]c(=O)n(c23)-c2nc1ccc2Cl

>  <Name>  (781) 
nan

>  <Pocket>  (781) 
nan

>  <ATP_Site>  (781) 
nan

>  <Peripheral>  (781) 
nan

>  <Num_H_Atoms_ProtBoundConf>  (781) 
nan

>  <Num_Resolved_Atoms>  (781) 
nan

>  <Num_Not_Resolved_Atoms>  (781) 
nan

$$$$
CHEMBL4092605
     RDKit          3D

  0  0  0  0  0  0  0  0  0  0999 V3000
M  V30 BEGIN CTAB
M  V30 COUNTS 68 72 0 0 0
M  V30 BEGIN ATOM
M  V30 1 C 5.305161 -7.060613 -0.618390 0
M  V30 2 N 5.894141 -5.735057 -0.738774 0
M  V30 3 C 4.996679 -4.669928 -0.374174 0
M  V30 4 N 4.984999 -4.262469 0.905988 0
M  V30 5 C 4.175690 -3.264453 1.350869 0
M  V30 6 C 3.351552 -2.681587 0.400826 0
M  V30 7 C 2.434236 -1.595594 0.723255 0
M  V30 8 C 1.558684 -1.551736 1.789315 0
M  V30 9 C 0.720080 -0.482965 2.031668 0
M  V30 10 C 0.773445 0.600200 1.142668 0
M  V30 11 C -0.084488 1.781731 1.316093 0
M  V30 12 O -0.023851 2.783059 0.547016 0
M  V30 13 N -1.047822 1.941323 2.324194 0
M  V30 14 C -1.856581 3.125855 2.439049 0
M  V30 15 C -2.788974 3.010700 3.580336 0
M  V30 16 N -2.712663 3.345061 4.888612 0
M  V30 17 C -3.885967 3.006076 5.498311 0
M  V30 18 C -4.334423 3.124830 6.800336 0
M  V30 19 C -5.581050 2.709043 7.205627 0
M  V30 20 C -6.400168 2.149523 6.237576 0
M  V30 21 O -7.681811 1.707990 6.592103 0
M  V30 22 C -8.543748 1.127496 5.613432 0
M  V30 23 C -5.980491 2.013285 4.910467 0
M  V30 24 C -4.724334 2.444043 4.554372 0
M  V30 25 N -4.013053 2.474833 3.430619 0
M  V30 26 C 1.629477 0.611118 0.060341 0
M  V30 27 C 2.435437 -0.496667 -0.111334 0
M  V30 28 C 3.347588 -3.087030 -0.925194 0
M  V30 29 O 2.534348 -2.526927 -1.903454 0
M  V30 30 C 2.499557 -2.907447 -3.247084 0
M  V30 31 C 1.490895 -2.077338 -3.997015 0
M  V30 32 C 1.511806 -2.560342 -5.453302 0
M  V30 33 C 0.353897 -1.887376 -6.160749 0
M  V30 34 N -0.211280 -0.853401 -5.355207 0
M  V30 35 C 0.713688 0.082197 -4.797985 0
M  V30 36 C 1.850350 -0.610111 -4.070055 0
M  V30 37 N 4.184782 -4.097204 -1.314262 0
M  V30 38 H 5.887146 -7.826786 -1.158552 0
M  V30 39 H 5.240621 -7.299825 0.455143 0
M  V30 40 H 4.250930 -7.039779 -1.013997 0
M  V30 41 H 6.882039 -5.562769 -1.061037 0
M  V30 42 H 4.123530 -2.898642 2.355612 0
M  V30 43 H 1.568853 -2.430069 2.441357 0
M  V30 44 H 0.046887 -0.469929 2.868003 0
M  V30 45 H -1.177841 1.148949 3.024066 0
M  V30 46 H -2.362151 3.296031 1.484148 0
M  V30 47 H -1.118788 3.967678 2.598124 0
M  V30 48 H -3.694335 3.559758 7.547885 0
M  V30 49 H -5.977130 2.776503 8.194362 0
M  V30 50 H -9.410629 0.647927 6.125552 0
M  V30 51 H -7.969264 0.371279 5.059872 0
M  V30 52 H -8.870866 1.995264 4.985658 0
M  V30 53 H -6.603210 1.586063 4.158801 0
M  V30 54 H -4.448043 2.090492 2.538106 0
M  V30 55 H 1.681905 1.447479 -0.639080 0
M  V30 56 H 3.100097 -0.470467 -0.960792 0
M  V30 57 H 3.465818 -2.845139 -3.779740 0
M  V30 58 H 2.136662 -3.969074 -3.344678 0
M  V30 59 H 0.468954 -2.181999 -3.571928 0
M  V30 60 H 2.449904 -2.194088 -5.885114 0
M  V30 61 H 1.460054 -3.654315 -5.512397 0
M  V30 62 H 0.580254 -1.628011 -7.198857 0
M  V30 63 H -0.442511 -2.685264 -6.230277 0
M  V30 64 H -1.034720 -0.417981 -5.773967 0
M  V30 65 H 1.124119 0.800838 -5.547744 0
M  V30 66 H 0.136576 0.737328 -4.085190 0
M  V30 67 H 2.065907 -0.149960 -3.092259 0
M  V30 68 H 2.746224 -0.512472 -4.722408 0
M  V30 END ATOM
M  V30 BEGIN BOND
M  V30 1 1 1 2
M  V30 2 1 2 3
M  V30 3 2 3 4
M  V30 4 1 4 5
M  V30 5 2 5 6
M  V30 6 1 6 7
M  V30 7 2 7 8
M  V30 8 1 8 9
M  V30 9 2 9 10
M  V30 10 1 10 11
M  V30 11 2 11 12
M  V30 12 1 11 13
M  V30 13 1 13 14
M  V30 14 1 14 15
M  V30 15 2 15 16
M  V30 16 1 16 17
M  V30 17 2 17 18
M  V30 18 1 18 19
M  V30 19 2 19 20
M  V30 20 1 20 21
M  V30 21 1 21 22
M  V30 22 1 20 23
M  V30 23 2 23 24
M  V30 24 1 24 25
M  V30 25 1 10 26
M  V30 26 2 26 27
M  V30 27 1 6 28
M  V30 28 1 28 29
M  V30 29 1 29 30
M  V30 30 1 30 31
M  V30 31 1 31 32
M  V30 32 1 32 33
M  V30 33 1 33 34
M  V30 34 1 34 35
M  V30 35 1 35 36
M  V30 36 2 28 37
M  V30 37 1 37 3
M  V30 38 1 27 7
M  V30 39 1 36 31
M  V30 40 1 25 15
M  V30 41 1 24 17
M  V30 42 1 1 38
M  V30 43 1 1 39
M  V30 44 1 1 40
M  V30 45 1 2 41
M  V30 46 1 5 42
M  V30 47 1 8 43
M  V30 48 1 9 44
M  V30 49 1 13 45
M  V30 50 1 14 46
M  V30 51 1 14 47
M  V30 52 1 18 48
M  V30 53 1 19 49
M  V30 54 1 22 50
M  V30 55 1 22 51
M  V30 56 1 22 52
M  V30 57 1 23 53
M  V30 58 1 25 54
M  V30 59 1 26 55
M  V30 60 1 27 56
M  V30 61 1 30 57
M  V30 62 1 30 58
M  V30 63 1 31 59
M  V30 64 1 32 60
M  V30 65 1 32 61
M  V30 66 1 33 62
M  V30 67 1 33 63
M  V30 68 1 34 64
M  V30 69 1 35 65
M  V30 70 1 35 66
M  V30 71 1 36 67
M  V30 72 1 36 68
M  V30 END BOND
M  V30 END CTAB
M  END
>  <Dataset>  (782) 
ChEMBL_Kinases

>  <Ligand_Instance>  (782) 
nan

>  <PDB_ID>  (782) 
nan

>  <Standardized_SMILES>  (782) 
CNc1ncc(-c2ccc(C(=O)NCc3nc4ccc(OC)cc4[nH]3)cc2)c(OCC2CCNCC2)n1

>  <Name>  (782) 
nan

>  <Pocket>  (782) 
nan

>  <ATP_Site>  (782) 
nan

>  <Peripheral>  (782) 
nan

>  <Num_H_Atoms_ProtBoundConf>  (782) 
nan

>  <Num_Resolved_Atoms>  (782) 
nan

>  <Num_Not_Resolved_Atoms>  (782) 
nan

$$$$
CHEMBL483401
     RDKit          3D

  0  0  0  0  0  0  0  0  0  0999 V3000
M  V30 BEGIN CTAB
M  V30 COUNTS 51 55 0 0 0
M  V30 BEGIN ATOM
M  V30 1 C 1.805342 -3.627505 1.244365 0
M  V30 2 C 0.708261 -2.956957 0.535661 0
M  V30 3 C 0.500101 -1.645787 0.373087 0
M  V30 4 C 1.501177 -0.784022 0.981701 0
M  V30 5 O 2.466421 -1.326772 1.610268 0
M  V30 6 N 1.550983 0.621454 0.969010 0
M  V30 7 C 2.463199 1.551759 1.522449 0
M  V30 8 C 3.581302 1.277613 2.245329 0
M  V30 9 C 4.447896 2.212150 2.769567 0
M  V30 10 C 4.150044 3.536660 2.537683 0
M  V30 11 N 4.733174 4.700741 2.873620 0
M  V30 12 N 4.038594 5.719284 2.397908 0
M  V30 13 C 2.959152 5.266470 1.722569 0
M  V30 14 C 3.029786 3.877209 1.811347 0
M  V30 15 C 2.208406 2.890989 1.317621 0
M  V30 16 C -0.675063 -1.131133 -0.362243 0
M  V30 17 C -1.467791 -0.136582 0.438590 0
M  V30 18 C -1.591056 -0.603024 1.745150 0
M  V30 19 C -2.286714 0.135178 2.704009 0
M  V30 20 C -2.857254 1.345525 2.339158 0
M  V30 21 Cl -3.757956 2.382633 3.425923 0
M  V30 22 C -2.730075 1.798746 1.044453 0
M  V30 23 C -2.049344 1.087528 0.084959 0
M  V30 24 F -1.818730 1.358740 -1.214755 0
M  V30 25 N -1.524811 -2.111618 -0.942024 0
M  V30 26 C -1.391010 -3.378986 -0.835364 0
M  V30 27 C -2.328341 -4.270304 -1.472854 0
M  V30 28 C -2.306982 -5.642587 -1.442564 0
M  V30 29 C -3.262074 -6.417751 -2.093727 0
M  V30 30 N -4.247836 -5.838826 -2.781411 0
M  V30 31 C -4.335101 -4.505886 -2.856792 0
M  V30 32 Cl -5.636520 -3.765118 -3.764407 0
M  V30 33 C -3.384023 -3.747209 -2.208214 0
M  V30 34 N -0.270044 -3.822099 -0.090949 0
M  V30 35 H 1.674336 -4.748169 1.194566 0
M  V30 36 H 2.793785 -3.448327 0.792391 0
M  V30 37 H 1.838972 -3.408893 2.348012 0
M  V30 38 H 0.737590 0.979382 0.426936 0
M  V30 39 H 3.847683 0.264929 2.447342 0
M  V30 40 H 5.323776 1.932676 3.337882 0
M  V30 41 H 5.610442 4.800011 3.430904 0
M  V30 42 H 2.209606 5.839676 1.225736 0
M  V30 43 H 1.340325 3.221642 0.752673 0
M  V30 44 H -0.244486 -0.520515 -1.207834 0
M  V30 45 H -1.208385 -1.511653 2.174157 0
M  V30 46 H -2.428237 -0.151971 3.731392 0
M  V30 47 H -3.130709 2.723970 0.644971 0
M  V30 48 H -1.513330 -6.122117 -0.888715 0
M  V30 49 H -3.143053 -7.490817 -1.999341 0
M  V30 50 H -3.501863 -2.666649 -2.301848 0
M  V30 51 H -0.181863 -4.870394 -0.013685 0
M  V30 END ATOM
M  V30 BEGIN BOND
M  V30 1 1 1 2
M  V30 2 2 2 3
M  V30 3 1 3 4
M  V30 4 2 4 5
M  V30 5 1 4 6
M  V30 6 1 6 7
M  V30 7 2 7 8
M  V30 8 1 8 9
M  V30 9 2 9 10
M  V30 10 1 10 11
M  V30 11 1 11 12
M  V30 12 2 12 13
M  V30 13 1 13 14
M  V30 14 2 14 15
M  V30 15 1 3 16
M  V30 16 1 16 17
M  V30 17 2 17 18
M  V30 18 1 18 19
M  V30 19 2 19 20
M  V30 20 1 20 21
M  V30 21 1 20 22
M  V30 22 2 22 23
M  V30 23 1 23 24
M  V30 24 1 16 25
M  V30 25 2 25 26
M  V30 26 1 26 27
M  V30 27 2 27 28
M  V30 28 1 28 29
M  V30 29 2 29 30
M  V30 30 1 30 31
M  V30 31 1 31 32
M  V30 32 2 31 33
M  V30 33 1 26 34
M  V30 34 1 34 2
M  V30 35 1 15 7
M  V30 36 1 23 17
M  V30 37 1 33 27
M  V30 38 1 14 10
M  V30 39 1 1 35
M  V30 40 1 1 36
M  V30 41 1 1 37
M  V30 42 1 6 38
M  V30 43 1 8 39
M  V30 44 1 9 40
M  V30 45 1 11 41
M  V30 46 1 13 42
M  V30 47 1 15 43
M  V30 48 1 16 44
M  V30 49 1 18 45
M  V30 50 1 19 46
M  V30 51 1 22 47
M  V30 52 1 28 48
M  V30 53 1 29 49
M  V30 54 1 33 50
M  V30 55 1 34 51
M  V30 END BOND
M  V30 END CTAB
M  END
>  <Dataset>  (783) 
ChEMBL_Kinases

>  <Ligand_Instance>  (783) 
nan

>  <PDB_ID>  (783) 
nan

>  <Standardized_SMILES>  (783) 
CC1=C(C(=O)Nc2ccc3[nH]ncc3c2)C(c2ccc(Cl)cc2F)N=C(c2ccnc(Cl)c2)N1

>  <Name>  (783) 
nan

>  <Pocket>  (783) 
nan

>  <ATP_Site>  (783) 
nan

>  <Peripheral>  (783) 
nan

>  <Num_H_Atoms_ProtBoundConf>  (783) 
nan

>  <Num_Resolved_Atoms>  (783) 
nan

>  <Num_Not_Resolved_Atoms>  (783) 
nan

$$$$
CHEMBL483150
     RDKit          3D

  0  0  0  0  0  0  0  0  0  0999 V3000
M  V30 BEGIN CTAB
M  V30 COUNTS 55 58 0 0 0
M  V30 BEGIN ATOM
M  V30 1 C 0.157459 -0.172570 5.633681 0
M  V30 2 C 0.840908 -0.399093 4.290885 0
M  V30 3 S 1.655288 -1.950407 4.373646 0
M  V30 4 O 0.591998 -2.995181 4.657820 0
M  V30 5 O 2.557209 -1.929654 5.573095 0
M  V30 6 N 2.492094 -2.438536 3.006328 0
M  V30 7 C 3.567269 -1.660755 2.542425 0
M  V30 8 C 3.379191 -0.943585 1.239474 0
M  V30 9 C 1.972520 -0.857636 0.756583 0
M  V30 10 C 1.939892 -0.655548 -0.741735 0
M  V30 11 O 0.629148 -0.581945 -1.177335 0
M  V30 12 C -0.348869 0.307754 -0.904197 0
M  V30 13 C -0.562158 1.453777 -0.179779 0
M  V30 14 C -1.739481 2.146179 -0.117110 0
M  V30 15 C -1.719487 3.271036 0.676941 0
M  V30 16 N -2.868227 3.986169 0.765765 0
M  V30 17 C -3.953077 3.571117 0.086856 0
M  V30 18 C -3.970914 2.429678 -0.718025 0
M  V30 19 C -2.814025 1.681828 -0.826818 0
M  V30 20 C -2.699173 0.528955 -1.592186 0
M  V30 21 C -1.470991 -0.146903 -1.624642 0
M  V30 22 C -1.626386 -1.327038 -2.505982 0
M  V30 23 C -2.714978 -2.177201 -2.452622 0
M  V30 24 C -2.789400 -3.241675 -3.293900 0
M  V30 25 C -1.796105 -3.509403 -4.218674 0
M  V30 26 C -0.697186 -2.680322 -4.297009 0
M  V30 27 C -0.643278 -1.604904 -3.432087 0
M  V30 28 C 1.113886 -2.043438 1.051389 0
M  V30 29 C 1.743450 -3.049552 1.971444 0
M  V30 30 H 0.848576 0.240692 6.386697 0
M  V30 31 H -0.657360 0.569354 5.507026 0
M  V30 32 H -0.342127 -1.108092 5.970841 0
M  V30 33 H 0.022817 -0.354777 3.539018 0
M  V30 34 H 1.540057 0.455279 4.166561 0
M  V30 35 H 4.469294 -2.310953 2.461712 0
M  V30 36 H 3.841983 -0.950466 3.377560 0
M  V30 37 H 3.991765 -1.413662 0.439488 0
M  V30 38 H 3.801315 0.076471 1.370105 0
M  V30 39 H 1.522672 0.039466 1.199716 0
M  V30 40 H 2.508650 0.286312 -1.012938 0
M  V30 41 H 2.456071 -1.509625 -1.249130 0
M  V30 42 H 0.315379 1.759966 0.329214 0
M  V30 43 H -0.837544 3.595360 1.219707 0
M  V30 44 H -4.907666 4.084133 0.103825 0
M  V30 45 H -4.844798 2.103825 -1.258974 0
M  V30 46 H -3.619565 0.288230 -2.090613 0
M  V30 47 H -3.496243 -1.969730 -1.727870 0
M  V30 48 H -3.663541 -3.868616 -3.204254 0
M  V30 49 H -1.941155 -4.369180 -4.838317 0
M  V30 50 H 0.077046 -2.896826 -5.024397 0
M  V30 51 H 0.247863 -0.967534 -3.524961 0
M  V30 52 H 0.809492 -2.606737 0.138922 0
M  V30 53 H 0.163159 -1.729473 1.533143 0
M  V30 54 H 2.442562 -3.689130 1.362784 0
M  V30 55 H 0.969800 -3.706369 2.388153 0
M  V30 END ATOM
M  V30 BEGIN BOND
M  V30 1 1 1 2
M  V30 2 1 2 3
M  V30 3 2 3 4
M  V30 4 2 3 5
M  V30 5 1 3 6
M  V30 6 1 6 7
M  V30 7 1 7 8
M  V30 8 1 8 9
M  V30 9 1 9 10
M  V30 10 1 10 11
M  V30 11 1 11 12
M  V30 12 2 12 13
M  V30 13 1 13 14
M  V30 14 2 14 15
M  V30 15 1 15 16
M  V30 16 2 16 17
M  V30 17 1 17 18
M  V30 18 2 18 19
M  V30 19 1 19 20
M  V30 20 2 20 21
M  V30 21 1 21 22
M  V30 22 2 22 23
M  V30 23 1 23 24
M  V30 24 2 24 25
M  V30 25 1 25 26
M  V30 26 2 26 27
M  V30 27 1 9 28
M  V30 28 1 28 29
M  V30 29 1 29 6
M  V30 30 1 21 12
M  V30 31 1 27 22
M  V30 32 1 19 14
M  V30 33 1 1 30
M  V30 34 1 1 31
M  V30 35 1 1 32
M  V30 36 1 2 33
M  V30 37 1 2 34
M  V30 38 1 7 35
M  V30 39 1 7 36
M  V30 40 1 8 37
M  V30 41 1 8 38
M  V30 42 1 9 39
M  V30 43 1 10 40
M  V30 44 1 10 41
M  V30 45 1 13 42
M  V30 46 1 15 43
M  V30 47 1 17 44
M  V30 48 1 18 45
M  V30 49 1 20 46
M  V30 50 1 23 47
M  V30 51 1 24 48
M  V30 52 1 25 49
M  V30 53 1 26 50
M  V30 54 1 27 51
M  V30 55 1 28 52
M  V30 56 1 28 53
M  V30 57 1 29 54
M  V30 58 1 29 55
M  V30 END BOND
M  V30 END CTAB
M  END
>  <Dataset>  (784) 
ChEMBL_Kinases

>  <Ligand_Instance>  (784) 
nan

>  <PDB_ID>  (784) 
nan

>  <Standardized_SMILES>  (784) 
CCS(=O)(=O)N1CCC(COc2cc3cnccc3cc2-c2ccccc2)CC1

>  <Name>  (784) 
nan

>  <Pocket>  (784) 
nan

>  <ATP_Site>  (784) 
nan

>  <Peripheral>  (784) 
nan

>  <Num_H_Atoms_ProtBoundConf>  (784) 
nan

>  <Num_Resolved_Atoms>  (784) 
nan

>  <Num_Not_Resolved_Atoms>  (784) 
nan

$$$$
CHEMBL4092537
     RDKit          3D

  0  0  0  0  0  0  0  0  0  0999 V3000
M  V30 BEGIN CTAB
M  V30 COUNTS 26 28 0 0 0
M  V30 BEGIN ATOM
M  V30 1 N -2.199391 -2.276894 0.633852 0
M  V30 2 C -1.041101 -2.315311 0.692816 0
M  V30 3 C 0.412096 -2.341786 0.775151 0
M  V30 4 C 1.189847 -3.501040 0.828781 0
M  V30 5 N 2.470968 -3.096336 0.897792 0
M  V30 6 C 2.521170 -1.751684 0.889397 0
M  V30 7 N 3.564626 -0.888738 0.941156 0
M  V30 8 C 3.366478 0.441951 0.918847 0
M  V30 9 C 2.103993 0.992591 0.842908 0
M  V30 10 C 1.013215 0.146755 0.788333 0
M  V30 11 C -0.403254 0.524117 0.705145 0
M  V30 12 C -0.844970 0.650320 -0.592816 0
M  V30 13 C -2.142121 0.997240 -0.868330 0
M  V30 14 C -3.009846 1.220956 0.194429 0
M  V30 15 C -2.577963 1.097276 1.506206 0
M  V30 16 C -1.267094 0.746883 1.755694 0
M  V30 17 Cl -0.593365 0.556964 3.353086 0
M  V30 18 C 1.237779 -1.219140 0.812429 0
M  V30 19 H 0.734678 -4.493878 0.811363 0
M  V30 20 H 3.254540 -3.794428 0.947899 0
M  V30 21 H 4.209649 1.146728 0.960602 0
M  V30 22 H 1.859086 2.045910 0.820277 0
M  V30 23 H -0.238518 0.494905 -1.475638 0
M  V30 24 H -2.556997 1.114139 -1.842910 0
M  V30 25 H -4.050617 1.498760 0.055845 0
M  V30 26 H -3.236930 1.266808 2.365831 0
M  V30 END ATOM
M  V30 BEGIN BOND
M  V30 1 3 1 2
M  V30 2 1 2 3
M  V30 3 2 3 4
M  V30 4 1 4 5
M  V30 5 1 5 6
M  V30 6 2 6 7
M  V30 7 1 7 8
M  V30 8 2 8 9
M  V30 9 1 9 10
M  V30 10 1 10 11
M  V30 11 2 11 12
M  V30 12 1 12 13
M  V30 13 2 13 14
M  V30 14 1 14 15
M  V30 15 2 15 16
M  V30 16 1 16 17
M  V30 17 2 10 18
M  V30 18 1 18 3
M  V30 19 1 18 6
M  V30 20 1 16 11
M  V30 21 1 4 19
M  V30 22 1 5 20
M  V30 23 1 8 21
M  V30 24 1 9 22
M  V30 25 1 12 23
M  V30 26 1 13 24
M  V30 27 1 14 25
M  V30 28 1 15 26
M  V30 END BOND
M  V30 END CTAB
M  END
>  <Dataset>  (785) 
ChEMBL_Kinases

>  <Ligand_Instance>  (785) 
nan

>  <PDB_ID>  (785) 
nan

>  <Standardized_SMILES>  (785) 
N#Cc1c[nH]c2nccc(-c3ccccc3Cl)c12

>  <Name>  (785) 
nan

>  <Pocket>  (785) 
nan

>  <ATP_Site>  (785) 
nan

>  <Peripheral>  (785) 
nan

>  <Num_H_Atoms_ProtBoundConf>  (785) 
nan

>  <Num_Resolved_Atoms>  (785) 
nan

>  <Num_Not_Resolved_Atoms>  (785) 
nan

$$$$
CHEMBL4092523
     RDKit          3D

  0  0  0  0  0  0  0  0  0  0999 V3000
M  V30 BEGIN CTAB
M  V30 COUNTS 38 41 0 0 0
M  V30 BEGIN ATOM
M  V30 1 C -0.994230 -2.982392 3.986133 0
M  V30 2 C 0.258047 -3.096996 3.185391 0
M  V30 3 C 1.137748 -4.129833 3.436283 0
M  V30 4 C 2.285803 -4.211395 2.682078 0
M  V30 5 C 2.521202 -3.262390 1.702567 0
M  V30 6 F 3.656077 -3.372185 0.981931 0
M  V30 7 C 1.664747 -2.217712 1.424880 0
M  V30 8 C 2.003955 -1.267931 0.370253 0
M  V30 9 C 1.186061 -0.209073 0.052888 0
M  V30 10 C 1.557246 0.656634 -0.952902 0
M  V30 11 N 0.711857 1.751023 -1.282581 0
M  V30 12 C -0.541549 2.106115 -0.725619 0
M  V30 13 C -0.681156 3.343482 -0.111466 0
M  V30 14 C -1.821289 3.849145 0.477892 0
M  V30 15 N -2.904746 3.031615 0.439417 0
M  V30 16 C -2.835023 1.815168 -0.143292 0
M  V30 17 C -3.752889 0.781926 -0.333614 0
M  V30 18 N -3.122619 -0.227864 -0.996514 0
M  V30 19 N -1.868271 0.101504 -1.236131 0
M  V30 20 C -1.683372 1.315505 -0.733478 0
M  V30 21 C 2.718973 0.536066 -1.683615 0
M  V30 22 C 3.500172 -0.562460 -1.306016 0
M  V30 23 N 3.158973 -1.420807 -0.328083 0
M  V30 24 C 0.527541 -2.173170 2.202920 0
M  V30 25 H -0.815752 -2.445587 4.936376 0
M  V30 26 H -1.733804 -2.394205 3.385634 0
M  V30 27 H -1.457569 -3.973171 4.150416 0
M  V30 28 H 0.895623 -4.840184 4.216772 0
M  V30 29 H 2.980326 -5.022517 2.876483 0
M  V30 30 H 0.265849 -0.032930 0.563926 0
M  V30 31 H 0.933558 2.456903 -2.015272 0
M  V30 32 H 0.194958 3.987506 -0.088232 0
M  V30 33 H -1.835764 4.816252 0.928347 0
M  V30 34 H -4.778808 0.856762 0.021274 0
M  V30 35 H -1.146206 -0.472643 -1.726619 0
M  V30 36 H 3.019807 1.209241 -2.474425 0
M  V30 37 H 4.443046 -0.744715 -1.826993 0
M  V30 38 H -0.173806 -1.375818 2.025173 0
M  V30 END ATOM
M  V30 BEGIN BOND
M  V30 1 1 1 2
M  V30 2 2 2 3
M  V30 3 1 3 4
M  V30 4 2 4 5
M  V30 5 1 5 6
M  V30 6 1 5 7
M  V30 7 1 7 8
M  V30 8 2 8 9
M  V30 9 1 9 10
M  V30 10 1 10 11
M  V30 11 1 11 12
M  V30 12 2 12 13
M  V30 13 1 13 14
M  V30 14 2 14 15
M  V30 15 1 15 16
M  V30 16 1 16 17
M  V30 17 2 17 18
M  V30 18 1 18 19
M  V30 19 1 19 20
M  V30 20 2 10 21
M  V30 21 1 21 22
M  V30 22 2 22 23
M  V30 23 2 7 24
M  V30 24 1 24 2
M  V30 25 1 23 8
M  V30 26 1 20 12
M  V30 27 2 20 16
M  V30 28 1 1 25
M  V30 29 1 1 26
M  V30 30 1 1 27
M  V30 31 1 3 28
M  V30 32 1 4 29
M  V30 33 1 9 30
M  V30 34 1 11 31
M  V30 35 1 13 32
M  V30 36 1 14 33
M  V30 37 1 17 34
M  V30 38 1 19 35
M  V30 39 1 21 36
M  V30 40 1 22 37
M  V30 41 1 24 38
M  V30 END BOND
M  V30 END CTAB
M  END
>  <Dataset>  (786) 
ChEMBL_Kinases

>  <Ligand_Instance>  (786) 
nan

>  <PDB_ID>  (786) 
nan

>  <Standardized_SMILES>  (786) 
Cc1ccc(F)c(-c2cc(Nc3ccnc4cn[nH]c34)ccn2)c1

>  <Name>  (786) 
nan

>  <Pocket>  (786) 
nan

>  <ATP_Site>  (786) 
nan

>  <Peripheral>  (786) 
nan

>  <Num_H_Atoms_ProtBoundConf>  (786) 
nan

>  <Num_Resolved_Atoms>  (786) 
nan

>  <Num_Not_Resolved_Atoms>  (786) 
nan

$$$$
CHEMBL4092521
     RDKit          3D

  0  0  0  0  0  0  0  0  0  0999 V3000
M  V30 BEGIN CTAB
M  V30 COUNTS 40 43 0 0 0
M  V30 BEGIN ATOM
M  V30 1 C 0.517731 -5.051381 3.369950 0
M  V30 2 C 0.751715 -4.132008 2.217902 0
M  V30 3 C 1.850626 -4.464731 1.464056 0
M  V30 4 C 2.070846 -3.604372 0.389947 0
M  V30 5 C 1.199779 -2.574283 0.222581 0
M  V30 6 C 0.109422 -2.261401 0.986473 0
M  V30 7 C -0.628866 -1.099125 0.553364 0
M  V30 8 C -0.203523 -0.280969 -0.493300 0
M  V30 9 C -0.843201 0.850030 -0.956041 0
M  V30 10 N -0.244137 1.568266 -2.062643 0
M  V30 11 C 0.750063 2.421084 -1.451013 0
M  V30 12 N 1.949429 1.969084 -0.972187 0
M  V30 13 N 2.660598 2.964400 -0.478098 0
M  V30 14 C 3.995358 2.827456 0.123850 0
M  V30 15 C 1.976354 4.117319 -0.602339 0
M  V30 16 C 0.764947 3.775934 -1.218407 0
M  V30 17 Cl -0.571652 4.815087 -1.667806 0
M  V30 18 N -1.988192 1.214353 -0.352495 0
M  V30 19 C -2.496088 0.488818 0.678025 0
M  V30 20 N -3.612508 0.687969 1.387406 0
M  V30 21 C -3.667780 -0.309660 2.281121 0
M  V30 22 C -2.548315 -1.133301 2.101920 0
M  V30 23 C -2.434827 -2.271095 2.957217 0
M  V30 24 N -2.363307 -3.182523 3.646985 0
M  V30 25 C -1.798169 -0.622806 1.077705 0
M  V30 26 N -0.029398 -3.104744 1.964067 0
M  V30 27 H 1.516564 -5.303168 3.828506 0
M  V30 28 H 0.042713 -5.979624 3.012319 0
M  V30 29 H -0.072565 -4.619892 4.183235 0
M  V30 30 H 2.488298 -5.318975 1.688336 0
M  V30 31 H 2.935534 -3.839958 -0.230392 0
M  V30 32 H 1.524455 -2.029868 -0.654111 0
M  V30 33 H 0.699987 -0.458445 -1.051578 0
M  V30 34 H -0.491480 1.491057 -3.071918 0
M  V30 35 H 4.330621 1.768042 0.044077 0
M  V30 36 H 4.659550 3.560992 -0.331333 0
M  V30 37 H 3.923924 3.013724 1.232568 0
M  V30 38 H 2.249166 5.122069 -0.307358 0
M  V30 39 H -4.274663 1.481324 1.229388 0
M  V30 40 H -4.495531 -0.343126 2.965844 0
M  V30 END ATOM
M  V30 BEGIN BOND
M  V30 1 1 1 2
M  V30 2 2 2 3
M  V30 3 1 3 4
M  V30 4 2 4 5
M  V30 5 1 5 6
M  V30 6 1 6 7
M  V30 7 2 7 8
M  V30 8 1 8 9
M  V30 9 1 9 10
M  V30 10 1 10 11
M  V30 11 2 11 12
M  V30 12 1 12 13
M  V30 13 1 13 14
M  V30 14 1 13 15
M  V30 15 2 15 16
M  V30 16 1 16 17
M  V30 17 2 9 18
M  V30 18 1 18 19
M  V30 19 1 19 20
M  V30 20 1 20 21
M  V30 21 2 21 22
M  V30 22 1 22 23
M  V30 23 3 23 24
M  V30 24 1 22 25
M  V30 25 2 6 26
M  V30 26 1 26 2
M  V30 27 1 25 7
M  V30 28 1 16 11
M  V30 29 2 25 19
M  V30 30 1 1 27
M  V30 31 1 1 28
M  V30 32 1 1 29
M  V30 33 1 3 30
M  V30 34 1 4 31
M  V30 35 1 5 32
M  V30 36 1 8 33
M  V30 37 1 10 34
M  V30 38 1 14 35
M  V30 39 1 14 36
M  V30 40 1 14 37
M  V30 41 1 15 38
M  V30 42 1 20 39
M  V30 43 1 21 40
M  V30 END BOND
M  V30 END CTAB
M  END
>  <Dataset>  (787) 
ChEMBL_Kinases

>  <Ligand_Instance>  (787) 
nan

>  <PDB_ID>  (787) 
nan

>  <Standardized_SMILES>  (787) 
Cc1cccc(-c2cc(Nc3nn(C)cc3Cl)nc3[nH]cc(C#N)c23)n1

>  <Name>  (787) 
nan

>  <Pocket>  (787) 
nan

>  <ATP_Site>  (787) 
nan

>  <Peripheral>  (787) 
nan

>  <Num_H_Atoms_ProtBoundConf>  (787) 
nan

>  <Num_Resolved_Atoms>  (787) 
nan

>  <Num_Not_Resolved_Atoms>  (787) 
nan

$$$$
CHEMBL483151
     RDKit          3D

  0  0  0  0  0  0  0  0  0  0999 V3000
M  V30 BEGIN CTAB
M  V30 COUNTS 40 43 0 0 0
M  V30 BEGIN ATOM
M  V30 1 C 2.220392 -3.508454 4.062626 0
M  V30 2 C 2.014590 -4.022311 2.789317 0
M  V30 3 C 1.756247 -3.231145 1.686433 0
M  V30 4 C 1.696306 -1.854655 1.842105 0
M  V30 5 C 1.430233 -0.930299 0.744037 0
M  V30 6 C 2.206050 -1.310907 -0.363374 0
M  V30 7 C 2.114398 -0.568353 -1.531306 0
M  V30 8 C 2.829012 -0.852256 -2.675732 0
M  V30 9 C 2.677866 -0.057521 -3.801324 0
M  V30 10 N 1.840756 1.008539 -3.826150 0
M  V30 11 C 1.108021 1.337048 -2.722342 0
M  V30 12 C 1.286830 0.521833 -1.623383 0
M  V30 13 C 0.544731 0.860895 -0.517089 0
M  V30 14 C 0.573018 0.182878 0.678109 0
M  V30 15 O -0.010580 0.264083 1.894729 0
M  V30 16 C -0.939344 1.127675 2.442963 0
M  V30 17 C -2.212657 1.059961 1.691805 0
M  V30 18 C -2.772665 1.794899 0.671065 0
M  V30 19 C -3.999719 1.452569 0.170038 0
M  V30 20 C -4.725376 0.386668 0.641863 0
M  V30 21 N -4.187407 -0.351977 1.652149 0
M  V30 22 C -2.964242 -0.010707 2.151221 0
M  V30 23 C 1.900906 -1.325199 3.114394 0
M  V30 24 C 2.160209 -2.125142 4.219360 0
M  V30 25 H 2.421236 -4.163726 4.906173 0
M  V30 26 H 2.048056 -5.092396 2.598384 0
M  V30 27 H 1.600096 -3.653707 0.709037 0
M  V30 28 H 2.892832 -2.124782 -0.455733 0
M  V30 29 H 3.503880 -1.703644 -2.670708 0
M  V30 30 H 3.246266 -0.283200 -4.711839 0
M  V30 31 H 0.431730 2.180562 -2.709370 0
M  V30 32 H -0.132092 1.687654 -0.450583 0
M  V30 33 H -0.555192 2.178523 2.244984 0
M  V30 34 H -1.089611 0.983192 3.534566 0
M  V30 35 H -2.118066 2.608326 0.390661 0
M  V30 36 H -4.356999 2.088572 -0.630307 0
M  V30 37 H -5.679123 0.216252 0.167316 0
M  V30 38 H -2.727864 -0.720867 2.938239 0
M  V30 39 H 1.856890 -0.235116 3.256095 0
M  V30 40 H 2.313863 -1.662210 5.197399 0
M  V30 END ATOM
M  V30 BEGIN BOND
M  V30 1 2 1 2
M  V30 2 1 2 3
M  V30 3 2 3 4
M  V30 4 1 4 5
M  V30 5 2 5 6
M  V30 6 1 6 7
M  V30 7 2 7 8
M  V30 8 1 8 9
M  V30 9 2 9 10
M  V30 10 1 10 11
M  V30 11 2 11 12
M  V30 12 1 12 13
M  V30 13 2 13 14
M  V30 14 1 14 15
M  V30 15 1 15 16
M  V30 16 1 16 17
M  V30 17 2 17 18
M  V30 18 1 18 19
M  V30 19 2 19 20
M  V30 20 1 20 21
M  V30 21 2 21 22
M  V30 22 1 4 23
M  V30 23 2 23 24
M  V30 24 1 24 1
M  V30 25 1 14 5
M  V30 26 1 22 17
M  V30 27 1 12 7
M  V30 28 1 1 25
M  V30 29 1 2 26
M  V30 30 1 3 27
M  V30 31 1 6 28
M  V30 32 1 8 29
M  V30 33 1 9 30
M  V30 34 1 11 31
M  V30 35 1 13 32
M  V30 36 1 16 33
M  V30 37 1 16 34
M  V30 38 1 18 35
M  V30 39 1 19 36
M  V30 40 1 20 37
M  V30 41 1 22 38
M  V30 42 1 23 39
M  V30 43 1 24 40
M  V30 END BOND
M  V30 END CTAB
M  END
>  <Dataset>  (788) 
ChEMBL_Kinases

>  <Ligand_Instance>  (788) 
nan

>  <PDB_ID>  (788) 
nan

>  <Standardized_SMILES>  (788) 
c1ccc(-c2cc3ccncc3cc2OCc2cccnc2)cc1

>  <Name>  (788) 
nan

>  <Pocket>  (788) 
nan

>  <ATP_Site>  (788) 
nan

>  <Peripheral>  (788) 
nan

>  <Num_H_Atoms_ProtBoundConf>  (788) 
nan

>  <Num_Resolved_Atoms>  (788) 
nan

>  <Num_Not_Resolved_Atoms>  (788) 
nan

$$$$
CHEMBL4092372
     RDKit          3D

  0  0  0  0  0  0  0  0  0  0999 V3000
M  V30 BEGIN CTAB
M  V30 COUNTS 62 66 0 0 0
M  V30 BEGIN ATOM
M  V30 1 O -2.709920 1.207362 8.263849 0
M  V30 2 C -3.003295 0.832701 7.099563 0
M  V30 3 N -4.222757 0.139222 6.903789 0
M  V30 4 C -5.251415 -0.250062 7.819465 0
M  V30 5 C -4.722882 -1.190296 8.871135 0
M  V30 6 O -3.716165 -0.694383 9.657309 0
M  V30 7 C -2.029775 1.165342 6.069888 0
M  V30 8 C -0.888544 1.841202 6.440300 0
M  V30 9 C 0.088570 2.191018 5.503838 0
M  V30 10 C -0.055371 1.871131 4.170926 0
M  V30 11 C -1.193643 1.193786 3.783197 0
M  V30 12 C -2.139420 0.862441 4.729928 0
M  V30 13 C -1.556234 0.755432 2.438939 0
M  V30 14 O -2.769727 0.494461 2.260893 0
M  V30 15 C -0.618939 0.602979 1.308324 0
M  V30 16 C -1.289909 0.237460 0.172332 0
M  V30 17 C -0.565604 0.044607 -1.003077 0
M  V30 18 C 0.798470 0.236198 -0.948135 0
M  V30 19 N 1.555167 0.044965 -2.134944 0
M  V30 20 C 1.112928 -0.299787 -3.432472 0
M  V30 21 C 1.541570 -1.451154 -4.065473 0
M  V30 22 C 1.173549 -1.861377 -5.305938 0
M  V30 23 N 1.665230 -3.063504 -5.873229 0
M  V30 24 C 2.789306 -3.343428 -6.657794 0
M  V30 25 O 3.478347 -2.336347 -6.894346 0
M  V30 26 C 2.976588 -4.719245 -7.064247 0
M  V30 27 C 3.972279 -5.197053 -7.807256 0
M  V30 28 C 4.070932 -6.518527 -8.145216 0
M  V30 29 C 2.965690 -7.329892 -7.598970 0
M  V30 30 S 1.938757 -6.089526 -6.677351 0
M  V30 31 C 0.284605 -1.053214 -6.008197 0
M  V30 32 F -0.114356 -1.423282 -7.258209 0
M  V30 33 C -0.187640 0.124245 -5.427120 0
M  V30 34 C 0.232248 0.476789 -4.158872 0
M  V30 35 F -0.249119 1.640758 -3.613935 0
M  V30 36 C 1.502361 0.601371 0.168667 0
M  V30 37 C 0.765740 0.788435 1.326476 0
M  V30 38 C 1.615999 1.179740 2.467414 0
M  V30 39 C 1.069665 2.310979 3.299490 0
M  V30 40 H -4.314686 -0.097165 5.869368 0
M  V30 41 H -5.724250 0.632358 8.314196 0
M  V30 42 H -5.996361 -0.833751 7.238129 0
M  V30 43 H -5.568859 -1.602850 9.490841 0
M  V30 44 H -4.350557 -2.101685 8.319351 0
M  V30 45 H -2.968175 -1.339038 9.697844 0
M  V30 46 H -0.659708 2.148345 7.455200 0
M  V30 47 H 0.984410 2.721732 5.796358 0
M  V30 48 H -3.008124 0.337935 4.393343 0
M  V30 49 H -2.374055 0.109590 0.228571 0
M  V30 50 H -1.114664 -0.242840 -1.884220 0
M  V30 51 H 2.591050 0.141124 -2.198376 0
M  V30 52 H 2.231542 -2.082687 -3.525688 0
M  V30 53 H 0.920775 -3.712549 -5.527056 0
M  V30 54 H 4.780224 -4.552987 -8.196149 0
M  V30 55 H 4.813122 -7.035296 -8.732038 0
M  V30 56 H 2.931862 -8.491294 -7.818495 0
M  V30 57 H -0.870860 0.749546 -5.961267 0
M  V30 58 H 2.574076 0.740530 0.165218 0
M  V30 59 H 2.602579 1.535297 2.074692 0
M  V30 60 H 1.839025 0.339447 3.150909 0
M  V30 61 H 1.877069 2.643359 3.961860 0
M  V30 62 H 0.690098 3.149089 2.690177 0
M  V30 END ATOM
M  V30 BEGIN BOND
M  V30 1 2 1 2
M  V30 2 1 2 3
M  V30 3 1 3 4
M  V30 4 1 4 5
M  V30 5 1 5 6
M  V30 6 1 2 7
M  V30 7 2 7 8
M  V30 8 1 8 9
M  V30 9 2 9 10
M  V30 10 1 10 11
M  V30 11 2 11 12
M  V30 12 1 11 13
M  V30 13 2 13 14
M  V30 14 1 13 15
M  V30 15 2 15 16
M  V30 16 1 16 17
M  V30 17 2 17 18
M  V30 18 1 18 19
M  V30 19 1 19 20
M  V30 20 2 20 21
M  V30 21 1 21 22
M  V30 22 1 22 23
M  V30 23 1 23 24
M  V30 24 2 24 25
M  V30 25 1 24 26
M  V30 26 2 26 27
M  V30 27 1 27 28
M  V30 28 2 28 29
M  V30 29 1 29 30
M  V30 30 2 22 31
M  V30 31 1 31 32
M  V30 32 1 31 33
M  V30 33 2 33 34
M  V30 34 1 34 35
M  V30 35 1 18 36
M  V30 36 2 36 37
M  V30 37 1 37 38
M  V30 38 1 38 39
M  V30 39 1 12 7
M  V30 40 1 37 15
M  V30 41 1 39 10
M  V30 42 1 34 20
M  V30 43 1 30 26
M  V30 44 1 3 40
M  V30 45 1 4 41
M  V30 46 1 4 42
M  V30 47 1 5 43
M  V30 48 1 5 44
M  V30 49 1 6 45
M  V30 50 1 8 46
M  V30 51 1 9 47
M  V30 52 1 12 48
M  V30 53 1 16 49
M  V30 54 1 17 50
M  V30 55 1 19 51
M  V30 56 1 21 52
M  V30 57 1 23 53
M  V30 58 1 27 54
M  V30 59 1 28 55
M  V30 60 1 29 56
M  V30 61 1 33 57
M  V30 62 1 36 58
M  V30 63 1 38 59
M  V30 64 1 38 60
M  V30 65 1 39 61
M  V30 66 1 39 62
M  V30 END BOND
M  V30 END CTAB
M  END
>  <Dataset>  (789) 
ChEMBL_Kinases

>  <Ligand_Instance>  (789) 
nan

>  <PDB_ID>  (789) 
nan

>  <Standardized_SMILES>  (789) 
O=C(NCCO)c1ccc2c(c1)C(=O)c1ccc(Nc3cc(NC(=O)c4cccs4)c(F)cc3F)cc1CC2

>  <Name>  (789) 
nan

>  <Pocket>  (789) 
nan

>  <ATP_Site>  (789) 
nan

>  <Peripheral>  (789) 
nan

>  <Num_H_Atoms_ProtBoundConf>  (789) 
nan

>  <Num_Resolved_Atoms>  (789) 
nan

>  <Num_Not_Resolved_Atoms>  (789) 
nan

$$$$
CHEMBL483192
     RDKit          3D

  0  0  0  0  0  0  0  0  0  0999 V3000
M  V30 BEGIN CTAB
M  V30 COUNTS 66 69 0 0 0
M  V30 BEGIN ATOM
M  V30 1 C 3.837134 4.367382 2.314251 0
M  V30 2 C 2.464095 3.846945 2.568731 0
M  V30 3 O 1.643300 4.298904 3.462931 0
M  V30 4 C 0.501705 3.659429 3.473368 0
M  V30 5 C -0.727550 3.805960 4.297505 0
M  V30 6 C -1.732226 4.762739 3.706634 0
M  V30 7 C -1.437067 2.462452 4.451809 0
M  V30 8 C -0.286052 4.225481 5.682140 0
M  V30 9 C 0.583551 2.694885 2.489750 0
M  V30 10 C 1.841572 2.799970 1.895359 0
M  V30 11 C 2.413322 2.001327 0.812691 0
M  V30 12 O 3.583767 2.284262 0.462321 0
M  V30 13 C 1.538171 0.945216 0.252973 0
M  V30 14 O 0.357876 0.498558 0.432089 0
M  V30 15 N 2.109217 0.146518 -0.802682 0
M  V30 16 C 1.151793 -0.830598 -1.249768 0
M  V30 17 C 0.354787 -0.438020 -2.303850 0
M  V30 18 C -0.552576 -1.371311 -2.714839 0
M  V30 19 C -0.776806 -2.633651 -2.227069 0
M  V30 20 O -1.580088 -3.655752 -2.477944 0
M  V30 21 C -2.574346 -3.999715 -3.330229 0
M  V30 22 C -2.309449 -4.075210 -4.789715 0
M  V30 23 N -1.909342 -2.907063 -5.475864 0
M  V30 24 C -2.949936 -1.912336 -5.607784 0
M  V30 25 C -3.615030 -1.943238 -6.967519 0
M  V30 26 O -3.520685 -3.247362 -7.449619 0
M  V30 27 C -2.191114 -3.385736 -7.863910 0
M  V30 28 C -1.240343 -3.247828 -6.693220 0
M  V30 29 C 0.072539 -2.957938 -1.156660 0
M  V30 30 C 0.079993 -4.155792 -0.459565 0
M  V30 31 C 0.896976 -4.500376 0.592124 0
M  V30 32 C 1.804903 -3.543551 0.989806 0
M  V30 33 C 1.897802 -2.311570 0.377884 0
M  V30 34 C 1.034836 -2.071360 -0.661638 0
M  V30 35 H 4.049612 4.438892 1.226409 0
M  V30 36 H 4.628233 3.801262 2.808254 0
M  V30 37 H 3.896914 5.412439 2.715731 0
M  V30 38 H -1.388850 5.178815 2.727939 0
M  V30 39 H -1.965105 5.578540 4.431306 0
M  V30 40 H -2.716558 4.272807 3.490542 0
M  V30 41 H -2.111198 2.236970 3.598916 0
M  V30 42 H -2.068515 2.449876 5.366160 0
M  V30 43 H -0.701859 1.631214 4.505910 0
M  V30 44 H -0.641814 5.255722 5.836601 0
M  V30 45 H -0.670380 3.536494 6.475873 0
M  V30 46 H 0.813676 4.207763 5.805032 0
M  V30 47 H -0.174344 1.954244 2.189809 0
M  V30 48 H 3.077572 0.241809 -1.205350 0
M  V30 49 H 0.389050 0.515055 -2.812669 0
M  V30 50 H -1.207345 -1.117559 -3.524742 0
M  V30 51 H -3.527968 -3.398924 -3.180312 0
M  V30 52 H -2.946724 -5.047664 -3.045026 0
M  V30 53 H -3.219910 -4.533766 -5.253012 0
M  V30 54 H -1.465178 -4.821602 -4.913569 0
M  V30 55 H -3.752109 -2.044007 -4.854763 0
M  V30 56 H -2.482230 -0.903187 -5.538000 0
M  V30 57 H -3.138360 -1.221254 -7.670574 0
M  V30 58 H -4.687594 -1.663533 -6.893480 0
M  V30 59 H -2.098011 -4.328524 -8.407144 0
M  V30 60 H -1.955535 -2.544572 -8.547537 0
M  V30 61 H -0.372432 -2.592165 -6.907103 0
M  V30 62 H -0.800154 -4.270912 -6.557227 0
M  V30 63 H -0.645663 -4.911382 -0.782795 0
M  V30 64 H 0.792860 -5.476536 1.045621 0
M  V30 65 H 2.449026 -3.813150 1.818108 0
M  V30 66 H 2.613421 -1.587043 0.708511 0
M  V30 END ATOM
M  V30 BEGIN BOND
M  V30 1 1 1 2
M  V30 2 1 2 3
M  V30 3 1 3 4
M  V30 4 1 4 5
M  V30 5 1 5 6
M  V30 6 1 5 7
M  V30 7 1 5 8
M  V30 8 2 4 9
M  V30 9 1 9 10
M  V30 10 1 10 11
M  V30 11 2 11 12
M  V30 12 1 11 13
M  V30 13 2 13 14
M  V30 14 1 13 15
M  V30 15 1 15 16
M  V30 16 2 16 17
M  V30 17 1 17 18
M  V30 18 2 18 19
M  V30 19 1 19 20
M  V30 20 1 20 21
M  V30 21 1 21 22
M  V30 22 1 22 23
M  V30 23 1 23 24
M  V30 24 1 24 25
M  V30 25 1 25 26
M  V30 26 1 26 27
M  V30 27 1 27 28
M  V30 28 1 19 29
M  V30 29 2 29 30
M  V30 30 1 30 31
M  V30 31 2 31 32
M  V30 32 1 32 33
M  V30 33 2 33 34
M  V30 34 2 10 2
M  V30 35 1 34 16
M  V30 36 1 28 23
M  V30 37 1 34 29
M  V30 38 1 1 35
M  V30 39 1 1 36
M  V30 40 1 1 37
M  V30 41 1 6 38
M  V30 42 1 6 39
M  V30 43 1 6 40
M  V30 44 1 7 41
M  V30 45 1 7 42
M  V30 46 1 7 43
M  V30 47 1 8 44
M  V30 48 1 8 45
M  V30 49 1 8 46
M  V30 50 1 9 47
M  V30 51 1 15 48
M  V30 52 1 17 49
M  V30 53 1 18 50
M  V30 54 1 21 51
M  V30 55 1 21 52
M  V30 56 1 22 53
M  V30 57 1 22 54
M  V30 58 1 24 55
M  V30 59 1 24 56
M  V30 60 1 25 57
M  V30 61 1 25 58
M  V30 62 1 27 59
M  V30 63 1 27 60
M  V30 64 1 28 61
M  V30 65 1 28 62
M  V30 66 1 30 63
M  V30 67 1 31 64
M  V30 68 1 32 65
M  V30 69 1 33 66
M  V30 END BOND
M  V30 END CTAB
M  END
>  <Dataset>  (790) 
ChEMBL_Kinases

>  <Ligand_Instance>  (790) 
nan

>  <PDB_ID>  (790) 
nan

>  <Standardized_SMILES>  (790) 
Cc1oc(C(C)(C)C)cc1C(=O)C(=O)Nc1ccc(OCCN2CCOCC2)c2ccccc12

>  <Name>  (790) 
nan

>  <Pocket>  (790) 
nan

>  <ATP_Site>  (790) 
nan

>  <Peripheral>  (790) 
nan

>  <Num_H_Atoms_ProtBoundConf>  (790) 
nan

>  <Num_Resolved_Atoms>  (790) 
nan

>  <Num_Not_Resolved_Atoms>  (790) 
nan

$$$$
CHEMBL483359
     RDKit          3D

  0  0  0  0  0  0  0  0  0  0999 V3000
M  V30 BEGIN CTAB
M  V30 COUNTS 48 51 0 0 0
M  V30 BEGIN ATOM
M  V30 1 N 2.969098 -4.636395 2.188890 0
M  V30 2 S 1.382844 -4.584184 1.495837 0
M  V30 3 O 0.338103 -4.359806 2.545698 0
M  V30 4 O 1.099677 -5.913108 0.855077 0
M  V30 5 C 1.396835 -3.311402 0.297685 0
M  V30 6 C 1.761892 -3.699263 -0.973824 0
M  V30 7 C 1.792331 -2.734052 -1.958890 0
M  V30 8 C 1.463802 -1.429428 -1.656659 0
M  V30 9 C 1.090699 -1.017667 -0.370939 0
M  V30 10 C 0.761816 0.375582 -0.121551 0
M  V30 11 C 1.722150 1.222271 -0.695307 0
M  V30 12 C 1.632118 2.595639 -0.589383 0
M  V30 13 C 2.548798 3.470276 -1.134616 0
M  V30 14 C 2.332886 4.815617 -0.950461 0
M  V30 15 N 1.282162 5.341531 -0.270592 0
M  V30 16 C 0.387354 4.505529 0.262266 0
M  V30 17 C 0.571818 3.147714 0.097450 0
M  V30 18 C -0.347425 2.296081 0.645062 0
M  V30 19 C -0.318023 0.929778 0.577428 0
M  V30 20 O -1.135876 -0.043885 1.056289 0
M  V30 21 C -2.287454 0.288260 1.794866 0
M  V30 22 C -2.163244 -0.343582 3.187213 0
M  V30 23 C -1.830105 -1.794204 3.075247 0
M  V30 24 N -2.066626 -2.247207 1.714665 0
M  V30 25 C -3.428522 -1.839647 1.360971 0
M  V30 26 C -3.534740 -0.361380 1.180988 0
M  V30 27 C 1.070304 -2.001949 0.586272 0
M  V30 28 H 3.637674 -4.449865 1.412001 0
M  V30 29 H 3.151704 -5.535024 2.683841 0
M  V30 30 H 2.033572 -4.694759 -1.297231 0
M  V30 31 H 2.068519 -2.946315 -2.992399 0
M  V30 32 H 1.486600 -0.655885 -2.438898 0
M  V30 33 H 2.593030 0.912844 -1.254282 0
M  V30 34 H 3.385418 3.073437 -1.675156 0
M  V30 35 H 3.067292 5.502292 -1.387773 0
M  V30 36 H -0.451048 4.933627 0.805052 0
M  V30 37 H -1.186555 2.687015 1.186759 0
M  V30 38 H -2.448446 1.351283 1.972503 0
M  V30 39 H -3.189383 -0.266028 3.649555 0
M  V30 40 H -1.507503 0.244258 3.838529 0
M  V30 41 H -0.796308 -1.963560 3.380375 0
M  V30 42 H -2.520598 -2.426994 3.706172 0
M  V30 43 H -2.010595 -3.285164 1.617132 0
M  V30 44 H -4.077543 -2.221236 2.187247 0
M  V30 45 H -3.712876 -2.343912 0.412232 0
M  V30 46 H -4.392896 0.034439 1.769355 0
M  V30 47 H -3.667128 -0.055683 0.124810 0
M  V30 48 H 0.788425 -1.733102 1.595223 0
M  V30 END ATOM
M  V30 BEGIN BOND
M  V30 1 1 1 2
M  V30 2 2 2 3
M  V30 3 2 2 4
M  V30 4 1 2 5
M  V30 5 2 5 6
M  V30 6 1 6 7
M  V30 7 2 7 8
M  V30 8 1 8 9
M  V30 9 1 9 10
M  V30 10 2 10 11
M  V30 11 1 11 12
M  V30 12 2 12 13
M  V30 13 1 13 14
M  V30 14 2 14 15
M  V30 15 1 15 16
M  V30 16 2 16 17
M  V30 17 1 17 18
M  V30 18 2 18 19
M  V30 19 1 19 20
M  V30 20 1 20 21
M  V30 21 1 21 22
M  V30 22 1 22 23
M  V30 23 1 23 24
M  V30 24 1 24 25
M  V30 25 1 25 26
M  V30 26 2 9 27
M  V30 27 1 27 5
M  V30 28 1 19 10
M  V30 29 1 26 21
M  V30 30 1 17 12
M  V30 31 1 1 28
M  V30 32 1 1 29
M  V30 33 1 6 30
M  V30 34 1 7 31
M  V30 35 1 8 32
M  V30 36 1 11 33
M  V30 37 1 13 34
M  V30 38 1 14 35
M  V30 39 1 16 36
M  V30 40 1 18 37
M  V30 41 1 21 38
M  V30 42 1 22 39
M  V30 43 1 22 40
M  V30 44 1 23 41
M  V30 45 1 23 42
M  V30 46 1 24 43
M  V30 47 1 25 44
M  V30 48 1 25 45
M  V30 49 1 26 46
M  V30 50 1 26 47
M  V30 51 1 27 48
M  V30 END BOND
M  V30 END CTAB
M  END
>  <Dataset>  (791) 
ChEMBL_Kinases

>  <Ligand_Instance>  (791) 
nan

>  <PDB_ID>  (791) 
nan

>  <Standardized_SMILES>  (791) 
NS(=O)(=O)c1cccc(-c2cc3ccncc3cc2OC2CCNCC2)c1

>  <Name>  (791) 
nan

>  <Pocket>  (791) 
nan

>  <ATP_Site>  (791) 
nan

>  <Peripheral>  (791) 
nan

>  <Num_H_Atoms_ProtBoundConf>  (791) 
nan

>  <Num_Resolved_Atoms>  (791) 
nan

>  <Num_Not_Resolved_Atoms>  (791) 
nan

$$$$
CHEMBL483387
     RDKit          3D

  0  0  0  0  0  0  0  0  0  0999 V3000
M  V30 BEGIN CTAB
M  V30 COUNTS 55 59 0 0 0
M  V30 BEGIN ATOM
M  V30 1 C 2.187461 -0.354762 -1.407078 0
M  V30 2 C 0.967526 -0.951401 -0.806758 0
M  V30 3 C 0.579763 -0.842760 0.454898 0
M  V30 4 C 1.477524 -0.055892 1.273881 0
M  V30 5 O 2.544934 0.494971 0.830255 0
M  V30 6 N 1.403294 0.270689 2.657504 0
M  V30 7 C 2.538168 1.079662 2.990903 0
M  V30 8 C 2.283630 2.430276 2.827527 0
M  V30 9 C 3.268942 3.368002 3.103352 0
M  V30 10 C 4.510883 2.935448 3.544391 0
M  V30 11 N 5.671863 3.524492 3.899223 0
M  V30 12 N 6.568783 2.615664 4.252230 0
M  V30 13 C 6.060663 1.368367 4.154162 0
M  V30 14 C 4.761126 1.567907 3.707309 0
M  V30 15 C 3.771917 0.643775 3.429393 0
M  V30 16 C -0.656829 -1.441884 1.018942 0
M  V30 17 C -1.661479 -0.348060 1.332694 0
M  V30 18 C -2.143430 0.281520 0.184764 0
M  V30 19 C -3.085286 1.312432 0.199466 0
M  V30 20 C -3.565176 1.730273 1.421858 0
M  V30 21 F -4.480790 2.724397 1.529265 0
M  V30 22 C -3.092854 1.113137 2.545264 0
M  V30 23 C -2.168230 0.102885 2.509280 0
M  V30 24 N -1.366377 -2.230871 0.032762 0
M  V30 25 C -1.024392 -2.358173 -1.170837 0
M  V30 26 C -1.874551 -3.195670 -2.009515 0
M  V30 27 C -1.640712 -3.437989 -3.348486 0
M  V30 28 C -2.441616 -4.229194 -4.145621 0
M  V30 29 C -3.554996 -4.829835 -3.595963 0
M  V30 30 C -3.842401 -4.627177 -2.266297 0
M  V30 31 C -5.041681 -5.273045 -1.670613 0
M  V30 32 C -3.003880 -3.829065 -1.532179 0
M  V30 33 N 0.142814 -1.744216 -1.687762 0
M  V30 34 H 2.161232 0.768972 -1.424959 0
M  V30 35 H 3.132927 -0.768402 -1.005641 0
M  V30 36 H 2.244488 -0.604212 -2.508288 0
M  V30 37 H 0.595338 -0.106954 3.178976 0
M  V30 38 H 1.353770 2.871429 2.490529 0
M  V30 39 H 3.155066 4.451168 3.002562 0
M  V30 40 H 5.820300 4.561652 3.888963 0
M  V30 41 H 6.556827 0.434631 4.374366 0
M  V30 42 H 3.873858 -0.408604 3.524399 0
M  V30 43 H -0.406448 -2.011113 1.912950 0
M  V30 44 H -1.833959 0.031428 -0.825341 0
M  V30 45 H -3.452806 1.792619 -0.675994 0
M  V30 46 H -3.426307 1.390474 3.540961 0
M  V30 47 H -1.746761 -0.441629 3.364394 0
M  V30 48 H -0.792039 -3.000546 -3.835343 0
M  V30 49 H -2.208779 -4.385215 -5.195710 0
M  V30 50 H -4.201677 -5.454959 -4.194047 0
M  V30 51 H -5.050646 -5.207312 -0.576258 0
M  V30 52 H -5.086372 -6.349280 -1.969749 0
M  V30 53 H -5.965062 -4.752469 -2.033928 0
M  V30 54 H -3.287501 -3.712031 -0.495481 0
M  V30 55 H 0.415021 -1.854484 -2.688323 0
M  V30 END ATOM
M  V30 BEGIN BOND
M  V30 1 1 1 2
M  V30 2 2 2 3
M  V30 3 1 3 4
M  V30 4 2 4 5
M  V30 5 1 4 6
M  V30 6 1 6 7
M  V30 7 2 7 8
M  V30 8 1 8 9
M  V30 9 2 9 10
M  V30 10 1 10 11
M  V30 11 1 11 12
M  V30 12 2 12 13
M  V30 13 1 13 14
M  V30 14 2 14 15
M  V30 15 1 3 16
M  V30 16 1 16 17
M  V30 17 2 17 18
M  V30 18 1 18 19
M  V30 19 2 19 20
M  V30 20 1 20 21
M  V30 21 1 20 22
M  V30 22 2 22 23
M  V30 23 1 16 24
M  V30 24 2 24 25
M  V30 25 1 25 26
M  V30 26 2 26 27
M  V30 27 1 27 28
M  V30 28 2 28 29
M  V30 29 1 29 30
M  V30 30 1 30 31
M  V30 31 2 30 32
M  V30 32 1 25 33
M  V30 33 1 33 2
M  V30 34 1 15 7
M  V30 35 1 23 17
M  V30 36 1 32 26
M  V30 37 1 14 10
M  V30 38 1 1 34
M  V30 39 1 1 35
M  V30 40 1 1 36
M  V30 41 1 6 37
M  V30 42 1 8 38
M  V30 43 1 9 39
M  V30 44 1 11 40
M  V30 45 1 13 41
M  V30 46 1 15 42
M  V30 47 1 16 43
M  V30 48 1 18 44
M  V30 49 1 19 45
M  V30 50 1 22 46
M  V30 51 1 23 47
M  V30 52 1 27 48
M  V30 53 1 28 49
M  V30 54 1 29 50
M  V30 55 1 31 51
M  V30 56 1 31 52
M  V30 57 1 31 53
M  V30 58 1 32 54
M  V30 59 1 33 55
M  V30 END BOND
M  V30 END CTAB
M  END
>  <Dataset>  (792) 
ChEMBL_Kinases

>  <Ligand_Instance>  (792) 
nan

>  <PDB_ID>  (792) 
nan

>  <Standardized_SMILES>  (792) 
CC1=C(C(=O)Nc2ccc3[nH]ncc3c2)C(c2ccc(F)cc2)N=C(c2cccc(C)c2)N1

>  <Name>  (792) 
nan

>  <Pocket>  (792) 
nan

>  <ATP_Site>  (792) 
nan

>  <Peripheral>  (792) 
nan

>  <Num_H_Atoms_ProtBoundConf>  (792) 
nan

>  <Num_Resolved_Atoms>  (792) 
nan

>  <Num_Not_Resolved_Atoms>  (792) 
nan

$$$$
CHEMBL483394
     RDKit          3D

  0  0  0  0  0  0  0  0  0  0999 V3000
M  V30 BEGIN CTAB
M  V30 COUNTS 62 66 0 0 0
M  V30 BEGIN ATOM
M  V30 1 C 8.827190 -1.636407 1.863070 0
M  V30 2 O 7.859176 -0.795487 2.510050 0
M  V30 3 C 6.501740 -1.224260 2.242320 0
M  V30 4 C 5.816478 -0.207964 3.009319 0
M  V30 5 C 4.438095 -0.269996 3.007539 0
M  V30 6 C 3.629578 -1.177954 2.364633 0
M  V30 7 C 2.241230 -1.364933 2.113820 0
M  V30 8 N 1.326748 -0.563588 2.452937 0
M  V30 9 C -0.076480 -0.637493 2.261612 0
M  V30 10 C -0.553091 0.664975 1.773879 0
M  V30 11 C -1.647894 1.337535 2.149064 0
M  V30 12 C -2.134940 2.541826 1.717723 0
M  V30 13 C -1.333046 3.079412 0.761789 0
M  V30 14 S -1.892860 4.616628 0.083953 0
M  V30 15 C -3.066848 4.237479 -1.206514 0
M  V30 16 O -0.759882 5.433415 -0.454822 0
M  V30 17 O -2.530081 5.420623 1.198805 0
M  V30 18 C -0.137621 2.566171 0.208720 0
M  V30 19 C 0.206474 1.321966 0.772828 0
M  V30 20 C -0.454138 -1.755528 1.357530 0
M  V30 21 C -1.741756 -1.728125 0.768248 0
M  V30 22 O -1.666732 -2.698944 -0.010702 0
M  V30 23 N -3.043143 -1.577724 0.271109 0
M  V30 24 C -3.879338 -2.187912 -0.690143 0
M  V30 25 C -3.406189 -3.227129 -1.451670 0
M  V30 26 C -4.334535 -3.640855 -2.377427 0
M  V30 27 C -5.621711 -3.077606 -2.533285 0
M  V30 28 N -6.539316 -3.454607 -3.424422 0
M  V30 29 N -7.578945 -2.623626 -3.187372 0
M  V30 30 C -7.265592 -1.785488 -2.182735 0
M  V30 31 C -6.002530 -2.015690 -1.702309 0
M  V30 32 C -5.036767 -1.600770 -0.755108 0
M  V30 33 C 0.409238 -2.713873 0.959088 0
M  V30 34 C 0.199768 -3.914989 0.067545 0
M  V30 35 N 1.772771 -2.438827 1.381966 0
M  V30 36 C 4.556323 -2.033463 1.710169 0
M  V30 37 C 5.844780 -2.293253 1.481977 0
M  V30 38 H 8.656370 -1.452192 0.779493 0
M  V30 39 H 9.841288 -1.310859 2.076318 0
M  V30 40 H 8.591649 -2.695416 2.050466 0
M  V30 41 H 6.131033 0.649624 3.625839 0
M  V30 42 H 3.750857 0.404921 3.543211 0
M  V30 43 H -0.539780 -0.832969 3.247429 0
M  V30 44 H -2.245899 0.810677 2.922435 0
M  V30 45 H -3.014581 3.042160 2.049605 0
M  V30 46 H -2.833563 3.330969 -1.741450 0
M  V30 47 H -3.117674 5.063534 -1.939043 0
M  V30 48 H -4.055649 4.077412 -0.681493 0
M  V30 49 H 0.451307 3.047458 -0.548256 0
M  V30 50 H 1.106894 0.826416 0.426611 0
M  V30 51 H -3.206010 -0.766452 0.964989 0
M  V30 52 H -2.505663 -3.764044 -1.471502 0
M  V30 53 H -4.053387 -4.476699 -3.046798 0
M  V30 54 H -6.507932 -4.212209 -4.151518 0
M  V30 55 H -7.829687 -0.964627 -1.701555 0
M  V30 56 H -5.444455 -0.778901 -0.174443 0
M  V30 57 H -0.639823 -4.549444 0.386191 0
M  V30 58 H 1.090645 -4.585394 0.133480 0
M  V30 59 H 0.142830 -3.616699 -0.988665 0
M  V30 60 H 2.454130 -3.186657 1.062384 0
M  V30 61 H 4.271106 -2.914799 1.072737 0
M  V30 62 H 6.778658 -2.541592 1.274057 0
M  V30 END ATOM
M  V30 BEGIN BOND
M  V30 1 1 1 2
M  V30 2 1 2 3
M  V30 3 2 3 4
M  V30 4 1 4 5
M  V30 5 2 5 6
M  V30 6 1 6 7
M  V30 7 2 7 8
M  V30 8 1 8 9
M  V30 9 1 9 10
M  V30 10 2 10 11
M  V30 11 1 11 12
M  V30 12 2 12 13
M  V30 13 1 13 14
M  V30 14 1 14 15
M  V30 15 2 14 16
M  V30 16 2 14 17
M  V30 17 1 13 18
M  V30 18 2 18 19
M  V30 19 1 9 20
M  V30 20 1 20 21
M  V30 21 2 21 22
M  V30 22 1 21 23
M  V30 23 1 23 24
M  V30 24 2 24 25
M  V30 25 1 25 26
M  V30 26 2 26 27
M  V30 27 1 27 28
M  V30 28 1 28 29
M  V30 29 2 29 30
M  V30 30 1 30 31
M  V30 31 2 31 32
M  V30 32 2 20 33
M  V30 33 1 33 34
M  V30 34 1 33 35
M  V30 35 1 6 36
M  V30 36 2 36 37
M  V30 37 1 37 3
M  V30 38 1 35 7
M  V30 39 1 19 10
M  V30 40 1 32 24
M  V30 41 1 31 27
M  V30 42 1 1 38
M  V30 43 1 1 39
M  V30 44 1 1 40
M  V30 45 1 4 41
M  V30 46 1 5 42
M  V30 47 1 9 43
M  V30 48 1 11 44
M  V30 49 1 12 45
M  V30 50 1 15 46
M  V30 51 1 15 47
M  V30 52 1 15 48
M  V30 53 1 18 49
M  V30 54 1 19 50
M  V30 55 1 23 51
M  V30 56 1 25 52
M  V30 57 1 26 53
M  V30 58 1 28 54
M  V30 59 1 30 55
M  V30 60 1 32 56
M  V30 61 1 34 57
M  V30 62 1 34 58
M  V30 63 1 34 59
M  V30 64 1 35 60
M  V30 65 1 36 61
M  V30 66 1 37 62
M  V30 END BOND
M  V30 END CTAB
M  END
>  <Dataset>  (793) 
ChEMBL_Kinases

>  <Ligand_Instance>  (793) 
nan

>  <PDB_ID>  (793) 
nan

>  <Standardized_SMILES>  (793) 
COc1ccc(C2=NC(c3ccc(S(C)(=O)=O)cc3)C(C(=O)Nc3ccc4[nH]ncc4c3)=C(C)N2)cc1

>  <Name>  (793) 
nan

>  <Pocket>  (793) 
nan

>  <ATP_Site>  (793) 
nan

>  <Peripheral>  (793) 
nan

>  <Num_H_Atoms_ProtBoundConf>  (793) 
nan

>  <Num_Resolved_Atoms>  (793) 
nan

>  <Num_Not_Resolved_Atoms>  (793) 
nan

$$$$
CHEMBL483395
     RDKit          3D

  0  0  0  0  0  0  0  0  0  0999 V3000
M  V30 BEGIN CTAB
M  V30 COUNTS 51 55 0 0 0
M  V30 BEGIN ATOM
M  V30 1 C 0.480459 -2.466932 3.374908 0
M  V30 2 C 0.008510 -2.470201 1.968186 0
M  V30 3 C 0.366799 -1.462841 1.201866 0
M  V30 4 C 1.173660 -0.304582 1.501352 0
M  V30 5 O 1.424079 0.587497 0.620037 0
M  V30 6 N 1.898218 0.315783 2.538066 0
M  V30 7 C 2.489211 1.532438 2.083869 0
M  V30 8 C 1.644571 2.611153 2.273891 0
M  V30 9 C 2.053233 3.890706 1.888415 0
M  V30 10 C 3.319341 4.010694 1.320546 0
M  V30 11 N 3.998060 5.075204 0.853164 0
M  V30 12 N 5.198900 4.708632 0.392848 0
M  V30 13 C 5.348326 3.365824 0.546932 0
M  V30 14 C 4.175397 2.937912 1.124614 0
M  V30 15 C 3.737408 1.682043 1.518932 0
M  V30 16 C -0.118341 -1.478587 -0.212219 0
M  V30 17 C -0.949743 -0.266978 -0.525240 0
M  V30 18 C -0.711170 0.834413 -1.317548 0
M  V30 19 C -1.679479 1.810512 -1.396021 0
M  V30 20 C -2.871324 1.738084 -0.722684 0
M  V30 21 F -3.695817 2.795011 -0.925964 0
M  V30 22 C -3.117647 0.649352 0.065449 0
M  V30 23 C -2.161832 -0.354218 0.167425 0
M  V30 24 N -0.895792 -2.635750 -0.461188 0
M  V30 25 C -1.244180 -3.599491 0.251276 0
M  V30 26 C -2.067438 -4.671076 -0.294599 0
M  V30 27 C -2.465686 -5.745782 0.469949 0
M  V30 28 C -3.250573 -6.796789 0.003815 0
M  V30 29 N -3.641056 -6.748597 -1.283954 0
M  V30 30 C -3.254558 -5.697608 -2.040717 0
M  V30 31 C -2.476080 -4.645323 -1.596621 0
M  V30 32 N -0.791790 -3.571833 1.569341 0
M  V30 33 H 0.094551 -3.388859 3.915503 0
M  V30 34 H 0.097791 -1.609569 3.969471 0
M  V30 35 H 1.583294 -2.517265 3.471392 0
M  V30 36 H 1.836535 -0.259408 3.405106 0
M  V30 37 H 0.649289 2.578216 2.710302 0
M  V30 38 H 1.429069 4.776092 2.014454 0
M  V30 39 H 3.625545 6.050753 0.855527 0
M  V30 40 H 6.197234 2.736842 0.281782 0
M  V30 41 H 4.314180 0.794478 1.413778 0
M  V30 42 H 0.766012 -1.473606 -0.886622 0
M  V30 43 H 0.247568 0.769985 -1.796345 0
M  V30 44 H -1.388404 2.637299 -2.049475 0
M  V30 45 H -4.069783 0.642975 0.571987 0
M  V30 46 H -2.502398 -1.156151 0.831957 0
M  V30 47 H -2.183053 -5.837519 1.507148 0
M  V30 48 H -3.540149 -7.622230 0.641089 0
M  V30 49 H -3.592738 -5.704427 -3.066234 0
M  V30 50 H -2.211458 -3.842276 -2.269074 0
M  V30 51 H -1.029046 -4.330707 2.244791 0
M  V30 END ATOM
M  V30 BEGIN BOND
M  V30 1 1 1 2
M  V30 2 2 2 3
M  V30 3 1 3 4
M  V30 4 2 4 5
M  V30 5 1 4 6
M  V30 6 1 6 7
M  V30 7 2 7 8
M  V30 8 1 8 9
M  V30 9 2 9 10
M  V30 10 1 10 11
M  V30 11 1 11 12
M  V30 12 2 12 13
M  V30 13 1 13 14
M  V30 14 2 14 15
M  V30 15 1 3 16
M  V30 16 1 16 17
M  V30 17 2 17 18
M  V30 18 1 18 19
M  V30 19 2 19 20
M  V30 20 1 20 21
M  V30 21 1 20 22
M  V30 22 2 22 23
M  V30 23 1 16 24
M  V30 24 2 24 25
M  V30 25 1 25 26
M  V30 26 2 26 27
M  V30 27 1 27 28
M  V30 28 2 28 29
M  V30 29 1 29 30
M  V30 30 2 30 31
M  V30 31 1 25 32
M  V30 32 1 32 2
M  V30 33 1 15 7
M  V30 34 1 23 17
M  V30 35 1 31 26
M  V30 36 1 14 10
M  V30 37 1 1 33
M  V30 38 1 1 34
M  V30 39 1 1 35
M  V30 40 1 6 36
M  V30 41 1 8 37
M  V30 42 1 9 38
M  V30 43 1 11 39
M  V30 44 1 13 40
M  V30 45 1 15 41
M  V30 46 1 16 42
M  V30 47 1 18 43
M  V30 48 1 19 44
M  V30 49 1 22 45
M  V30 50 1 23 46
M  V30 51 1 27 47
M  V30 52 1 28 48
M  V30 53 1 30 49
M  V30 54 1 31 50
M  V30 55 1 32 51
M  V30 END BOND
M  V30 END CTAB
M  END
>  <Dataset>  (794) 
ChEMBL_Kinases

>  <Ligand_Instance>  (794) 
nan

>  <PDB_ID>  (794) 
nan

>  <Standardized_SMILES>  (794) 
CC1=C(C(=O)Nc2ccc3[nH]ncc3c2)C(c2ccc(F)cc2)N=C(c2ccncc2)N1

>  <Name>  (794) 
nan

>  <Pocket>  (794) 
nan

>  <ATP_Site>  (794) 
nan

>  <Peripheral>  (794) 
nan

>  <Num_H_Atoms_ProtBoundConf>  (794) 
nan

>  <Num_Resolved_Atoms>  (794) 
nan

>  <Num_Not_Resolved_Atoms>  (794) 
nan

$$$$
CHEMBL483396
     RDKit          3D

  0  0  0  0  0  0  0  0  0  0999 V3000
M  V30 BEGIN CTAB
M  V30 COUNTS 50 54 0 0 0
M  V30 BEGIN ATOM
M  V30 1 C -0.740129 -1.530094 3.794334 0
M  V30 2 C -0.653295 -1.942005 2.379577 0
M  V30 3 C 0.038023 -1.351489 1.387331 0
M  V30 4 C 0.771769 -0.168581 1.833464 0
M  V30 5 O 0.704505 0.211087 3.036018 0
M  V30 6 N 1.604786 0.664855 1.055723 0
M  V30 7 C 2.359799 1.822541 1.337887 0
M  V30 8 C 2.466562 2.462746 2.549321 0
M  V30 9 C 3.207684 3.593851 2.812248 0
M  V30 10 C 3.898875 4.115896 1.747198 0
M  V30 11 N 4.710722 5.176869 1.597338 0
M  V30 12 N 5.139339 5.261748 0.349572 0
M  V30 13 C 4.632745 4.260075 -0.392034 0
M  V30 14 C 3.841010 3.529700 0.502403 0
M  V30 15 C 3.079105 2.401317 0.316799 0
M  V30 16 C 0.082002 -1.783476 -0.046486 0
M  V30 17 C -0.633532 -0.765259 -0.915272 0
M  V30 18 C -0.278836 0.093605 -1.924179 0
M  V30 19 C -1.194389 0.920818 -2.519965 0
M  V30 20 C -2.515457 0.945314 -2.150948 0
M  V30 21 F -3.308247 1.806193 -2.818784 0
M  V30 22 C -2.903609 0.093831 -1.140099 0
M  V30 23 C -1.981140 -0.756107 -0.522368 0
M  V30 24 N -0.643680 -3.017066 -0.181094 0
M  V30 25 C -1.305412 -3.628744 0.700192 0
M  V30 26 C -1.955485 -4.880249 0.270192 0
M  V30 27 C -2.710986 -5.658901 1.115272 0
M  V30 28 N -3.308607 -6.800543 0.737170 0
M  V30 29 C -3.180800 -7.230739 -0.524477 0
M  V30 30 C -2.429728 -6.459284 -1.369850 0
M  V30 31 N -1.835285 -5.318496 -0.983370 0
M  V30 32 N -1.361320 -3.145911 2.015270 0
M  V30 33 H -1.418476 -2.248437 4.339239 0
M  V30 34 H -1.241030 -0.546725 3.950240 0
M  V30 35 H 0.232654 -1.616685 4.321489 0
M  V30 36 H 1.645418 0.289097 0.084932 0
M  V30 37 H 1.933611 2.072679 3.400973 0
M  V30 38 H 3.242703 4.041744 3.794589 0
M  V30 39 H 4.937430 5.814134 2.393963 0
M  V30 40 H 4.803613 4.067585 -1.445991 0
M  V30 41 H 3.070732 1.978511 -0.694411 0
M  V30 42 H 1.105015 -1.834044 -0.435819 0
M  V30 43 H 0.782128 -0.042101 -2.104077 0
M  V30 44 H -0.698702 1.521175 -3.299035 0
M  V30 45 H -3.958857 0.162835 -0.897412 0
M  V30 46 H -2.488701 -1.334270 0.236551 0
M  V30 47 H -2.855570 -5.371476 2.145623 0
M  V30 48 H -3.604968 -8.126201 -0.962396 0
M  V30 49 H -2.268211 -6.724943 -2.410802 0
M  V30 50 H -1.914260 -3.667816 2.703224 0
M  V30 END ATOM
M  V30 BEGIN BOND
M  V30 1 1 1 2
M  V30 2 2 2 3
M  V30 3 1 3 4
M  V30 4 2 4 5
M  V30 5 1 4 6
M  V30 6 1 6 7
M  V30 7 2 7 8
M  V30 8 1 8 9
M  V30 9 2 9 10
M  V30 10 1 10 11
M  V30 11 1 11 12
M  V30 12 2 12 13
M  V30 13 1 13 14
M  V30 14 2 14 15
M  V30 15 1 3 16
M  V30 16 1 16 17
M  V30 17 2 17 18
M  V30 18 1 18 19
M  V30 19 2 19 20
M  V30 20 1 20 21
M  V30 21 1 20 22
M  V30 22 2 22 23
M  V30 23 1 16 24
M  V30 24 2 24 25
M  V30 25 1 25 26
M  V30 26 2 26 27
M  V30 27 1 27 28
M  V30 28 2 28 29
M  V30 29 1 29 30
M  V30 30 2 30 31
M  V30 31 1 25 32
M  V30 32 1 32 2
M  V30 33 1 15 7
M  V30 34 1 23 17
M  V30 35 1 31 26
M  V30 36 1 14 10
M  V30 37 1 1 33
M  V30 38 1 1 34
M  V30 39 1 1 35
M  V30 40 1 6 36
M  V30 41 1 8 37
M  V30 42 1 9 38
M  V30 43 1 11 39
M  V30 44 1 13 40
M  V30 45 1 15 41
M  V30 46 1 16 42
M  V30 47 1 18 43
M  V30 48 1 19 44
M  V30 49 1 22 45
M  V30 50 1 23 46
M  V30 51 1 27 47
M  V30 52 1 29 48
M  V30 53 1 30 49
M  V30 54 1 32 50
M  V30 END BOND
M  V30 END CTAB
M  END
>  <Dataset>  (795) 
ChEMBL_Kinases

>  <Ligand_Instance>  (795) 
nan

>  <PDB_ID>  (795) 
nan

>  <Standardized_SMILES>  (795) 
CC1=C(C(=O)Nc2ccc3[nH]ncc3c2)C(c2ccc(F)cc2)N=C(c2cnccn2)N1

>  <Name>  (795) 
nan

>  <Pocket>  (795) 
nan

>  <ATP_Site>  (795) 
nan

>  <Peripheral>  (795) 
nan

>  <Num_H_Atoms_ProtBoundConf>  (795) 
nan

>  <Num_Resolved_Atoms>  (795) 
nan

>  <Num_Not_Resolved_Atoms>  (795) 
nan

$$$$
CHEMBL4092594
     RDKit          3D

  0  0  0  0  0  0  0  0  0  0999 V3000
M  V30 BEGIN CTAB
M  V30 COUNTS 39 41 0 0 0
M  V30 BEGIN ATOM
M  V30 1 C -1.456963 -5.981750 3.495202 0
M  V30 2 C -1.430057 -5.562946 2.045963 0
M  V30 3 N -1.193420 -4.128152 1.990665 0
M  V30 4 C 0.040621 -3.592265 1.929507 0
M  V30 5 C -0.164897 -2.221391 1.891917 0
M  V30 6 C 0.815688 -1.119782 1.822945 0
M  V30 7 C 0.545030 -0.118411 0.914003 0
M  V30 8 C 1.365955 0.989290 0.722373 0
M  V30 9 C 1.012018 2.011626 -0.265446 0
M  V30 10 C 0.330560 1.504522 -1.363326 0
M  V30 11 C -0.036848 2.434179 -2.345670 0
M  V30 12 C 0.259284 3.790717 -2.237204 0
M  V30 13 C -0.157755 4.726127 -3.313574 0
M  V30 14 C 0.938136 4.263548 -1.132801 0
M  V30 15 C 1.313787 3.351776 -0.140950 0
M  V30 16 C 2.499667 1.027301 1.519176 0
M  V30 17 N 2.772044 0.055086 2.408851 0
M  V30 18 C 1.965815 -1.007987 2.579097 0
M  V30 19 N 2.204101 -2.069687 3.507780 0
M  V30 20 C -1.543890 -1.979617 1.932706 0
M  V30 21 N -2.127764 -3.206916 1.993530 0
M  V30 22 H -2.223696 -5.372254 4.012418 0
M  V30 23 H -0.423298 -5.805395 3.887047 0
M  V30 24 H -1.618938 -7.076433 3.581418 0
M  V30 25 H -2.363637 -5.805060 1.499575 0
M  V30 26 H -0.617578 -6.085769 1.505994 0
M  V30 27 H 1.019674 -4.050643 1.909360 0
M  V30 28 H -0.342856 -0.164252 0.302212 0
M  V30 29 H 0.037004 0.502417 -1.583530 0
M  V30 30 H -0.571614 2.131474 -3.238979 0
M  V30 31 H -0.317386 4.232943 -4.288622 0
M  V30 32 H -1.149792 5.210373 -3.074107 0
M  V30 33 H 0.546489 5.554735 -3.468614 0
M  V30 34 H 1.176670 5.311946 -1.031807 0
M  V30 35 H 1.846464 3.671468 0.741389 0
M  V30 36 H 3.158814 1.876782 1.394261 0
M  V30 37 H 2.700861 -2.940818 3.208430 0
M  V30 38 H 1.871734 -1.971882 4.513660 0
M  V30 39 H -2.093063 -1.025704 1.921265 0
M  V30 END ATOM
M  V30 BEGIN BOND
M  V30 1 1 1 2
M  V30 2 1 2 3
M  V30 3 1 3 4
M  V30 4 2 4 5
M  V30 5 1 5 6
M  V30 6 2 6 7
M  V30 7 1 7 8
M  V30 8 1 8 9
M  V30 9 2 9 10
M  V30 10 1 10 11
M  V30 11 2 11 12
M  V30 12 1 12 13
M  V30 13 1 12 14
M  V30 14 2 14 15
M  V30 15 2 8 16
M  V30 16 1 16 17
M  V30 17 2 17 18
M  V30 18 1 18 19
M  V30 19 1 5 20
M  V30 20 2 20 21
M  V30 21 1 21 3
M  V30 22 1 18 6
M  V30 23 1 15 9
M  V30 24 1 1 22
M  V30 25 1 1 23
M  V30 26 1 1 24
M  V30 27 1 2 25
M  V30 28 1 2 26
M  V30 29 1 4 27
M  V30 30 1 7 28
M  V30 31 1 10 29
M  V30 32 1 11 30
M  V30 33 1 13 31
M  V30 34 1 13 32
M  V30 35 1 13 33
M  V30 36 1 14 34
M  V30 37 1 15 35
M  V30 38 1 16 36
M  V30 39 1 19 37
M  V30 40 1 19 38
M  V30 41 1 20 39
M  V30 END BOND
M  V30 END CTAB
M  END
>  <Dataset>  (796) 
ChEMBL_Kinases

>  <Ligand_Instance>  (796) 
nan

>  <PDB_ID>  (796) 
nan

>  <Standardized_SMILES>  (796) 
CCn1cc(-c2cc(-c3ccc(C)cc3)cnc2N)cn1

>  <Name>  (796) 
nan

>  <Pocket>  (796) 
nan

>  <ATP_Site>  (796) 
nan

>  <Peripheral>  (796) 
nan

>  <Num_H_Atoms_ProtBoundConf>  (796) 
nan

>  <Num_Resolved_Atoms>  (796) 
nan

>  <Num_Not_Resolved_Atoms>  (796) 
nan

$$$$
CHEMBL4090886
     RDKit          3D

  0  0  0  0  0  0  0  0  0  0999 V3000
M  V30 BEGIN CTAB
M  V30 COUNTS 51 54 0 0 0
M  V30 BEGIN ATOM
M  V30 1 C 1.248494 -3.057298 5.394545 0
M  V30 2 O 1.958262 -3.514572 4.290738 0
M  V30 3 C 1.292093 -4.543655 3.651098 0
M  V30 4 C 2.054199 -5.051568 2.439397 0
M  V30 5 N 2.239684 -3.961739 1.471448 0
M  V30 6 C 3.366792 -3.070687 1.480672 0
M  V30 7 C 2.986543 -1.625324 1.362006 0
M  V30 8 N 1.905095 -1.417677 0.415158 0
M  V30 9 C 1.570603 -0.249062 -0.149921 0
M  V30 10 C 0.511093 -0.499095 -0.992340 0
M  V30 11 C -0.227775 0.515222 -1.782907 0
M  V30 12 N -0.605185 1.554350 -1.010004 0
M  V30 13 C -1.295782 2.621040 -1.406057 0
M  V30 14 N -1.595013 3.629338 -0.414553 0
M  V30 15 C -2.456325 3.619833 0.716508 0
M  V30 16 C -2.610016 4.720844 1.518319 0
M  V30 17 C -3.502406 4.285773 2.485480 0
M  V30 18 N -3.823520 3.021489 2.235619 0
M  V30 19 N -3.188878 2.578827 1.140806 0
M  V30 20 C -3.310773 1.255059 0.590597 0
M  V30 21 N -1.659843 2.676173 -2.726917 0
M  V30 22 C -1.296445 1.653995 -3.523282 0
M  V30 23 C -0.579457 0.553834 -3.093417 0
M  V30 24 C -0.112193 -0.600420 -3.871190 0
M  V30 25 C 0.192673 -1.846377 -0.942591 0
M  V30 26 C 1.093080 -2.401154 -0.039133 0
M  V30 27 C 1.205100 -3.788784 0.469223 0
M  V30 28 O 0.489011 -4.731799 0.083011 0
M  V30 29 H 1.764259 -2.228111 5.926429 0
M  V30 30 H 0.247040 -2.693049 5.040393 0
M  V30 31 H 1.121783 -3.855944 6.155423 0
M  V30 32 H 1.187666 -5.376477 4.382642 0
M  V30 33 H 0.300291 -4.168927 3.335566 0
M  V30 34 H 3.041871 -5.416698 2.719042 0
M  V30 35 H 1.482601 -5.832547 1.944255 0
M  V30 36 H 4.028608 -3.329541 0.641687 0
M  V30 37 H 3.936112 -3.230908 2.415317 0
M  V30 38 H 3.893627 -1.052992 1.011246 0
M  V30 39 H 2.763057 -1.239579 2.374646 0
M  V30 40 H 1.987348 0.751137 -0.029778 0
M  V30 41 H -0.987230 4.371579 -0.772168 0
M  V30 42 H -2.215427 5.719121 1.526334 0
M  V30 43 H -3.953238 4.753362 3.350869 0
M  V30 44 H -3.342250 1.306192 -0.512491 0
M  V30 45 H -4.266190 0.814050 0.972240 0
M  V30 46 H -2.439764 0.617094 0.883115 0
M  V30 47 H -1.554126 1.656148 -4.561811 0
M  V30 48 H 0.970363 -0.797427 -3.745012 0
M  V30 49 H -0.223446 -0.346639 -4.957637 0
M  V30 50 H -0.751518 -1.474623 -3.686742 0
M  V30 51 H -0.592844 -2.398495 -1.481217 0
M  V30 END ATOM
M  V30 BEGIN BOND
M  V30 1 1 1 2
M  V30 2 1 2 3
M  V30 3 1 3 4
M  V30 4 1 4 5
M  V30 5 1 5 6
M  V30 6 1 6 7
M  V30 7 1 7 8
M  V30 8 1 8 9
M  V30 9 2 9 10
M  V30 10 1 10 11
M  V30 11 2 11 12
M  V30 12 1 12 13
M  V30 13 1 13 14
M  V30 14 1 14 15
M  V30 15 2 15 16
M  V30 16 1 16 17
M  V30 17 2 17 18
M  V30 18 1 18 19
M  V30 19 1 19 20
M  V30 20 2 13 21
M  V30 21 1 21 22
M  V30 22 2 22 23
M  V30 23 1 23 24
M  V30 24 1 10 25
M  V30 25 2 25 26
M  V30 26 1 26 27
M  V30 27 2 27 28
M  V30 28 1 27 5
M  V30 29 1 26 8
M  V30 30 1 23 11
M  V30 31 1 19 15
M  V30 32 1 1 29
M  V30 33 1 1 30
M  V30 34 1 1 31
M  V30 35 1 3 32
M  V30 36 1 3 33
M  V30 37 1 4 34
M  V30 38 1 4 35
M  V30 39 1 6 36
M  V30 40 1 6 37
M  V30 41 1 7 38
M  V30 42 1 7 39
M  V30 43 1 9 40
M  V30 44 1 14 41
M  V30 45 1 16 42
M  V30 46 1 17 43
M  V30 47 1 20 44
M  V30 48 1 20 45
M  V30 49 1 20 46
M  V30 50 1 22 47
M  V30 51 1 24 48
M  V30 52 1 24 49
M  V30 53 1 24 50
M  V30 54 1 25 51
M  V30 END BOND
M  V30 END CTAB
M  END
>  <Dataset>  (797) 
ChEMBL_Kinases

>  <Ligand_Instance>  (797) 
nan

>  <PDB_ID>  (797) 
nan

>  <Standardized_SMILES>  (797) 
COCCN1CCn2cc(-c3nc(Nc4ccnn4C)ncc3C)cc2C1=O

>  <Name>  (797) 
nan

>  <Pocket>  (797) 
nan

>  <ATP_Site>  (797) 
nan

>  <Peripheral>  (797) 
nan

>  <Num_H_Atoms_ProtBoundConf>  (797) 
nan

>  <Num_Resolved_Atoms>  (797) 
nan

>  <Num_Not_Resolved_Atoms>  (797) 
nan

$$$$
CHEMBL4090789
     RDKit          3D

  0  0  0  0  0  0  0  0  0  0999 V3000
M  V30 BEGIN CTAB
M  V30 COUNTS 52 56 0 0 0
M  V30 BEGIN ATOM
M  V30 1 C 5.374819 -2.543173 -0.323172 0
M  V30 2 C 4.821226 -1.254133 0.171808 0
M  V30 3 N 5.418187 -0.181365 0.714028 0
M  V30 4 N 4.564644 0.766266 1.023452 0
M  V30 5 C 4.881608 2.020585 1.612789 0
M  V30 6 C 5.243290 1.875406 2.947667 0
M  V30 7 C 5.589153 3.000025 3.698692 0
M  V30 8 C 5.551080 4.214898 3.059627 0
M  V30 9 C 5.193502 4.395700 1.724140 0
M  V30 10 C 4.858367 3.262812 1.014768 0
M  V30 11 C 3.309432 0.345338 0.685254 0
M  V30 12 O 2.167565 1.123483 0.885647 0
M  V30 13 C 0.917230 0.595436 0.502598 0
M  V30 14 C 0.249000 0.711770 -0.699558 0
M  V30 15 C -0.978135 0.092625 -0.827141 0
M  V30 16 C -1.521998 -0.620011 0.211014 0
M  V30 17 C -2.822817 -1.262067 0.047013 0
M  V30 18 N -3.496576 -1.991901 0.953532 0
M  V30 19 C -4.664419 -2.417664 0.443110 0
M  V30 20 C -5.720300 -3.174858 0.905256 0
M  V30 21 C -6.801124 -3.429937 0.087880 0
M  V30 22 C -7.909028 -4.236104 0.598866 0
M  V30 23 N -7.865450 -4.766767 1.929801 0
M  V30 24 O -8.965143 -4.551489 -0.002108 0
M  V30 25 C -6.906630 -2.962575 -1.212080 0
M  V30 26 C -5.835655 -2.209070 -1.644424 0
M  V30 27 C -4.736336 -1.928507 -0.866222 0
M  V30 28 N -3.599645 -1.232812 -1.067381 0
M  V30 29 C -0.870324 -0.746378 1.416145 0
M  V30 30 C 0.373286 -0.124313 1.558745 0
M  V30 31 C 3.489146 -0.915227 0.156184 0
M  V30 32 N 2.359821 -1.641552 -0.297042 0 CHG=1 VAL=4
M  V30 33 O 2.051310 -1.871310 -1.485461 0
M  V30 34 O 1.956229 -1.934155 -1.585160 0 CHG=-1 VAL=1
M  V30 35 H 6.247189 -2.867516 0.271185 0
M  V30 36 H 4.573359 -3.310583 -0.295930 0
M  V30 37 H 5.635478 -2.409864 -1.402995 0
M  V30 38 H 5.290923 0.944599 3.502336 0
M  V30 39 H 5.881609 2.959124 4.747809 0
M  V30 40 H 5.807377 5.116658 3.585131 0
M  V30 41 H 5.172175 5.364802 1.248019 0
M  V30 42 H 4.566929 3.268501 -0.016348 0
M  V30 43 H 0.790287 1.293215 -1.415219 0
M  V30 44 H -1.460686 0.218332 -1.795544 0
M  V30 45 H -5.690068 -3.569335 1.923475 0
M  V30 46 H -7.028468 -5.257550 2.365087 0
M  V30 47 H -8.624896 -4.756665 2.662656 0
M  V30 48 H -7.721220 -3.136138 -1.874160 0
M  V30 49 H -5.835018 -1.802978 -2.654966 0
M  V30 50 H -3.378243 -0.753632 -1.963483 0
M  V30 51 H -1.341540 -1.325055 2.219470 0
M  V30 52 H 0.803837 -0.281434 2.538896 0
M  V30 END ATOM
M  V30 BEGIN BOND
M  V30 1 1 1 2
M  V30 2 2 2 3
M  V30 3 1 3 4
M  V30 4 1 4 5
M  V30 5 2 5 6
M  V30 6 1 6 7
M  V30 7 2 7 8
M  V30 8 1 8 9
M  V30 9 2 9 10
M  V30 10 1 4 11
M  V30 11 1 11 12
M  V30 12 1 12 13
M  V30 13 2 13 14
M  V30 14 1 14 15
M  V30 15 2 15 16
M  V30 16 1 16 17
M  V30 17 2 17 18
M  V30 18 1 18 19
M  V30 19 2 19 20
M  V30 20 1 20 21
M  V30 21 1 21 22
M  V30 22 1 22 23
M  V30 23 2 22 24
M  V30 24 2 21 25
M  V30 25 1 25 26
M  V30 26 2 26 27
M  V30 27 1 27 28
M  V30 28 1 16 29
M  V30 29 2 29 30
M  V30 30 2 11 31
M  V30 31 1 31 32
M  V30 32 2 32 33
M  V30 33 1 32 34
M  V30 34 1 31 2
M  V30 35 1 10 5
M  V30 36 1 30 13
M  V30 37 1 28 17
M  V30 38 1 27 19
M  V30 39 1 1 35
M  V30 40 1 1 36
M  V30 41 1 1 37
M  V30 42 1 6 38
M  V30 43 1 7 39
M  V30 44 1 8 40
M  V30 45 1 9 41
M  V30 46 1 10 42
M  V30 47 1 14 43
M  V30 48 1 15 44
M  V30 49 1 20 45
M  V30 50 1 23 46
M  V30 51 1 23 47
M  V30 52 1 25 48
M  V30 53 1 26 49
M  V30 54 1 28 50
M  V30 55 1 29 51
M  V30 56 1 30 52
M  V30 END BOND
M  V30 END CTAB
M  END
>  <Dataset>  (798) 
ChEMBL_Kinases

>  <Ligand_Instance>  (798) 
nan

>  <PDB_ID>  (798) 
nan

>  <Standardized_SMILES>  (798) 
Cc1nn(-c2ccccc2)c(Oc2ccc(-c3nc4cc(C(N)=O)ccc4[nH]3)cc2)c1[N+](=O)[O-]

>  <Name>  (798) 
nan

>  <Pocket>  (798) 
nan

>  <ATP_Site>  (798) 
nan

>  <Peripheral>  (798) 
nan

>  <Num_H_Atoms_ProtBoundConf>  (798) 
nan

>  <Num_Resolved_Atoms>  (798) 
nan

>  <Num_Not_Resolved_Atoms>  (798) 
nan

$$$$
CHEMBL4090776
     RDKit          3D

  0  0  0  0  0  0  0  0  0  0999 V3000
M  V30 BEGIN CTAB
M  V30 COUNTS 65 69 0 0 0
M  V30 BEGIN ATOM
M  V30 1 O 0.478129 -0.951541 3.069825 0
M  V30 2 C 1.091602 -0.309848 3.960792 0
M  V30 3 N 2.465690 0.004761 3.978506 0
M  V30 4 C 3.419240 -0.349280 2.985544 0
M  V30 5 C 3.666173 0.489506 1.900587 0
M  V30 6 C 4.597525 0.122584 0.951216 0
M  V30 7 C 5.312026 -1.076314 1.039423 0
M  V30 8 C 6.240507 -1.248972 -0.090361 0
M  V30 9 N 5.628077 -1.942637 -1.207349 0
M  V30 10 C 4.474595 -1.203822 -1.651587 0
M  V30 11 N 4.065066 -0.368865 -2.371843 0
M  V30 12 C 2.808634 0.053104 -2.475025 0
M  V30 13 C 2.277708 1.026700 -3.300367 0
M  V30 14 C 0.931806 1.315735 -3.250638 0
M  V30 15 C 0.024337 0.675784 -2.395899 0
M  V30 16 O -1.264839 1.087366 -2.478686 0
M  V30 17 C -2.411831 0.699208 -1.827789 0
M  V30 18 C -2.851369 -0.724944 -2.020382 0
M  V30 19 N -4.074356 -1.018035 -1.283562 0
M  V30 20 C -5.225055 -0.336016 -1.799940 0
M  V30 21 C -5.527210 -0.675127 -3.235140 0
M  V30 22 O -5.660151 -2.033829 -3.390969 0
M  V30 23 C -4.626732 -2.790764 -2.880734 0
M  V30 24 C -4.291877 -2.458351 -1.438336 0
M  V30 25 C 0.508359 -0.287859 -1.568023 0
M  V30 26 C 1.884033 -0.528046 -1.673671 0
M  V30 27 S 2.905537 -1.779427 -0.695307 0
M  V30 28 C 5.057992 -1.895758 2.117693 0
M  V30 29 C 4.132301 -1.553434 3.081185 0
M  V30 30 N 0.340354 0.166072 5.093914 0
M  V30 31 C -1.056944 -0.081812 5.198577 0
M  V30 32 C -1.700881 -1.148344 5.779818 0
M  V30 33 C -3.090350 -1.205997 5.777684 0
M  V30 34 C -3.865230 -0.219918 5.206305 0
M  V30 35 Cl -5.616603 -0.354822 5.239353 0
M  V30 36 C -3.212077 0.862975 4.615932 0
M  V30 37 Cl -4.180575 2.138261 3.877117 0
M  V30 38 C -1.836123 0.917939 4.619400 0
M  V30 39 H 2.905345 0.546288 4.758199 0
M  V30 40 H 3.105317 1.414129 1.847766 0
M  V30 41 H 4.705059 0.862952 0.148479 0
M  V30 42 H 6.707888 -0.317638 -0.405525 0
M  V30 43 H 7.055433 -1.932223 0.282393 0
M  V30 44 H 5.839321 -2.823468 -1.730813 0
M  V30 45 H 2.893996 1.586970 -4.004293 0
M  V30 46 H 0.565655 2.101246 -3.933653 0
M  V30 47 H -3.231851 1.391158 -2.152360 0
M  V30 48 H -2.318803 0.919177 -0.724203 0
M  V30 49 H -3.038405 -0.862074 -3.111753 0
M  V30 50 H -2.131809 -1.493706 -1.741159 0
M  V30 51 H -5.138459 0.762894 -1.671931 0
M  V30 52 H -6.089555 -0.657490 -1.191546 0
M  V30 53 H -4.838996 -0.186817 -3.961686 0
M  V30 54 H -6.532377 -0.233159 -3.465104 0
M  V30 55 H -3.758149 -2.713142 -3.562006 0
M  V30 56 H -4.999470 -3.856716 -2.877314 0
M  V30 57 H -5.100371 -2.836626 -0.798338 0
M  V30 58 H -3.337642 -3.001616 -1.210558 0
M  V30 59 H -0.083212 -0.829458 -0.875754 0
M  V30 60 H 5.654964 -2.796481 2.104025 0
M  V30 61 H 3.979377 -2.242661 3.905969 0
M  V30 62 H 0.680545 0.714302 5.930733 0
M  V30 63 H -1.036192 -1.884125 6.208745 0
M  V30 64 H -3.542518 -2.060461 6.244859 0
M  V30 65 H -1.413643 1.804704 4.134354 0
M  V30 END ATOM
M  V30 BEGIN BOND
M  V30 1 2 1 2
M  V30 2 1 2 3
M  V30 3 1 3 4
M  V30 4 2 4 5
M  V30 5 1 5 6
M  V30 6 2 6 7
M  V30 7 1 7 8
M  V30 8 1 8 9
M  V30 9 1 9 10
M  V30 10 2 10 11
M  V30 11 1 11 12
M  V30 12 2 12 13
M  V30 13 1 13 14
M  V30 14 2 14 15
M  V30 15 1 15 16
M  V30 16 1 16 17
M  V30 17 1 17 18
M  V30 18 1 18 19
M  V30 19 1 19 20
M  V30 20 1 20 21
M  V30 21 1 21 22
M  V30 22 1 22 23
M  V30 23 1 23 24
M  V30 24 1 15 25
M  V30 25 2 25 26
M  V30 26 1 26 27
M  V30 27 1 7 28
M  V30 28 2 28 29
M  V30 29 1 2 30
M  V30 30 1 30 31
M  V30 31 2 31 32
M  V30 32 1 32 33
M  V30 33 2 33 34
M  V30 34 1 34 35
M  V30 35 1 34 36
M  V30 36 1 36 37
M  V30 37 2 36 38
M  V30 38 1 29 4
M  V30 39 1 38 31
M  V30 40 1 27 10
M  V30 41 1 26 12
M  V30 42 1 24 19
M  V30 43 1 3 39
M  V30 44 1 5 40
M  V30 45 1 6 41
M  V30 46 1 8 42
M  V30 47 1 8 43
M  V30 48 1 9 44
M  V30 49 1 13 45
M  V30 50 1 14 46
M  V30 51 1 17 47
M  V30 52 1 17 48
M  V30 53 1 18 49
M  V30 54 1 18 50
M  V30 55 1 20 51
M  V30 56 1 20 52
M  V30 57 1 21 53
M  V30 58 1 21 54
M  V30 59 1 23 55
M  V30 60 1 23 56
M  V30 61 1 24 57
M  V30 62 1 24 58
M  V30 63 1 25 59
M  V30 64 1 28 60
M  V30 65 1 29 61
M  V30 66 1 30 62
M  V30 67 1 32 63
M  V30 68 1 33 64
M  V30 69 1 38 65
M  V30 END BOND
M  V30 END CTAB
M  END
>  <Dataset>  (799) 
ChEMBL_Kinases

>  <Ligand_Instance>  (799) 
nan

>  <PDB_ID>  (799) 
nan

>  <Standardized_SMILES>  (799) 
O=C(Nc1ccc(CNc2nc3ccc(OCCN4CCOCC4)cc3s2)cc1)Nc1ccc(Cl)c(Cl)c1

>  <Name>  (799) 
nan

>  <Pocket>  (799) 
nan

>  <ATP_Site>  (799) 
nan

>  <Peripheral>  (799) 
nan

>  <Num_H_Atoms_ProtBoundConf>  (799) 
nan

>  <Num_Resolved_Atoms>  (799) 
nan

>  <Num_Not_Resolved_Atoms>  (799) 
nan

$$$$
CHEMBL4090775
     RDKit          3D

  0  0  0  0  0  0  0  0  0  0999 V3000
M  V30 BEGIN CTAB
M  V30 COUNTS 50 53 0 0 0
M  V30 BEGIN ATOM
M  V30 1 C 4.506880 1.660377 3.896619 0
M  V30 2 C 5.764561 1.005465 3.409285 0
M  V30 3 C 5.911104 -0.416643 3.907618 0
M  V30 4 O 6.894557 1.733093 3.891382 0
M  V30 5 C 5.782035 1.022925 1.904620 0
M  V30 6 N 4.657358 0.375384 1.326077 0
M  V30 7 C 3.908058 -0.798646 1.130318 0
M  V30 8 O 4.417651 -1.790346 1.706457 0
M  V30 9 C 2.680763 -0.908085 0.360923 0
M  V30 10 C 2.110104 -2.156844 0.300289 0
M  V30 11 C 0.939785 -2.270988 -0.430714 0
M  V30 12 C 0.355434 -1.199567 -1.075481 0
M  V30 13 O -0.820532 -1.411268 -1.785937 0
M  V30 14 C -2.059863 -1.253793 -1.082985 0
M  V30 15 S -2.070616 -0.811696 0.602699 0
M  V30 16 C -3.904017 -0.811555 0.756632 0
M  V30 17 C -4.598311 -0.496473 2.014401 0
M  V30 18 N -3.824427 -0.179322 3.157977 0
M  V30 19 O -5.849034 -0.485876 2.158754 0
M  V30 20 C -4.303136 -1.152226 -0.507425 0
M  V30 21 C -3.336013 -1.374402 -1.436629 0
M  V30 22 C -3.792757 -1.732203 -2.822493 0
M  V30 23 S -2.912593 -2.098497 -4.256977 0
M  V30 24 N -4.432759 -2.389469 -5.304908 0
M  V30 25 C -5.418283 -2.159704 -4.388173 0
M  V30 26 C -5.077922 -1.820061 -3.106517 0
M  V30 27 C -6.175299 -1.567959 -2.144555 0
M  V30 28 C -5.755140 -1.266779 -0.772240 0
M  V30 29 C 1.005429 0.012051 -0.954173 0
M  V30 30 N 2.143585 0.153454 -0.250789 0
M  V30 31 H 4.750377 2.738901 4.061385 0
M  V30 32 H 3.729302 1.590198 3.104637 0
M  V30 33 H 4.128724 1.196218 4.846427 0
M  V30 34 H 4.929149 -0.831545 4.130713 0
M  V30 35 H 6.472001 -1.020502 3.201755 0
M  V30 36 H 6.540358 -0.401546 4.856176 0
M  V30 37 H 6.603063 2.598381 4.289548 0
M  V30 38 H 6.718398 0.459744 1.543324 0
M  V30 39 H 5.946172 2.045737 1.521549 0
M  V30 40 H 4.118451 1.129975 0.783585 0
M  V30 41 H 2.569341 -3.003091 0.808047 0
M  V30 42 H 0.478065 -3.226839 -0.493294 0
M  V30 43 H -3.705548 -0.577456 4.133675 0
M  V30 44 H -3.140734 0.325023 3.766991 0
M  V30 45 H -6.300681 -2.325080 -4.982854 0
M  V30 46 H -6.858222 -0.753987 -2.527203 0
M  V30 47 H -6.885037 -2.456759 -2.100744 0
M  V30 48 H -6.306732 -0.344934 -0.442212 0
M  V30 49 H -6.166980 -2.056898 -0.066275 0
M  V30 50 H 0.535452 0.862673 -1.470018 0
M  V30 END ATOM
M  V30 BEGIN BOND
M  V30 1 1 1 2
M  V30 2 1 2 3
M  V30 3 1 2 4
M  V30 4 1 2 5
M  V30 5 1 5 6
M  V30 6 1 6 7
M  V30 7 2 7 8
M  V30 8 1 7 9
M  V30 9 2 9 10
M  V30 10 1 10 11
M  V30 11 2 11 12
M  V30 12 1 12 13
M  V30 13 1 13 14
M  V30 14 1 14 15
M  V30 15 1 15 16
M  V30 16 1 16 17
M  V30 17 1 17 18
M  V30 18 2 17 19
M  V30 19 2 16 20
M  V30 20 1 20 21
M  V30 21 1 21 22
M  V30 22 1 22 23
M  V30 23 1 23 24
M  V30 24 2 24 25
M  V30 25 1 25 26
M  V30 26 1 26 27
M  V30 27 1 27 28
M  V30 28 1 12 29
M  V30 29 2 29 30
M  V30 30 1 30 9
M  V30 31 2 21 14
M  V30 32 2 26 22
M  V30 33 1 28 20
M  V30 34 1 1 31
M  V30 35 1 1 32
M  V30 36 1 1 33
M  V30 37 1 3 34
M  V30 38 1 3 35
M  V30 39 1 3 36
M  V30 40 1 4 37
M  V30 41 1 5 38
M  V30 42 1 5 39
M  V30 43 1 6 40
M  V30 44 1 10 41
M  V30 45 1 11 42
M  V30 46 1 18 43
M  V30 47 1 18 44
M  V30 48 1 25 45
M  V30 49 1 27 46
M  V30 50 1 27 47
M  V30 51 1 28 48
M  V30 52 1 28 49
M  V30 53 1 29 50
M  V30 END BOND
M  V30 END CTAB
M  END
>  <Dataset>  (800) 
ChEMBL_Kinases

>  <Ligand_Instance>  (800) 
nan

>  <PDB_ID>  (800) 
nan

>  <Standardized_SMILES>  (800) 
CC(C)(O)CNC(=O)c1ccc(Oc2sc(C(N)=O)c3c2-c2sncc2CC3)cn1

>  <Name>  (800) 
nan

>  <Pocket>  (800) 
nan

>  <ATP_Site>  (800) 
nan

>  <Peripheral>  (800) 
nan

>  <Num_H_Atoms_ProtBoundConf>  (800) 
nan

>  <Num_Resolved_Atoms>  (800) 
nan

>  <Num_Not_Resolved_Atoms>  (800) 
nan

$$$$
CHEMBL4845965
     RDKit          3D

  0  0  0  0  0  0  0  0  0  0999 V3000
M  V30 BEGIN CTAB
M  V30 COUNTS 55 57 0 0 0
M  V30 BEGIN ATOM
M  V30 1 N -0.581704 -5.795856 3.127557 0
M  V30 2 C -1.090658 -4.936522 2.117855 0
M  V30 3 O -2.120243 -5.581355 1.888344 0
M  V30 4 C -0.421120 -3.733151 1.670668 0
M  V30 5 C 0.774928 -3.431937 2.277842 0
M  V30 6 N 1.381782 -2.312186 1.850213 0
M  V30 7 C 0.870627 -1.539515 0.904886 0
M  V30 8 N 1.526440 -0.346138 0.455409 0
M  V30 9 C 2.782751 0.163465 0.963178 0 CFG=1
M  V30 10 C 3.225310 1.390388 0.200985 0
M  V30 11 C 2.516807 2.645431 0.591497 0
M  V30 12 C 2.852137 2.892637 2.047390 0 CFG=2
M  V30 13 O 4.209439 3.168381 2.122274 0
M  V30 14 C 4.470421 4.461280 2.529761 0
M  V30 15 F 5.192514 4.519002 3.717957 0
M  V30 16 F 5.110376 5.133861 1.499463 0
M  V30 17 C 2.384146 1.763654 2.888103 0
M  V30 18 C 2.742624 0.395759 2.448552 0
M  V30 19 N -0.284587 -1.877075 0.353934 0
M  V30 20 C -0.996959 -2.965513 0.683959 0
M  V30 21 N -2.229243 -3.260965 0.045446 0
M  V30 22 C -2.734608 -2.392944 -0.965330 0 CFG=2
M  V30 23 C -3.004998 -0.976758 -0.512335 0
M  V30 24 C -3.034838 -0.134560 -1.793629 0
M  V30 25 C -4.097871 -0.620306 -2.742969 0
M  V30 26 C -4.089795 -2.103580 -2.940137 0 CFG=2
M  V30 27 O -5.244151 -2.467635 -3.627432 0
M  V30 28 C -3.979841 -2.871039 -1.632877 0
M  V30 29 H -0.117269 -6.722185 3.046817 0
M  V30 30 H -0.560952 -5.691730 4.151031 0
M  V30 31 H 1.199540 -4.058943 3.051829 0
M  V30 32 H 1.070744 0.227882 -0.313118 0
M  V30 33 H 3.538795 -0.626262 0.771196 0
M  V30 34 H 4.315497 1.556079 0.346787 0
M  V30 35 H 3.044596 1.200354 -0.874760 0
M  V30 36 H 2.917764 3.465062 -0.006604 0
M  V30 37 H 1.418245 2.583410 0.446379 0
M  V30 38 H 2.283961 3.800758 2.340658 0
M  V30 39 H 3.483545 4.970041 2.700133 0
M  V30 40 H 1.279485 1.901975 3.048176 0
M  V30 41 H 2.813545 1.899071 3.923047 0
M  V30 42 H 3.710068 0.076858 2.905513 0
M  V30 43 H 1.989746 -0.295711 2.876136 0
M  V30 44 H -2.811591 -4.077300 0.256180 0
M  V30 45 H -1.933193 -2.287982 -1.755502 0
M  V30 46 H -2.247473 -0.557491 0.147785 0
M  V30 47 H -4.035787 -0.901894 -0.087959 0
M  V30 48 H -3.217576 0.924922 -1.590009 0
M  V30 49 H -2.060556 -0.237497 -2.306787 0
M  V30 50 H -5.109852 -0.233322 -2.485975 0
M  V30 51 H -3.861400 -0.156462 -3.724417 0
M  V30 52 H -3.212975 -2.354593 -3.570525 0
M  V30 53 H -5.287279 -1.959240 -4.461929 0
M  V30 54 H -4.883039 -2.640106 -1.011786 0
M  V30 55 H -3.911196 -3.933453 -1.885614 0
M  V30 END ATOM
M  V30 BEGIN BOND
M  V30 1 1 1 2
M  V30 2 2 2 3
M  V30 3 1 2 4
M  V30 4 2 4 5
M  V30 5 1 5 6
M  V30 6 2 6 7
M  V30 7 1 7 8
M  V30 8 1 8 9
M  V30 9 1 9 10
M  V30 10 1 10 11
M  V30 11 1 11 12
M  V30 12 1 12 13
M  V30 13 1 13 14
M  V30 14 1 14 15
M  V30 15 1 14 16
M  V30 16 1 12 17
M  V30 17 1 17 18
M  V30 18 1 7 19
M  V30 19 2 19 20
M  V30 20 1 20 21
M  V30 21 1 21 22
M  V30 22 1 22 23
M  V30 23 1 23 24
M  V30 24 1 24 25
M  V30 25 1 25 26
M  V30 26 1 26 27
M  V30 27 1 26 28
M  V30 28 1 20 4
M  V30 29 1 28 22
M  V30 30 1 18 9
M  V30 31 1 1 29
M  V30 32 1 1 30
M  V30 33 1 5 31
M  V30 34 1 8 32
M  V30 35 1 9 33 CFG=1
M  V30 36 1 10 34
M  V30 37 1 10 35
M  V30 38 1 11 36
M  V30 39 1 11 37
M  V30 40 1 12 38 CFG=1
M  V30 41 1 14 39
M  V30 42 1 17 40
M  V30 43 1 17 41
M  V30 44 1 18 42
M  V30 45 1 18 43
M  V30 46 1 21 44
M  V30 47 1 22 45 CFG=3
M  V30 48 1 23 46
M  V30 49 1 23 47
M  V30 50 1 24 48
M  V30 51 1 24 49
M  V30 52 1 25 50
M  V30 53 1 25 51
M  V30 54 1 26 52 CFG=3
M  V30 55 1 27 53
M  V30 56 1 28 54
M  V30 57 1 28 55
M  V30 END BOND
M  V30 END CTAB
M  END
>  <Dataset>  (801) 
ChEMBL_Kinases

>  <Ligand_Instance>  (801) 
nan

>  <PDB_ID>  (801) 
nan

>  <Standardized_SMILES>  (801) 
NC(=O)c1cnc(N[C@H]2CC[C@H](OC(F)F)CC2)nc1N[C@@H]1CCC[C@H](O)C1

>  <Name>  (801) 
nan

>  <Pocket>  (801) 
nan

>  <ATP_Site>  (801) 
nan

>  <Peripheral>  (801) 
nan

>  <Num_H_Atoms_ProtBoundConf>  (801) 
nan

>  <Num_Resolved_Atoms>  (801) 
nan

>  <Num_Not_Resolved_Atoms>  (801) 
nan

$$$$
CHEMBL4090743
     RDKit          3D

  0  0  0  0  0  0  0  0  0  0999 V3000
M  V30 BEGIN CTAB
M  V30 COUNTS 50 53 0 0 0
M  V30 BEGIN ATOM
M  V30 1 C 1.174044 -3.707036 2.355455 0
M  V30 2 C 1.855287 -2.532815 1.761204 0
M  V30 3 C 2.823312 -1.849921 2.497788 0
M  V30 4 C 3.471686 -0.766474 1.982014 0
M  V30 5 F 4.394460 -0.165238 2.763410 0
M  V30 6 C 3.197885 -0.303291 0.715437 0
M  V30 7 C 2.246462 -0.979895 -0.000232 0
M  V30 8 C 1.563817 -2.074445 0.469186 0
M  V30 9 C 0.521817 -2.853129 -0.240613 0
M  V30 10 C -0.867220 -2.291965 -0.026711 0
M  V30 11 N -1.241550 -1.323386 -1.052564 0
M  V30 12 C -1.278244 0.044441 -0.676169 0
M  V30 13 N -0.873744 0.249336 0.590398 0
M  V30 14 C -0.831749 1.492479 1.157002 0
M  V30 15 C -0.376779 1.638018 2.533933 0
M  V30 16 C -0.292782 2.820720 3.203707 0
M  V30 17 C 0.134144 2.985017 4.500267 0
M  V30 18 N 0.504509 1.854903 5.167456 0
M  V30 19 C 0.436496 0.665646 4.542444 0
M  V30 20 C 0.006112 0.511193 3.238657 0
M  V30 21 C -1.225081 2.548918 0.373878 0
M  V30 22 C -1.642509 2.364842 -0.922509 0
M  V30 23 O -2.015575 3.301381 -1.688784 0
M  V30 24 N -1.652269 1.108771 -1.398910 0
M  V30 25 C -2.086432 0.855502 -2.756291 0
M  V30 26 C -1.462237 -2.110692 -2.209887 0
M  V30 27 C -0.514369 -3.325630 -2.252668 0
M  V30 28 N 0.795593 -2.952995 -1.685396 0
M  V30 29 H 1.208240 -3.557580 3.470762 0
M  V30 30 H 1.798915 -4.579942 2.110988 0
M  V30 31 H 0.122930 -3.819650 2.094814 0
M  V30 32 H 3.022772 -2.241182 3.506766 0
M  V30 33 H 3.710265 0.564123 0.290328 0
M  V30 34 H 1.999861 -0.652923 -0.994276 0
M  V30 35 H 0.523483 -3.913620 0.094373 0
M  V30 36 H -0.807775 -1.771310 0.977872 0
M  V30 37 H -1.656228 -3.030002 0.086219 0
M  V30 38 H -0.585830 3.705164 2.670320 0
M  V30 39 H 0.173077 3.977223 4.967471 0
M  V30 40 H 0.761109 -0.129633 5.198659 0
M  V30 41 H -0.004710 -0.485632 2.850762 0
M  V30 42 H -1.218118 3.547998 0.752440 0
M  V30 43 H -2.914143 0.122885 -2.834365 0
M  V30 44 H -1.251730 0.689045 -3.447048 0
M  V30 45 H -2.558168 1.814895 -3.127683 0
M  V30 46 H -2.485645 -2.596808 -2.207547 0
M  V30 47 H -1.386839 -1.622638 -3.184640 0
M  V30 48 H -0.929308 -4.162655 -1.650483 0
M  V30 49 H -0.387730 -3.677180 -3.284908 0
M  V30 50 H 1.002013 -2.026270 -2.113058 0
M  V30 END ATOM
M  V30 BEGIN BOND
M  V30 1 1 1 2
M  V30 2 2 2 3
M  V30 3 1 3 4
M  V30 4 1 4 5
M  V30 5 2 4 6
M  V30 6 1 6 7
M  V30 7 2 7 8
M  V30 8 1 8 9
M  V30 9 1 9 10
M  V30 10 1 10 11
M  V30 11 1 11 12
M  V30 12 2 12 13
M  V30 13 1 13 14
M  V30 14 1 14 15
M  V30 15 2 15 16
M  V30 16 1 16 17
M  V30 17 2 17 18
M  V30 18 1 18 19
M  V30 19 2 19 20
M  V30 20 2 14 21
M  V30 21 1 21 22
M  V30 22 2 22 23
M  V30 23 1 22 24
M  V30 24 1 24 25
M  V30 25 1 11 26
M  V30 26 1 26 27
M  V30 27 1 27 28
M  V30 28 1 8 2
M  V30 29 1 28 9
M  V30 30 1 24 12
M  V30 31 1 20 15
M  V30 32 1 1 29
M  V30 33 1 1 30
M  V30 34 1 1 31
M  V30 35 1 3 32
M  V30 36 1 6 33
M  V30 37 1 7 34
M  V30 38 1 9 35
M  V30 39 1 10 36
M  V30 40 1 10 37
M  V30 41 1 16 38
M  V30 42 1 17 39
M  V30 43 1 19 40
M  V30 44 1 20 41
M  V30 45 1 21 42
M  V30 46 1 25 43
M  V30 47 1 25 44
M  V30 48 1 25 45
M  V30 49 1 26 46
M  V30 50 1 26 47
M  V30 51 1 27 48
M  V30 52 1 27 49
M  V30 53 1 28 50
M  V30 END BOND
M  V30 END CTAB
M  END
>  <Dataset>  (802) 
ChEMBL_Kinases

>  <Ligand_Instance>  (802) 
nan

>  <PDB_ID>  (802) 
nan

>  <Standardized_SMILES>  (802) 
Cc1cc(F)ccc1C1CN(c2nc(-c3ccncc3)cc(=O)n2C)CCN1

>  <Name>  (802) 
nan

>  <Pocket>  (802) 
nan

>  <ATP_Site>  (802) 
nan

>  <Peripheral>  (802) 
nan

>  <Num_H_Atoms_ProtBoundConf>  (802) 
nan

>  <Num_Resolved_Atoms>  (802) 
nan

>  <Num_Not_Resolved_Atoms>  (802) 
nan

$$$$
CHEMBL4090725
     RDKit          3D

  0  0  0  0  0  0  0  0  0  0999 V3000
M  V30 BEGIN CTAB
M  V30 COUNTS 38 41 0 0 0
M  V30 BEGIN ATOM
M  V30 1 N 1.117831 -3.703567 6.502358 0
M  V30 2 C 1.335852 -3.774349 5.355690 0
M  V30 3 C 1.605311 -3.886530 3.945274 0
M  V30 4 C 2.011400 -5.103629 3.397422 0
M  V30 5 C 2.270240 -5.208895 2.038752 0
M  V30 6 C 2.126014 -4.113579 1.235090 0
M  V30 7 N 2.289812 -3.872532 -0.087938 0
M  V30 8 N 2.022555 -2.621355 -0.405152 0
M  V30 9 C 1.655539 -1.935572 0.713638 0
M  V30 10 C 1.270379 -0.527851 0.851786 0
M  V30 11 C 1.731286 0.312702 1.852696 0
M  V30 12 C 1.326589 1.630620 1.923416 0
M  V30 13 N 0.464830 2.123404 1.005459 0
M  V30 14 C 0.024203 1.303220 0.040909 0
M  V30 15 N -0.878827 1.894213 -0.886558 0
M  V30 16 C -1.269949 3.298024 -0.758399 0
M  V30 17 C -2.771767 3.425039 -0.610129 0
M  V30 18 O -3.411372 2.213607 -0.914105 0
M  V30 19 C -2.939134 1.719421 -2.130897 0
M  V30 20 C -1.508795 1.251835 -2.020410 0
M  V30 21 C 0.378612 -0.001637 -0.090624 0
M  V30 22 C 1.721853 -2.874913 1.739185 0
M  V30 23 C 1.473617 -2.805480 3.089641 0
M  V30 24 H 2.109025 -5.943745 4.090034 0
M  V30 25 H 2.584489 -6.160070 1.628840 0
M  V30 26 H 2.599367 -4.623342 -0.771977 0
M  V30 27 H 2.417524 -0.106649 2.571220 0
M  V30 28 H 1.706873 2.277226 2.727587 0
M  V30 29 H -0.826935 3.759879 0.151003 0
M  V30 30 H -0.984614 3.814323 -1.696737 0
M  V30 31 H -3.162965 4.215347 -1.278100 0
M  V30 32 H -3.085530 3.713647 0.413247 0
M  V30 33 H -3.607107 0.864529 -2.413829 0
M  V30 34 H -3.007072 2.501465 -2.915493 0
M  V30 35 H -0.974155 1.528258 -2.967563 0
M  V30 36 H -1.524600 0.146611 -1.933304 0
M  V30 37 H 0.022444 -0.650500 -0.863777 0
M  V30 38 H 1.161897 -1.900309 3.553925 0
M  V30 END ATOM
M  V30 BEGIN BOND
M  V30 1 3 1 2
M  V30 2 1 2 3
M  V30 3 2 3 4
M  V30 4 1 4 5
M  V30 5 2 5 6
M  V30 6 1 6 7
M  V30 7 1 7 8
M  V30 8 2 8 9
M  V30 9 1 9 10
M  V30 10 2 10 11
M  V30 11 1 11 12
M  V30 12 2 12 13
M  V30 13 1 13 14
M  V30 14 1 14 15
M  V30 15 1 15 16
M  V30 16 1 16 17
M  V30 17 1 17 18
M  V30 18 1 18 19
M  V30 19 1 19 20
M  V30 20 2 14 21
M  V30 21 1 9 22
M  V30 22 2 22 23
M  V30 23 1 23 3
M  V30 24 1 22 6
M  V30 25 1 21 10
M  V30 26 1 20 15
M  V30 27 1 4 24
M  V30 28 1 5 25
M  V30 29 1 7 26
M  V30 30 1 11 27
M  V30 31 1 12 28
M  V30 32 1 16 29
M  V30 33 1 16 30
M  V30 34 1 17 31
M  V30 35 1 17 32
M  V30 36 1 19 33
M  V30 37 1 19 34
M  V30 38 1 20 35
M  V30 39 1 20 36
M  V30 40 1 21 37
M  V30 41 1 23 38
M  V30 END BOND
M  V30 END CTAB
M  END
>  <Dataset>  (803) 
ChEMBL_Kinases

>  <Ligand_Instance>  (803) 
nan

>  <PDB_ID>  (803) 
nan

>  <Standardized_SMILES>  (803) 
N#Cc1ccc2[nH]nc(-c3ccnc(N4CCOCC4)c3)c2c1

>  <Name>  (803) 
nan

>  <Pocket>  (803) 
nan

>  <ATP_Site>  (803) 
nan

>  <Peripheral>  (803) 
nan

>  <Num_H_Atoms_ProtBoundConf>  (803) 
nan

>  <Num_Resolved_Atoms>  (803) 
nan

>  <Num_Not_Resolved_Atoms>  (803) 
nan

$$$$
CHEMBL4845977
     RDKit          3D

  0  0  0  0  0  0  0  0  0  0999 V3000
M  V30 BEGIN CTAB
M  V30 COUNTS 54 56 0 0 0
M  V30 BEGIN ATOM
M  V30 1 N 0.889004 -6.940832 -0.668346 0
M  V30 2 C 1.176608 -5.828198 -0.880272 0
M  V30 3 C 1.510053 -4.459565 -1.127419 0
M  V30 4 C 1.585785 -3.527235 -0.095723 0
M  V30 5 C 1.914067 -2.230441 -0.431101 0
M  V30 6 C 2.175552 -1.769758 -1.703674 0
M  V30 7 N 2.499212 -0.451268 -2.049726 0
M  V30 8 C 2.492230 0.704113 -1.234905 0
M  V30 9 N 2.904127 1.871035 -1.722800 0
M  V30 10 C 2.935340 3.023500 -1.050120 0
M  V30 11 C 2.508161 3.006716 0.250801 0
M  V30 12 C 2.546438 4.300422 1.006083 0
M  V30 13 F 3.025785 5.336970 0.202303 0
M  V30 14 F 3.386230 4.217164 2.117376 0
M  V30 15 F 1.304906 4.678351 1.451390 0
M  V30 16 C 2.063962 1.829238 0.829262 0
M  V30 17 N 1.644450 1.814631 2.190862 0
M  V30 18 C 1.127806 0.797814 3.056368 0
M  V30 19 C -0.300616 0.452720 2.874264 0
M  V30 20 C -0.712569 -0.045488 1.516566 0
M  V30 21 N -2.130057 -0.327734 1.616795 0
M  V30 22 C -2.733371 -0.811043 0.438185 0
M  V30 23 C -4.196998 -1.047227 0.739788 0
M  V30 24 C -4.295422 -2.251976 1.639718 0
M  V30 25 C -3.719523 -3.501852 1.045911 0
M  V30 26 C -2.403416 -3.325734 0.375103 0
M  V30 27 C -2.147562 -1.988691 -0.211559 0
M  V30 28 N 2.089296 0.756889 0.037269 0
M  V30 29 C 2.077105 -2.762367 -2.660087 0
M  V30 30 N 1.761523 -4.036223 -2.383434 0
M  V30 31 H 1.390451 -3.831654 0.920732 0
M  V30 32 H 1.965768 -1.558173 0.392581 0
M  V30 33 H 2.788211 -0.307331 -3.061999 0
M  V30 34 H 3.277607 3.944014 -1.487839 0
M  V30 35 H 1.722156 2.758137 2.685887 0
M  V30 36 H 1.743704 -0.134826 2.956451 0
M  V30 37 H 1.272746 1.085800 4.128410 0
M  V30 38 H -0.986875 1.246019 3.253697 0
M  V30 39 H -0.506669 -0.414611 3.575684 0
M  V30 40 H -0.522152 0.774011 0.794417 0
M  V30 41 H -0.136410 -0.965044 1.317272 0
M  V30 42 H -2.581520 0.570891 1.898463 0
M  V30 43 H -2.740077 0.026462 -0.321269 0
M  V30 44 H -4.757496 -1.213249 -0.180234 0
M  V30 45 H -4.540054 -0.182790 1.351640 0
M  V30 46 H -5.374984 -2.423241 1.830433 0
M  V30 47 H -3.833223 -2.041895 2.631289 0
M  V30 48 H -4.479701 -3.992976 0.400938 0
M  V30 49 H -3.547486 -4.210340 1.896405 0
M  V30 50 H -2.343162 -4.096886 -0.440562 0
M  V30 51 H -1.543171 -3.584028 1.045833 0
M  V30 52 H -1.052624 -1.882255 -0.372691 0
M  V30 53 H -2.555315 -2.010998 -1.266771 0
M  V30 54 H 2.253127 -2.562420 -3.708948 0
M  V30 END ATOM
M  V30 BEGIN BOND
M  V30 1 3 1 2
M  V30 2 1 2 3
M  V30 3 2 3 4
M  V30 4 1 4 5
M  V30 5 2 5 6
M  V30 6 1 6 7
M  V30 7 1 7 8
M  V30 8 2 8 9
M  V30 9 1 9 10
M  V30 10 2 10 11
M  V30 11 1 11 12
M  V30 12 1 12 13
M  V30 13 1 12 14
M  V30 14 1 12 15
M  V30 15 1 11 16
M  V30 16 1 16 17
M  V30 17 1 17 18
M  V30 18 1 18 19
M  V30 19 1 19 20
M  V30 20 1 20 21
M  V30 21 1 21 22
M  V30 22 1 22 23
M  V30 23 1 23 24
M  V30 24 1 24 25
M  V30 25 1 25 26
M  V30 26 1 26 27
M  V30 27 2 16 28
M  V30 28 1 6 29
M  V30 29 2 29 30
M  V30 30 1 30 3
M  V30 31 1 28 8
M  V30 32 1 27 22
M  V30 33 1 4 31
M  V30 34 1 5 32
M  V30 35 1 7 33
M  V30 36 1 10 34
M  V30 37 1 17 35
M  V30 38 1 18 36
M  V30 39 1 18 37
M  V30 40 1 19 38
M  V30 41 1 19 39
M  V30 42 1 20 40
M  V30 43 1 20 41
M  V30 44 1 21 42
M  V30 45 1 22 43
M  V30 46 1 23 44
M  V30 47 1 23 45
M  V30 48 1 24 46
M  V30 49 1 24 47
M  V30 50 1 25 48
M  V30 51 1 25 49
M  V30 52 1 26 50
M  V30 53 1 26 51
M  V30 54 1 27 52
M  V30 55 1 27 53
M  V30 56 1 29 54
M  V30 END BOND
M  V30 END CTAB
M  END
>  <Dataset>  (804) 
ChEMBL_Kinases

>  <Ligand_Instance>  (804) 
nan

>  <PDB_ID>  (804) 
nan

>  <Standardized_SMILES>  (804) 
N#Cc1ccc(Nc2ncc(C(F)(F)F)c(NCCCNC3CCCCC3)n2)cn1

>  <Name>  (804) 
nan

>  <Pocket>  (804) 
nan

>  <ATP_Site>  (804) 
nan

>  <Peripheral>  (804) 
nan

>  <Num_H_Atoms_ProtBoundConf>  (804) 
nan

>  <Num_Resolved_Atoms>  (804) 
nan

>  <Num_Not_Resolved_Atoms>  (804) 
nan

$$$$
CHEMBL4090650
     RDKit          3D

  0  0  0  0  0  0  0  0  0  0999 V3000
M  V30 BEGIN CTAB
M  V30 COUNTS 55 59 0 0 0
M  V30 BEGIN ATOM
M  V30 1 C 4.813984 2.236543 7.620888 0
M  V30 2 O 4.254075 2.032745 6.357614 0
M  V30 3 C 4.865522 1.411268 5.301175 0
M  V30 4 O 5.963116 1.140117 5.842475 0
M  V30 5 C 4.291677 1.193298 3.979526 0
M  V30 6 C 5.054825 0.543303 3.033601 0
M  V30 7 C 4.435785 0.378230 1.806177 0
M  V30 8 C 3.145087 0.835540 1.556146 0
M  V30 9 C 2.434994 1.486046 2.568016 0
M  V30 10 C 3.010857 1.681450 3.830463 0
M  V30 11 C 1.074892 2.043093 2.518446 0
M  V30 12 O 0.779716 2.838915 3.428035 0
M  V30 13 C 0.106584 1.702082 1.477451 0
M  V30 14 C -1.085768 2.336193 1.750690 0
M  V30 15 C -2.135260 2.143164 0.885249 0
M  V30 16 C -2.078067 1.343934 -0.259486 0
M  V30 17 N -3.177939 1.186036 -1.135281 0
M  V30 18 C -3.705771 0.114667 -1.888374 0
M  V30 19 C -3.236709 -1.173088 -1.904860 0
M  V30 20 C -3.763572 -2.191251 -2.662184 0
M  V30 21 N -3.300080 -3.525634 -2.698322 0
M  V30 22 C -2.252223 -4.172074 -2.034201 0
M  V30 23 O -1.557537 -3.489181 -1.244448 0
M  V30 24 C -1.881813 -5.538288 -2.157027 0
M  V30 25 C -2.410016 -6.549679 -2.911924 0
M  V30 26 C -1.905666 -7.812717 -2.891216 0
M  V30 27 C -0.772055 -7.974995 -2.003897 0
M  V30 28 S -0.571541 -6.233084 -1.290774 0
M  V30 29 C -4.840422 -1.871642 -3.453710 0
M  V30 30 F -5.449301 -2.806952 -4.252931 0
M  V30 31 C -5.348512 -0.594302 -3.472163 0
M  V30 32 C -4.784117 0.389414 -2.694863 0
M  V30 33 F -5.348710 1.618689 -2.775284 0
M  V30 34 C -0.854148 0.745566 -0.463806 0
M  V30 35 C 0.238910 0.896706 0.364333 0
M  V30 36 O 1.391841 0.215862 -0.000154 0
M  V30 37 C 2.771318 0.513473 0.171925 0
M  V30 38 H 3.983932 2.434541 8.336453 0
M  V30 39 H 5.478627 3.121625 7.678002 0
M  V30 40 H 5.351702 1.345527 8.005190 0
M  V30 41 H 6.052980 0.202052 3.262723 0
M  V30 42 H 4.982782 -0.125654 1.018764 0
M  V30 43 H 2.472887 2.177964 4.607825 0
M  V30 44 H -1.215780 2.974248 2.618100 0
M  V30 45 H -3.077433 2.652714 1.113255 0
M  V30 46 H -3.670172 2.128434 -1.194393 0
M  V30 47 H -2.414467 -1.391692 -1.276701 0
M  V30 48 H -3.801300 -4.217781 -3.331077 0
M  V30 49 H -3.267911 -6.296511 -3.542506 0
M  V30 50 H -2.285285 -8.639938 -3.465445 0
M  V30 51 H -0.281446 -9.049828 -1.935363 0
M  V30 52 H -6.191910 -0.382110 -4.103812 0
M  V30 53 H -0.663031 0.120661 -1.302941 0
M  V30 54 H 3.310866 -0.412888 -0.131785 0
M  V30 55 H 3.006088 1.324254 -0.546348 0
M  V30 END ATOM
M  V30 BEGIN BOND
M  V30 1 1 1 2
M  V30 2 1 2 3
M  V30 3 2 3 4
M  V30 4 1 3 5
M  V30 5 2 5 6
M  V30 6 1 6 7
M  V30 7 2 7 8
M  V30 8 1 8 9
M  V30 9 2 9 10
M  V30 10 1 9 11
M  V30 11 2 11 12
M  V30 12 1 11 13
M  V30 13 2 13 14
M  V30 14 1 14 15
M  V30 15 2 15 16
M  V30 16 1 16 17
M  V30 17 1 17 18
M  V30 18 2 18 19
M  V30 19 1 19 20
M  V30 20 1 20 21
M  V30 21 1 21 22
M  V30 22 2 22 23
M  V30 23 1 22 24
M  V30 24 2 24 25
M  V30 25 1 25 26
M  V30 26 2 26 27
M  V30 27 1 27 28
M  V30 28 2 20 29
M  V30 29 1 29 30
M  V30 30 1 29 31
M  V30 31 2 31 32
M  V30 32 1 32 33
M  V30 33 1 16 34
M  V30 34 2 34 35
M  V30 35 1 35 36
M  V30 36 1 36 37
M  V30 37 1 10 5
M  V30 38 1 35 13
M  V30 39 1 37 8
M  V30 40 1 32 18
M  V30 41 1 28 24
M  V30 42 1 1 38
M  V30 43 1 1 39
M  V30 44 1 1 40
M  V30 45 1 6 41
M  V30 46 1 7 42
M  V30 47 1 10 43
M  V30 48 1 14 44
M  V30 49 1 15 45
M  V30 50 1 17 46
M  V30 51 1 19 47
M  V30 52 1 21 48
M  V30 53 1 25 49
M  V30 54 1 26 50
M  V30 55 1 27 51
M  V30 56 1 31 52
M  V30 57 1 34 53
M  V30 58 1 37 54
M  V30 59 1 37 55
M  V30 END BOND
M  V30 END CTAB
M  END
>  <Dataset>  (805) 
ChEMBL_Kinases

>  <Ligand_Instance>  (805) 
nan

>  <PDB_ID>  (805) 
nan

>  <Standardized_SMILES>  (805) 
COC(=O)c1ccc2c(c1)C(=O)c1ccc(Nc3cc(NC(=O)c4cccs4)c(F)cc3F)cc1OC2

>  <Name>  (805) 
nan

>  <Pocket>  (805) 
nan

>  <ATP_Site>  (805) 
nan

>  <Peripheral>  (805) 
nan

>  <Num_H_Atoms_ProtBoundConf>  (805) 
nan

>  <Num_Resolved_Atoms>  (805) 
nan

>  <Num_Not_Resolved_Atoms>  (805) 
nan

$$$$
CHEMBL4090634
     RDKit          3D

  0  0  0  0  0  0  0  0  0  0999 V3000
M  V30 BEGIN CTAB
M  V30 COUNTS 54 58 0 0 0
M  V30 BEGIN ATOM
M  V30 1 N 5.562424 -5.139279 4.874606 0
M  V30 2 C 5.408493 -4.074567 3.942246 0
M  V30 3 C 5.630154 -4.269344 2.593581 0
M  V30 4 C 5.474631 -3.220733 1.706152 0
M  V30 5 C 5.096668 -1.969014 2.156737 0
M  V30 6 C 4.896855 -0.780260 1.335137 0
M  V30 7 C 5.760770 0.232917 0.936712 0
M  V30 8 N 5.039041 1.094048 0.173163 0
M  V30 9 C 3.769655 0.647129 0.089670 0
M  V30 10 C 2.678584 1.178730 -0.570075 0
M  V30 11 C 1.435229 0.580552 -0.548849 0
M  V30 12 C 0.252893 1.103404 -1.229554 0
M  V30 13 C 0.275037 2.266939 -1.970075 0
M  V30 14 N -0.807969 2.758653 -2.601759 0
M  V30 15 C -1.987225 2.106174 -2.526962 0
M  V30 16 C -2.033433 0.940300 -1.791962 0
M  V30 17 O -3.226991 0.235146 -1.687512 0
M  V30 18 C -3.297605 -0.963173 -0.938815 0
M  V30 19 C -4.676037 -1.553037 -0.962265 0 CFG=1
M  V30 20 N -4.725345 -2.792118 -0.181239 0
M  V30 21 C -5.703147 -0.595282 -0.464991 0
M  V30 22 C -5.741790 -0.499709 0.922909 0
M  V30 23 C -6.659122 0.362482 1.523523 0
M  V30 24 C -7.533110 1.125603 0.754276 0
M  V30 25 C -7.465994 1.004671 -0.619981 0
M  V30 26 C -6.572594 0.164228 -1.222060 0
M  V30 27 N -0.939925 0.470254 -1.171127 0
M  V30 28 C 1.301774 -0.592758 0.165571 0
M  V30 29 C 2.402864 -1.140581 0.838657 0
M  V30 30 C 3.639218 -0.527083 0.805551 0
M  V30 31 C 4.882764 -1.812053 3.520540 0
M  V30 32 F 4.514247 -0.641701 4.060571 0
M  V30 33 N 5.038288 -2.851187 4.388912 0
M  V30 34 H 5.264539 -6.138322 4.677559 0
M  V30 35 H 5.977754 -5.034354 5.825979 0
M  V30 36 H 5.922190 -5.220852 2.213994 0
M  V30 37 H 5.627985 -3.291341 0.644136 0
M  V30 38 H 6.798428 0.241702 1.233897 0
M  V30 39 H 5.442367 1.954724 -0.261755 0
M  V30 40 H 2.801867 2.083022 -1.114744 0
M  V30 41 H 1.170213 2.833909 -2.072870 0
M  V30 42 H -2.882498 2.463697 -3.017717 0
M  V30 43 H -2.923442 -0.828180 0.096196 0
M  V30 44 H -2.634309 -1.699944 -1.458509 0
M  V30 45 H -4.941180 -1.814040 -2.001089 0
M  V30 46 H -3.837498 -2.883025 0.371862 0
M  V30 47 H -5.529061 -2.715801 0.496983 0
M  V30 48 H -5.100655 -1.053667 1.621722 0
M  V30 49 H -6.737880 0.481308 2.605269 0
M  V30 50 H -8.253147 1.801553 1.207101 0
M  V30 51 H -8.128888 1.580574 -1.270102 0
M  V30 52 H -6.467961 0.022187 -2.295368 0
M  V30 53 H 0.339983 -1.096278 0.208183 0
M  V30 54 H 2.292853 -2.059673 1.396686 0
M  V30 END ATOM
M  V30 BEGIN BOND
M  V30 1 1 1 2
M  V30 2 2 2 3
M  V30 3 1 3 4
M  V30 4 2 4 5
M  V30 5 1 5 6
M  V30 6 2 6 7
M  V30 7 1 7 8
M  V30 8 1 8 9
M  V30 9 2 9 10
M  V30 10 1 10 11
M  V30 11 1 11 12
M  V30 12 2 12 13
M  V30 13 1 13 14
M  V30 14 2 14 15
M  V30 15 1 15 16
M  V30 16 1 16 17
M  V30 17 1 17 18
M  V30 18 1 18 19
M  V30 19 1 19 20
M  V30 20 1 19 21
M  V30 21 2 21 22
M  V30 22 1 22 23
M  V30 23 2 23 24
M  V30 24 1 24 25
M  V30 25 2 25 26
M  V30 26 2 16 27
M  V30 27 2 11 28
M  V30 28 1 28 29
M  V30 29 2 29 30
M  V30 30 1 5 31
M  V30 31 1 31 32
M  V30 32 2 31 33
M  V30 33 1 33 2
M  V30 34 1 30 6
M  V30 35 1 30 9
M  V30 36 1 27 12
M  V30 37 1 26 21
M  V30 38 1 1 34
M  V30 39 1 1 35
M  V30 40 1 3 36
M  V30 41 1 4 37
M  V30 42 1 7 38
M  V30 43 1 8 39
M  V30 44 1 10 40
M  V30 45 1 13 41
M  V30 46 1 15 42
M  V30 47 1 18 43
M  V30 48 1 18 44
M  V30 49 1 19 45 CFG=3
M  V30 50 1 20 46
M  V30 51 1 20 47
M  V30 52 1 22 48
M  V30 53 1 23 49
M  V30 54 1 24 50
M  V30 55 1 25 51
M  V30 56 1 26 52
M  V30 57 1 28 53
M  V30 58 1 29 54
M  V30 END BOND
M  V30 END CTAB
M  END
>  <Dataset>  (806) 
ChEMBL_Kinases

>  <Ligand_Instance>  (806) 
nan

>  <PDB_ID>  (806) 
nan

>  <Standardized_SMILES>  (806) 
Nc1ccc(-c2c[nH]c3cc(-c4cncc(OC[C@@H](N)c5ccccc5)n4)ccc23)c(F)n1

>  <Name>  (806) 
nan

>  <Pocket>  (806) 
nan

>  <ATP_Site>  (806) 
nan

>  <Peripheral>  (806) 
nan

>  <Num_H_Atoms_ProtBoundConf>  (806) 
nan

>  <Num_Resolved_Atoms>  (806) 
nan

>  <Num_Not_Resolved_Atoms>  (806) 
nan

$$$$
CHEMBL4090612
     RDKit          3D

  0  0  0  0  0  0  0  0  0  0999 V3000
M  V30 BEGIN CTAB
M  V30 COUNTS 35 37 0 0 0
M  V30 BEGIN ATOM
M  V30 1 C -0.910737 -4.175730 5.610352 0
M  V30 2 C -1.256637 -3.082502 4.664085 0
M  V30 3 C -0.629425 -3.012607 3.444458 0
M  V30 4 C -0.952845 -1.995224 2.566529 0
M  V30 5 C -0.384973 -1.776463 1.239890 0
M  V30 6 N -0.981677 -2.013183 0.057448 0
M  V30 7 N -0.168327 -1.697574 -0.935785 0
M  V30 8 C 0.990219 -1.242436 -0.431982 0
M  V30 9 C 2.311373 -0.713057 -0.902302 0
M  V30 10 N 2.353191 0.721468 -0.978882 0
M  V30 11 C 1.645285 1.620350 -1.811724 0
M  V30 12 C 0.744634 1.266969 -2.781786 0
M  V30 13 C 0.051041 2.144791 -3.586582 0
M  V30 14 C 0.273540 3.481730 -3.410107 0
M  V30 15 Cl -0.554723 4.663745 -4.377917 0
M  V30 16 C 1.163940 3.897685 -2.454834 0
M  V30 17 C 1.829827 2.979722 -1.678205 0
M  V30 18 N 0.829280 -1.301997 0.918754 0
M  V30 19 C -1.926946 -1.099887 3.024721 0
M  V30 20 C -2.563819 -1.168170 4.259286 0
M  V30 21 N -2.189332 -2.193861 5.057938 0
M  V30 22 H -0.817222 -3.735371 6.636282 0
M  V30 23 H -1.768885 -4.887415 5.567693 0
M  V30 24 H 0.048531 -4.670336 5.373974 0
M  V30 25 H 0.113522 -3.703664 3.106693 0
M  V30 26 H -0.251128 -1.738665 -1.969955 0
M  V30 27 H 2.482340 -1.184795 -1.905486 0
M  V30 28 H 3.141720 -1.096512 -0.279550 0
M  V30 29 H 3.030523 1.175997 -0.291365 0
M  V30 30 H 0.546657 0.231550 -2.956035 0
M  V30 31 H -0.651628 1.790720 -4.339151 0
M  V30 32 H 1.340946 4.955788 -2.314319 0
M  V30 33 H 2.519879 3.374251 -0.941541 0
M  V30 34 H -2.211334 -0.277511 2.356066 0
M  V30 35 H -3.302645 -0.409262 4.492629 0
M  V30 END ATOM
M  V30 BEGIN BOND
M  V30 1 1 1 2
M  V30 2 2 2 3
M  V30 3 1 3 4
M  V30 4 1 4 5
M  V30 5 2 5 6
M  V30 6 1 6 7
M  V30 7 1 7 8
M  V30 8 1 8 9
M  V30 9 1 9 10
M  V30 10 1 10 11
M  V30 11 2 11 12
M  V30 12 1 12 13
M  V30 13 2 13 14
M  V30 14 1 14 15
M  V30 15 1 14 16
M  V30 16 2 16 17
M  V30 17 2 8 18
M  V30 18 2 4 19
M  V30 19 1 19 20
M  V30 20 2 20 21
M  V30 21 1 21 2
M  V30 22 1 18 5
M  V30 23 1 17 11
M  V30 24 1 1 22
M  V30 25 1 1 23
M  V30 26 1 1 24
M  V30 27 1 3 25
M  V30 28 1 7 26
M  V30 29 1 9 27
M  V30 30 1 9 28
M  V30 31 1 10 29
M  V30 32 1 12 30
M  V30 33 1 13 31
M  V30 34 1 16 32
M  V30 35 1 17 33
M  V30 36 1 19 34
M  V30 37 1 20 35
M  V30 END BOND
M  V30 END CTAB
M  END
>  <Dataset>  (807) 
ChEMBL_Kinases

>  <Ligand_Instance>  (807) 
nan

>  <PDB_ID>  (807) 
nan

>  <Standardized_SMILES>  (807) 
Cc1cc(-c2n[nH]c(CNc3ccc(Cl)cc3)n2)ccn1

>  <Name>  (807) 
nan

>  <Pocket>  (807) 
nan

>  <ATP_Site>  (807) 
nan

>  <Peripheral>  (807) 
nan

>  <Num_H_Atoms_ProtBoundConf>  (807) 
nan

>  <Num_Resolved_Atoms>  (807) 
nan

>  <Num_Not_Resolved_Atoms>  (807) 
nan

$$$$
CHEMBL484550
     RDKit          3D

  0  0  0  0  0  0  0  0  0  0999 V3000
M  V30 BEGIN CTAB
M  V30 COUNTS 71 75 0 0 0
M  V30 BEGIN ATOM
M  V30 1 C 4.977831 4.656757 2.848298 0
M  V30 2 C 4.776613 3.171145 2.748255 0
M  V30 3 O 5.604773 2.246284 3.228541 0
M  V30 4 C 5.151143 1.041225 2.982154 0
M  V30 5 C 5.765957 -0.263800 3.344926 0
M  V30 6 C 7.056687 -0.086313 4.082495 0
M  V30 7 C 4.821083 -1.088591 4.209826 0
M  V30 8 C 5.996325 -1.064697 2.083795 0
M  V30 9 C 3.960468 1.191841 2.303032 0
M  V30 10 C 3.699926 2.539005 2.141729 0
M  V30 11 C 2.573350 3.206955 1.496567 0
M  V30 12 O 2.588817 4.465292 1.496239 0
M  V30 13 C 1.517391 2.370381 0.902782 0
M  V30 14 O 1.407124 1.122897 0.842751 0
M  V30 15 N 0.398627 2.984827 0.271473 0
M  V30 16 C -0.497011 1.971411 -0.232790 0
M  V30 17 C -1.528409 1.420911 0.509583 0
M  V30 18 C -2.352210 0.450887 -0.040030 0
M  V30 19 C -2.161285 0.009523 -1.347533 0
M  V30 20 C -3.119268 -1.031281 -1.700633 0
M  V30 21 C -4.480502 -0.765604 -1.508260 0
M  V30 22 C -5.454123 -1.701092 -1.801506 0
M  V30 23 C -5.069739 -2.948094 -2.304462 0
M  V30 24 C -6.023315 -4.021701 -2.651309 0
M  V30 25 N -6.294164 -4.902433 -1.530659 0
M  V30 26 C -6.856203 -4.249197 -0.389807 0
M  V30 27 C -6.817295 -5.265326 0.750266 0
M  V30 28 O -5.504141 -5.449896 1.136966 0
M  V30 29 C -4.591349 -5.225414 0.129530 0
M  V30 30 C -5.165950 -5.708299 -1.174181 0
M  V30 31 N -3.748532 -3.205002 -2.490582 0
M  V30 32 C -2.816739 -2.282425 -2.199183 0
M  V30 33 C -1.132373 0.564183 -2.079536 0
M  V30 34 C -1.035079 0.068121 -3.357472 0
M  V30 35 C -0.044242 0.559319 -4.176420 0
M  V30 36 C 0.804297 1.526060 -3.677270 0
M  V30 37 C 0.665527 1.995188 -2.381397 0
M  V30 38 C -0.314988 1.529007 -1.528272 0
M  V30 39 H 4.986764 5.107193 1.821144 0
M  V30 40 H 4.188181 5.073979 3.481913 0
M  V30 41 H 5.967163 4.843360 3.302216 0
M  V30 42 H 7.066005 0.768645 4.781119 0
M  V30 43 H 7.222101 -1.008104 4.696925 0
M  V30 44 H 7.890692 -0.070455 3.355772 0
M  V30 45 H 5.342795 -1.702566 4.946268 0
M  V30 46 H 4.206892 -0.351108 4.791131 0
M  V30 47 H 4.099499 -1.652938 3.599709 0
M  V30 48 H 5.018878 -1.396730 1.702157 0
M  V30 49 H 6.475478 -0.424690 1.291647 0
M  V30 50 H 6.681864 -1.914172 2.328428 0
M  V30 51 H 3.329554 0.392517 1.951634 0
M  V30 52 H 0.283351 4.041595 0.205661 0
M  V30 53 H -1.630467 1.800093 1.518094 0
M  V30 54 H -3.123883 0.109686 0.667786 0
M  V30 55 H -4.850185 0.177245 -1.122618 0
M  V30 56 H -6.510417 -1.517715 -1.660623 0
M  V30 57 H -6.951183 -3.527277 -3.004133 0
M  V30 58 H -5.588580 -4.657213 -3.451776 0
M  V30 59 H -6.341432 -3.329357 -0.094079 0
M  V30 60 H -7.946439 -4.067291 -0.602834 0
M  V30 61 H -7.195534 -6.241353 0.409468 0
M  V30 62 H -7.457659 -4.916417 1.586446 0
M  V30 63 H -4.424860 -4.116261 0.067854 0
M  V30 64 H -3.620692 -5.685432 0.370722 0
M  V30 65 H -5.420167 -6.782018 -1.032659 0
M  V30 66 H -4.425840 -5.669432 -2.007834 0
M  V30 67 H -1.781614 -2.538918 -2.353685 0
M  V30 68 H -1.694816 -0.680735 -3.767966 0
M  V30 69 H 0.123135 0.246338 -5.185011 0
M  V30 70 H 1.605488 1.959928 -4.258377 0
M  V30 71 H 1.354175 2.768120 -2.002808 0
M  V30 END ATOM
M  V30 BEGIN BOND
M  V30 1 1 1 2
M  V30 2 1 2 3
M  V30 3 1 3 4
M  V30 4 1 4 5
M  V30 5 1 5 6
M  V30 6 1 5 7
M  V30 7 1 5 8
M  V30 8 2 4 9
M  V30 9 1 9 10
M  V30 10 1 10 11
M  V30 11 2 11 12
M  V30 12 1 11 13
M  V30 13 2 13 14
M  V30 14 1 13 15
M  V30 15 1 15 16
M  V30 16 2 16 17
M  V30 17 1 17 18
M  V30 18 2 18 19
M  V30 19 1 19 20
M  V30 20 2 20 21
M  V30 21 1 21 22
M  V30 22 2 22 23
M  V30 23 1 23 24
M  V30 24 1 24 25
M  V30 25 1 25 26
M  V30 26 1 26 27
M  V30 27 1 27 28
M  V30 28 1 28 29
M  V30 29 1 29 30
M  V30 30 1 23 31
M  V30 31 2 31 32
M  V30 32 1 19 33
M  V30 33 2 33 34
M  V30 34 1 34 35
M  V30 35 2 35 36
M  V30 36 1 36 37
M  V30 37 2 37 38
M  V30 38 2 10 2
M  V30 39 1 38 16
M  V30 40 1 32 20
M  V30 41 1 38 33
M  V30 42 1 30 25
M  V30 43 1 1 39
M  V30 44 1 1 40
M  V30 45 1 1 41
M  V30 46 1 6 42
M  V30 47 1 6 43
M  V30 48 1 6 44
M  V30 49 1 7 45
M  V30 50 1 7 46
M  V30 51 1 7 47
M  V30 52 1 8 48
M  V30 53 1 8 49
M  V30 54 1 8 50
M  V30 55 1 9 51
M  V30 56 1 15 52
M  V30 57 1 17 53
M  V30 58 1 18 54
M  V30 59 1 21 55
M  V30 60 1 22 56
M  V30 61 1 24 57
M  V30 62 1 24 58
M  V30 63 1 26 59
M  V30 64 1 26 60
M  V30 65 1 27 61
M  V30 66 1 27 62
M  V30 67 1 29 63
M  V30 68 1 29 64
M  V30 69 1 30 65
M  V30 70 1 30 66
M  V30 71 1 32 67
M  V30 72 1 34 68
M  V30 73 1 35 69
M  V30 74 1 36 70
M  V30 75 1 37 71
M  V30 END BOND
M  V30 END CTAB
M  END
>  <Dataset>  (808) 
ChEMBL_Kinases

>  <Ligand_Instance>  (808) 
nan

>  <PDB_ID>  (808) 
nan

>  <Standardized_SMILES>  (808) 
Cc1oc(C(C)(C)C)cc1C(=O)C(=O)Nc1ccc(-c2ccc(CN3CCOCC3)nc2)c2ccccc12

>  <Name>  (808) 
nan

>  <Pocket>  (808) 
nan

>  <ATP_Site>  (808) 
nan

>  <Peripheral>  (808) 
nan

>  <Num_H_Atoms_ProtBoundConf>  (808) 
nan

>  <Num_Resolved_Atoms>  (808) 
nan

>  <Num_Not_Resolved_Atoms>  (808) 
nan

$$$$
CHEMBL4846012
     RDKit          3D

  0  0  0  0  0  0  0  0  0  0999 V3000
M  V30 BEGIN CTAB
M  V30 COUNTS 45 46 0 0 0
M  V30 BEGIN ATOM
M  V30 1 C -2.004345 -5.074740 0.578028 0
M  V30 2 C -2.054455 -3.674410 0.075422 0
M  V30 3 C -1.375599 -2.695331 0.935715 0
M  V30 4 C -0.116474 -2.181021 0.597042 0
M  V30 5 C 0.584401 -1.263506 1.352194 0
M  V30 6 N 1.874750 -0.827310 0.868364 0
M  V30 7 C 1.836731 0.330537 0.011557 0
M  V30 8 O 0.557749 0.448710 0.081268 0
M  V30 9 C 3.097887 0.819117 -0.507239 0 CFG=2
M  V30 10 N 4.164550 -0.112532 -0.078240 0
M  V30 11 C 3.509889 2.210134 -0.268106 0
M  V30 12 C 2.639069 3.307307 -0.796663 0
M  V30 13 C 1.247807 3.377945 -0.291734 0
M  V30 14 C 3.304586 4.655199 -0.464161 0
M  V30 15 C 0.008769 -0.811863 2.533776 0
M  V30 16 C -1.232544 -1.305612 2.887509 0
M  V30 17 C -1.914568 -2.223777 2.114707 0
M  V30 18 C -3.221791 -2.689530 2.561793 0
M  V30 19 C -3.884961 -2.315376 3.711616 0
M  V30 20 N -5.074862 -2.932842 3.826096 0
M  V30 21 C -5.133421 -3.704936 2.710390 0
M  V30 22 O -4.049290 -3.536451 2.010229 0
M  V30 23 H -1.884274 -5.191096 1.671393 0
M  V30 24 H -2.951598 -5.582988 0.302424 0
M  V30 25 H -1.204011 -5.675051 0.062997 0
M  V30 26 H -3.098251 -3.385979 -0.168315 0
M  V30 27 H -1.530150 -3.669789 -0.915298 0
M  V30 28 H 0.303915 -2.548451 -0.322278 0
M  V30 29 H 2.740662 -1.385081 1.176590 0
M  V30 30 H 3.100425 0.674568 -1.638708 0
M  V30 31 H 5.087275 0.330719 -0.265366 0
M  V30 32 H 4.095478 -0.971351 -0.659197 0
M  V30 33 H 4.492398 2.345870 -0.828595 0
M  V30 34 H 3.828330 2.416102 0.789181 0
M  V30 35 H 2.554278 3.240067 -1.927774 0
M  V30 36 H 1.059959 3.018198 0.716640 0
M  V30 37 H 0.509583 2.915325 -0.985456 0
M  V30 38 H 0.918526 4.465147 -0.268267 0
M  V30 39 H 2.547944 5.443226 -0.547040 0
M  V30 40 H 4.168153 4.831950 -1.121930 0
M  V30 41 H 3.696003 4.568749 0.561527 0
M  V30 42 H 0.566430 -0.093066 3.117952 0
M  V30 43 H -1.615645 -0.902508 3.827144 0
M  V30 44 H -3.503746 -1.602683 4.453654 0
M  V30 45 H -5.816728 -4.414594 2.239305 0
M  V30 END ATOM
M  V30 BEGIN BOND
M  V30 1 1 1 2
M  V30 2 1 2 3
M  V30 3 2 3 4
M  V30 4 1 4 5
M  V30 5 1 5 6
M  V30 6 1 6 7
M  V30 7 2 7 8
M  V30 8 1 7 9
M  V30 9 1 9 10
M  V30 10 1 9 11
M  V30 11 1 11 12
M  V30 12 1 12 13
M  V30 13 1 12 14
M  V30 14 2 5 15
M  V30 15 1 15 16
M  V30 16 2 16 17
M  V30 17 1 17 18
M  V30 18 2 18 19
M  V30 19 1 19 20
M  V30 20 2 20 21
M  V30 21 1 21 22
M  V30 22 1 17 3
M  V30 23 1 22 18
M  V30 24 1 1 23
M  V30 25 1 1 24
M  V30 26 1 1 25
M  V30 27 1 2 26
M  V30 28 1 2 27
M  V30 29 1 4 28
M  V30 30 1 6 29
M  V30 31 1 9 30 CFG=3
M  V30 32 1 10 31
M  V30 33 1 10 32
M  V30 34 1 11 33
M  V30 35 1 11 34
M  V30 36 1 12 35
M  V30 37 1 13 36
M  V30 38 1 13 37
M  V30 39 1 13 38
M  V30 40 1 14 39
M  V30 41 1 14 40
M  V30 42 1 14 41
M  V30 43 1 15 42
M  V30 44 1 16 43
M  V30 45 1 19 44
M  V30 46 1 21 45
M  V30 END BOND
M  V30 END CTAB
M  END
>  <Dataset>  (809) 
ChEMBL_Kinases

>  <Ligand_Instance>  (809) 
nan

>  <PDB_ID>  (809) 
nan

>  <Standardized_SMILES>  (809) 
CCc1cc(NC(=O)[C@H](N)CC(C)C)ccc1-c1cnco1

>  <Name>  (809) 
nan

>  <Pocket>  (809) 
nan

>  <ATP_Site>  (809) 
nan

>  <Peripheral>  (809) 
nan

>  <Num_H_Atoms_ProtBoundConf>  (809) 
nan

>  <Num_Resolved_Atoms>  (809) 
nan

>  <Num_Not_Resolved_Atoms>  (809) 
nan

$$$$
CHEMBL4090438
     RDKit          3D

  0  0  0  0  0  0  0  0  0  0999 V3000
M  V30 BEGIN CTAB
M  V30 COUNTS 60 62 0 0 0
M  V30 BEGIN ATOM
M  V30 1 C 4.443157 -2.018897 2.286025 0
M  V30 2 C 3.301051 -2.224316 3.253049 0
M  V30 3 N 2.509566 -1.060129 3.453424 0
M  V30 4 C 3.140034 0.018551 4.139621 0
M  V30 5 C 3.446802 -0.224350 5.578465 0
M  V30 6 C 1.219553 -1.336585 3.977111 0
M  V30 7 C 0.254781 -2.045208 3.111667 0
M  V30 8 C -0.152760 -1.415260 1.834071 0
M  V30 9 C 0.922898 -1.151791 0.838359 0
M  V30 10 N -1.196972 -2.260815 1.228626 0
M  V30 11 C -1.843451 -1.936406 0.005508 0
M  V30 12 N -1.561661 -0.831311 -0.705591 0
M  V30 13 C -2.161263 -0.504715 -1.860481 0
M  V30 14 C -1.869731 0.678356 -2.652908 0
M  V30 15 C -1.002240 1.630385 -2.459391 0
M  V30 16 C -0.579015 2.850252 -3.113764 0
M  V30 17 C 0.462213 3.557579 -2.491933 0
M  V30 18 Cl 1.222192 2.993194 -0.992090 0
M  V30 19 C 0.944433 4.721568 -3.015214 0
M  V30 20 C 0.386513 5.194983 -4.176506 0
M  V30 21 Cl 1.037513 6.695812 -4.815671 0
M  V30 22 C -0.635464 4.563206 -4.847339 0
M  V30 23 C -1.072011 3.399459 -4.266625 0
M  V30 24 Cl -2.359916 2.618365 -5.121552 0
M  V30 25 N -3.104863 -1.334198 -2.340525 0
M  V30 26 C -3.461450 -2.463265 -1.709867 0
M  V30 27 C -4.438944 -3.257084 -2.270236 0
M  V30 28 C -4.819785 -4.423059 -1.632921 0
M  V30 29 C -4.188262 -4.735335 -0.446313 0
M  V30 30 N -4.640955 -5.953077 0.142716 0
M  V30 31 C -3.213794 -3.915631 0.083809 0
M  V30 32 C -2.816494 -2.751118 -0.529723 0
M  V30 33 H 4.274705 -2.551521 1.304465 0
M  V30 34 H 4.443321 -0.941512 2.024230 0
M  V30 35 H 5.416799 -2.380769 2.655546 0
M  V30 36 H 3.713006 -2.670777 4.179028 0
M  V30 37 H 2.645761 -3.011904 2.825309 0
M  V30 38 H 4.085444 0.358996 3.646181 0
M  V30 39 H 2.479211 0.930789 4.083777 0
M  V30 40 H 4.506297 -0.569690 5.736449 0
M  V30 41 H 2.717860 -0.884184 6.101283 0
M  V30 42 H 3.405894 0.745834 6.116600 0
M  V30 43 H 0.767204 -0.388382 4.397822 0
M  V30 44 H 1.337304 -1.969015 4.915854 0
M  V30 45 H -0.698775 -2.181829 3.709023 0
M  V30 46 H 0.573377 -3.097870 2.914400 0
M  V30 47 H -0.668993 -0.435672 2.020687 0
M  V30 48 H 0.594636 -0.374718 0.081652 0
M  V30 49 H 1.152998 -2.102740 0.299730 0
M  V30 50 H 1.807274 -0.683965 1.306899 0
M  V30 51 H -1.446908 -3.118269 1.738625 0
M  V30 52 H -2.413868 0.863674 -3.552054 0
M  V30 53 H -0.497384 1.347829 -1.517626 0
M  V30 54 H 1.744693 5.252708 -2.525311 0
M  V30 55 H -1.035116 4.981309 -5.753014 0
M  V30 56 H -4.882404 -2.923440 -3.216173 0
M  V30 57 H -5.593046 -4.965063 -2.159749 0
M  V30 58 H -3.994006 -6.768560 0.273187 0
M  V30 59 H -3.849667 -6.629400 0.179578 0
M  V30 60 H -2.800618 -4.255982 0.994671 0
M  V30 END ATOM
M  V30 BEGIN BOND
M  V30 1 1 1 2
M  V30 2 1 2 3
M  V30 3 1 3 4
M  V30 4 1 4 5
M  V30 5 1 3 6
M  V30 6 1 6 7
M  V30 7 1 7 8
M  V30 8 1 8 9
M  V30 9 1 8 10
M  V30 10 1 10 11
M  V30 11 2 11 12
M  V30 12 1 12 13
M  V30 13 1 13 14
M  V30 14 2 14 15
M  V30 15 1 15 16
M  V30 16 2 16 17
M  V30 17 1 17 18
M  V30 18 1 17 19
M  V30 19 2 19 20
M  V30 20 1 20 21
M  V30 21 1 20 22
M  V30 22 2 22 23
M  V30 23 1 23 24
M  V30 24 2 13 25
M  V30 25 1 25 26
M  V30 26 2 26 27
M  V30 27 1 27 28
M  V30 28 2 28 29
M  V30 29 1 29 30
M  V30 30 1 29 31
M  V30 31 2 31 32
M  V30 32 1 32 11
M  V30 33 1 23 16
M  V30 34 1 32 26
M  V30 35 1 1 33
M  V30 36 1 1 34
M  V30 37 1 1 35
M  V30 38 1 2 36
M  V30 39 1 2 37
M  V30 40 1 4 38
M  V30 41 1 4 39
M  V30 42 1 5 40
M  V30 43 1 5 41
M  V30 44 1 5 42
M  V30 45 1 6 43
M  V30 46 1 6 44
M  V30 47 1 7 45
M  V30 48 1 7 46
M  V30 49 1 8 47
M  V30 50 1 9 48
M  V30 51 1 9 49
M  V30 52 1 9 50
M  V30 53 1 10 51
M  V30 54 1 14 52
M  V30 55 1 15 53
M  V30 56 1 19 54
M  V30 57 1 22 55
M  V30 58 1 27 56
M  V30 59 1 28 57
M  V30 60 1 30 58
M  V30 61 1 30 59
M  V30 62 1 31 60
M  V30 END BOND
M  V30 END CTAB
M  END
>  <Dataset>  (810) 
ChEMBL_Kinases

>  <Ligand_Instance>  (810) 
nan

>  <PDB_ID>  (810) 
nan

>  <Standardized_SMILES>  (810) 
CCN(CC)CCC(C)Nc1nc(/C=C/c2c(Cl)cc(Cl)cc2Cl)nc2ccc(N)cc12

>  <Name>  (810) 
nan

>  <Pocket>  (810) 
nan

>  <ATP_Site>  (810) 
nan

>  <Peripheral>  (810) 
nan

>  <Num_H_Atoms_ProtBoundConf>  (810) 
nan

>  <Num_Resolved_Atoms>  (810) 
nan

>  <Num_Not_Resolved_Atoms>  (810) 
nan

$$$$
CHEMBL409038
     RDKit          3D

  0  0  0  0  0  0  0  0  0  0999 V3000
M  V30 BEGIN CTAB
M  V30 COUNTS 34 37 0 0 0
M  V30 BEGIN ATOM
M  V30 1 N 2.372309 -3.845526 5.269597 0
M  V30 2 C 1.614381 -3.547491 4.120048 0
M  V30 3 N 0.856785 -4.517442 3.596447 0
M  V30 4 C 0.094813 -4.316326 2.489374 0
M  V30 5 C 0.142960 -3.056175 1.931428 0
M  V30 6 C 0.907474 -2.029392 2.436142 0
M  V30 7 C 1.004589 -0.679921 1.898920 0
M  V30 8 C 1.843158 0.206517 2.570941 0
M  V30 9 C 1.984034 1.506696 2.115532 0
M  V30 10 C 1.284448 1.898652 0.996529 0
M  V30 11 N 1.153870 3.015401 0.265187 0
M  V30 12 O 0.357596 2.848193 -0.708978 0
M  V30 13 C -0.143822 1.626351 -0.764214 0
M  V30 14 C -1.069066 1.201136 -1.781504 0
M  V30 15 C -1.728608 0.027221 -1.971910 0
M  V30 16 C -2.586862 -0.300603 -2.986912 0
M  V30 17 C -2.837102 0.647401 -3.949548 0
M  V30 18 Cl -3.920254 0.312045 -5.280922 0
M  V30 19 C -2.218519 1.868412 -3.846966 0
M  V30 20 C -1.375288 2.096477 -2.789866 0
M  V30 21 C 0.452369 1.040217 0.319785 0
M  V30 22 C 0.334649 -0.228494 0.789788 0
M  V30 23 N 1.621023 -2.335829 3.531124 0
M  V30 24 H 1.835643 -3.931779 6.162532 0
M  V30 25 H 2.256698 -4.009669 6.297759 0
M  V30 26 H -0.539152 -5.061522 2.018428 0
M  V30 27 H -0.449776 -2.858959 1.050155 0
M  V30 28 H 2.419908 -0.065167 3.468212 0
M  V30 29 H 2.620849 2.235929 2.598056 0
M  V30 30 H -1.591881 -0.755365 -1.262065 0
M  V30 31 H -3.056155 -1.264805 -3.040484 0
M  V30 32 H -2.423333 2.600288 -4.607298 0
M  V30 33 H -0.945290 3.108780 -2.823106 0
M  V30 34 H -0.274054 -0.978737 0.346031 0
M  V30 END ATOM
M  V30 BEGIN BOND
M  V30 1 1 1 2
M  V30 2 2 2 3
M  V30 3 1 3 4
M  V30 4 2 4 5
M  V30 5 1 5 6
M  V30 6 1 6 7
M  V30 7 1 7 8
M  V30 8 2 8 9
M  V30 9 1 9 10
M  V30 10 2 10 11
M  V30 11 1 11 12
M  V30 12 1 12 13
M  V30 13 1 13 14
M  V30 14 2 14 15
M  V30 15 1 15 16
M  V30 16 2 16 17
M  V30 17 1 17 18
M  V30 18 1 17 19
M  V30 19 2 19 20
M  V30 20 2 13 21
M  V30 21 1 21 22
M  V30 22 2 6 23
M  V30 23 1 23 2
M  V30 24 2 22 7
M  V30 25 1 21 10
M  V30 26 1 20 14
M  V30 27 1 1 24
M  V30 28 1 1 25
M  V30 29 1 4 26
M  V30 30 1 5 27
M  V30 31 1 8 28
M  V30 32 1 9 29
M  V30 33 1 15 30
M  V30 34 1 16 31
M  V30 35 1 19 32
M  V30 36 1 20 33
M  V30 37 1 22 34
M  V30 END BOND
M  V30 END CTAB
M  END
>  <Dataset>  (811) 
ChEMBL_Kinases

>  <Ligand_Instance>  (811) 
nan

>  <PDB_ID>  (811) 
nan

>  <Standardized_SMILES>  (811) 
Nc1nccc(-c2ccc3noc(-c4ccc(Cl)cc4)c3c2)n1

>  <Name>  (811) 
nan

>  <Pocket>  (811) 
nan

>  <ATP_Site>  (811) 
nan

>  <Peripheral>  (811) 
nan

>  <Num_H_Atoms_ProtBoundConf>  (811) 
nan

>  <Num_Resolved_Atoms>  (811) 
nan

>  <Num_Not_Resolved_Atoms>  (811) 
nan

$$$$
CHEMBL4846040
     RDKit          3D

  0  0  0  0  0  0  0  0  0  0999 V3000
M  V30 BEGIN CTAB
M  V30 COUNTS 84 88 0 0 0
M  V30 BEGIN ATOM
M  V30 1 C -1.227496 3.368941 4.643969 0
M  V30 2 O -1.312397 2.003121 4.323816 0
M  V30 3 C -2.115169 1.513453 3.314658 0
M  V30 4 C -2.946677 2.196508 2.467535 0
M  V30 5 C -3.710997 1.627698 1.489496 0
M  V30 6 N -4.551520 2.362818 0.635710 0
M  V30 7 C -5.362912 1.701790 -0.366070 0
M  V30 8 C -5.762689 2.682107 -1.448983 0
M  V30 9 N -4.666315 3.540263 -1.830733 0
M  V30 10 C -3.573668 2.843593 -2.447775 0
M  V30 11 C -4.203656 4.345717 -0.719965 0
M  V30 12 C -4.739354 3.798207 0.606134 0
M  V30 13 C -3.639373 0.259605 1.344581 0
M  V30 14 C -2.806130 -0.475154 2.184912 0
M  V30 15 C -2.028299 0.121719 3.183246 0
M  V30 16 N -1.190011 -0.701094 4.022009 0
M  V30 17 C -1.151711 -2.113553 3.751094 0
M  V30 18 N -1.936390 -3.109847 4.206247 0
M  V30 19 C -1.671459 -4.378182 3.772827 0
M  V30 20 C -0.638204 -4.652480 2.896984 0
M  V30 21 C -0.397964 -5.939112 2.475512 0
M  V30 22 C -1.234097 -7.071423 2.948492 0
M  V30 23 C 0.646785 -6.133551 1.600406 0
M  V30 24 C 1.399671 -5.062112 1.184944 0
M  V30 25 O 2.340900 -5.281301 0.387218 0
M  V30 26 N 1.202878 -3.788977 1.569383 0
M  V30 27 C 1.941594 -2.600663 1.192803 0 CFG=1
M  V30 28 C 3.363845 -2.810584 0.839831 0
M  V30 29 C 3.693624 -2.672654 -0.617522 0
M  V30 30 C 3.272820 -1.232854 -0.971281 0 CFG=1
M  V30 31 N 3.734912 -0.953504 -2.318547 0
M  V30 32 C 4.631520 0.103470 -2.634367 0
M  V30 33 O 5.109174 0.898751 -1.774140 0
M  V30 34 C 4.961807 0.191164 -4.081292 0
M  V30 35 C 5.934486 1.338106 -4.324462 0
M  V30 36 C 5.672094 -1.091434 -4.497041 0
M  V30 37 C 3.735677 0.460887 -4.938191 0
M  V30 38 C 1.779662 -1.300193 -0.994210 0
M  V30 39 C 1.125002 -1.819741 0.230239 0
M  V30 40 C 0.156486 -3.616530 2.440986 0
M  V30 41 N -0.144442 -2.382313 2.897352 0
M  V30 42 H -2.058148 3.970164 4.273738 0
M  V30 43 H -1.093497 3.506681 5.747804 0
M  V30 44 H -0.293803 3.791684 4.197501 0
M  V30 45 H -2.975043 3.249701 2.609094 0
M  V30 46 H -4.811069 0.884456 -0.856582 0
M  V30 47 H -6.332081 1.355993 0.086329 0
M  V30 48 H -6.651923 3.253790 -1.168349 0
M  V30 49 H -6.033598 2.076754 -2.357899 0
M  V30 50 H -2.586302 3.235658 -2.074399 0
M  V30 51 H -3.611926 1.774911 -2.240488 0
M  V30 52 H -3.586733 3.069419 -3.533169 0
M  V30 53 H -4.566924 5.397044 -0.840991 0
M  V30 54 H -3.099308 4.304979 -0.689286 0
M  V30 55 H -5.839717 4.035186 0.617400 0
M  V30 56 H -4.199492 4.334216 1.391907 0
M  V30 57 H -4.177569 -0.329793 0.627878 0
M  V30 58 H -2.738252 -1.565219 2.082763 0
M  V30 59 H -0.663670 -0.222943 4.772728 0
M  V30 60 H -2.313457 -5.157218 4.151430 0
M  V30 61 H -2.253309 -6.991392 2.553084 0
M  V30 62 H -1.231141 -7.166060 4.042943 0
M  V30 63 H -0.829150 -8.024917 2.497969 0
M  V30 64 H 0.889031 -7.119903 1.230438 0
M  V30 65 H 1.966980 -2.006406 2.166868 0
M  V30 66 H 4.026310 -2.023286 1.332907 0
M  V30 67 H 3.812078 -3.748425 1.211779 0
M  V30 68 H 4.767329 -2.837773 -0.761259 0
M  V30 69 H 3.139997 -3.306661 -1.303445 0
M  V30 70 H 3.706044 -0.502429 -0.275908 0
M  V30 71 H 3.335173 -1.614102 -3.024371 0
M  V30 72 H 6.289848 1.224674 -5.376514 0
M  V30 73 H 6.821546 1.239207 -3.676032 0
M  V30 74 H 5.469622 2.322676 -4.183612 0
M  V30 75 H 6.155353 -0.945321 -5.498837 0
M  V30 76 H 4.947832 -1.920458 -4.537642 0
M  V30 77 H 6.432585 -1.301075 -3.733017 0
M  V30 78 H 3.558787 1.550005 -5.058015 0
M  V30 79 H 3.944630 0.027713 -5.954521 0
M  V30 80 H 2.827689 -0.011805 -4.543100 0
M  V30 81 H 1.423421 -0.270411 -1.285815 0
M  V30 82 H 1.498641 -1.921851 -1.879354 0
M  V30 83 H 0.220626 -2.389706 -0.078239 0
M  V30 84 H 0.686852 -0.911585 0.740811 0
M  V30 END ATOM
M  V30 BEGIN BOND
M  V30 1 1 1 2
M  V30 2 1 2 3
M  V30 3 2 3 4
M  V30 4 1 4 5
M  V30 5 1 5 6
M  V30 6 1 6 7
M  V30 7 1 7 8
M  V30 8 1 8 9
M  V30 9 1 9 10
M  V30 10 1 9 11
M  V30 11 1 11 12
M  V30 12 2 5 13
M  V30 13 1 13 14
M  V30 14 2 14 15
M  V30 15 1 15 16
M  V30 16 1 16 17
M  V30 17 2 17 18
M  V30 18 1 18 19
M  V30 19 2 19 20
M  V30 20 1 20 21
M  V30 21 1 21 22
M  V30 22 2 21 23
M  V30 23 1 23 24
M  V30 24 2 24 25
M  V30 25 1 24 26
M  V30 26 1 26 27
M  V30 27 1 27 28
M  V30 28 1 28 29
M  V30 29 1 29 30
M  V30 30 1 30 31
M  V30 31 1 31 32
M  V30 32 2 32 33
M  V30 33 1 32 34
M  V30 34 1 34 35
M  V30 35 1 34 36
M  V30 36 1 34 37
M  V30 37 1 30 38
M  V30 38 1 38 39
M  V30 39 1 26 40
M  V30 40 2 40 41
M  V30 41 1 15 3
M  V30 42 1 41 17
M  V30 43 1 12 6
M  V30 44 1 40 20
M  V30 45 1 39 27
M  V30 46 1 1 42
M  V30 47 1 1 43
M  V30 48 1 1 44
M  V30 49 1 4 45
M  V30 50 1 7 46
M  V30 51 1 7 47
M  V30 52 1 8 48
M  V30 53 1 8 49
M  V30 54 1 10 50
M  V30 55 1 10 51
M  V30 56 1 10 52
M  V30 57 1 11 53
M  V30 58 1 11 54
M  V30 59 1 12 55
M  V30 60 1 12 56
M  V30 61 1 13 57
M  V30 62 1 14 58
M  V30 63 1 16 59
M  V30 64 1 19 60
M  V30 65 1 22 61
M  V30 66 1 22 62
M  V30 67 1 22 63
M  V30 68 1 23 64
M  V30 69 1 27 65 CFG=1
M  V30 70 1 28 66
M  V30 71 1 28 67
M  V30 72 1 29 68
M  V30 73 1 29 69
M  V30 74 1 30 70 CFG=1
M  V30 75 1 31 71
M  V30 76 1 35 72
M  V30 77 1 35 73
M  V30 78 1 35 74
M  V30 79 1 36 75
M  V30 80 1 36 76
M  V30 81 1 36 77
M  V30 82 1 37 78
M  V30 83 1 37 79
M  V30 84 1 37 80
M  V30 85 1 38 81
M  V30 86 1 38 82
M  V30 87 1 39 83
M  V30 88 1 39 84
M  V30 END BOND
M  V30 END CTAB
M  END
>  <Dataset>  (812) 
ChEMBL_Kinases

>  <Ligand_Instance>  (812) 
nan

>  <PDB_ID>  (812) 
nan

>  <Standardized_SMILES>  (812) 
COc1cc(N2CCN(C)CC2)ccc1Nc1ncc2c(C)cc(=O)n([C@H]3CC[C@@H](NC(=O)C(C)(C)C)CC3)c2n1

>  <Name>  (812) 
nan

>  <Pocket>  (812) 
nan

>  <ATP_Site>  (812) 
nan

>  <Peripheral>  (812) 
nan

>  <Num_H_Atoms_ProtBoundConf>  (812) 
nan

>  <Num_Resolved_Atoms>  (812) 
nan

>  <Num_Not_Resolved_Atoms>  (812) 
nan

$$$$
CHEMBL4090344
     RDKit          3D

  0  0  0  0  0  0  0  0  0  0999 V3000
M  V30 BEGIN CTAB
M  V30 COUNTS 57 62 0 0 0
M  V30 BEGIN ATOM
M  V30 1 C 5.110071 -3.586004 3.239878 0
M  V30 2 O 3.721732 -3.869397 3.170095 0
M  V30 3 C 2.887074 -2.785164 2.862861 0
M  V30 4 C 3.328941 -1.488185 2.629392 0
M  V30 5 C 2.410134 -0.506701 2.336514 0
M  V30 6 C 1.033427 -0.735205 2.257587 0
M  V30 7 C 0.092003 0.230859 1.961949 0
M  V30 8 N 0.641346 1.511402 1.759170 0
M  V30 9 C 1.164099 2.799378 1.552086 0
M  V30 10 C 0.917137 3.489828 0.252812 0
M  V30 11 C 1.432688 2.833835 -0.945967 0
M  V30 12 C 2.592022 3.277979 -1.590209 0
M  V30 13 N 2.733531 2.441551 -2.629912 0
M  V30 14 C 1.763155 1.510620 -2.693901 0
M  V30 15 C 1.549212 0.477862 -3.604802 0
M  V30 16 C 0.422007 -0.327704 -3.383221 0
M  V30 17 C -0.450324 -0.119569 -2.311932 0
M  V30 18 C -0.182586 0.919437 -1.447951 0
M  V30 19 C 0.905144 1.746531 -1.607112 0
M  V30 20 N -1.198341 -0.195540 1.929120 0
M  V30 21 C -1.576400 -1.441822 2.158807 0
M  V30 22 N -2.987136 -1.495138 2.028476 0
M  V30 23 C -3.581611 -2.253310 0.983403 0
M  V30 24 C -2.719900 -3.074496 0.246078 0
M  V30 25 C -3.272086 -3.820055 -0.771546 0
M  V30 26 C -4.627456 -3.780980 -1.079808 0
M  V30 27 N -5.501256 -4.326425 -1.948228 0
M  V30 28 N -6.735864 -3.884869 -1.756260 0
M  V30 29 C -6.743006 -2.993737 -0.714327 0
M  V30 30 C -5.425318 -2.956163 -0.322327 0
M  V30 31 C -4.940859 -2.182934 0.710214 0
M  V30 32 N -0.610210 -2.310866 2.436541 0
M  V30 33 C 0.688922 -2.040058 2.502222 0
M  V30 34 C 1.520495 -3.082159 2.799783 0
M  V30 35 H 5.717404 -4.512538 3.370658 0
M  V30 36 H 5.406922 -3.035936 2.335356 0
M  V30 37 H 5.301575 -2.904204 4.105251 0
M  V30 38 H 4.379226 -1.304591 2.687463 0
M  V30 39 H 2.791703 0.466212 2.164112 0
M  V30 40 H -0.290699 2.007752 1.562652 0
M  V30 41 H 0.938748 3.542632 2.379262 0
M  V30 42 H 2.308161 2.712735 1.687271 0
M  V30 43 H 1.330801 4.525940 0.332648 0
M  V30 44 H -0.184243 3.651995 0.119526 0
M  V30 45 H 3.241885 4.104134 -1.326301 0
M  V30 46 H 3.522186 2.501745 -3.327902 0
M  V30 47 H 2.208015 0.295212 -4.442989 0
M  V30 48 H 0.290485 -1.130501 -4.127527 0
M  V30 49 H -1.302151 -0.777078 -2.196630 0
M  V30 50 H -0.820531 1.129998 -0.606489 0
M  V30 51 H -3.591715 -0.973255 2.704173 0
M  V30 52 H -1.669354 -3.156492 0.426458 0
M  V30 53 H -2.708489 -4.506043 -1.424790 0
M  V30 54 H -5.161767 -5.022129 -2.673940 0
M  V30 55 H -7.650353 -2.506579 -0.386358 0
M  V30 56 H -5.479807 -1.520406 1.344234 0
M  V30 57 H 1.123224 -4.085155 2.975466 0
M  V30 END ATOM
M  V30 BEGIN BOND
M  V30 1 1 1 2
M  V30 2 1 2 3
M  V30 3 2 3 4
M  V30 4 1 4 5
M  V30 5 2 5 6
M  V30 6 1 6 7
M  V30 7 1 7 8
M  V30 8 1 8 9
M  V30 9 1 9 10
M  V30 10 1 10 11
M  V30 11 2 11 12
M  V30 12 1 12 13
M  V30 13 1 13 14
M  V30 14 2 14 15
M  V30 15 1 15 16
M  V30 16 2 16 17
M  V30 17 1 17 18
M  V30 18 2 18 19
M  V30 19 2 7 20
M  V30 20 1 20 21
M  V30 21 1 21 22
M  V30 22 1 22 23
M  V30 23 2 23 24
M  V30 24 1 24 25
M  V30 25 2 25 26
M  V30 26 1 26 27
M  V30 27 1 27 28
M  V30 28 2 28 29
M  V30 29 1 29 30
M  V30 30 2 30 31
M  V30 31 2 21 32
M  V30 32 1 32 33
M  V30 33 2 33 34
M  V30 34 1 34 3
M  V30 35 1 33 6
M  V30 36 1 19 11
M  V30 37 1 31 23
M  V30 38 1 19 14
M  V30 39 1 30 26
M  V30 40 1 1 35
M  V30 41 1 1 36
M  V30 42 1 1 37
M  V30 43 1 4 38
M  V30 44 1 5 39
M  V30 45 1 8 40
M  V30 46 1 9 41
M  V30 47 1 9 42
M  V30 48 1 10 43
M  V30 49 1 10 44
M  V30 50 1 12 45
M  V30 51 1 13 46
M  V30 52 1 15 47
M  V30 53 1 16 48
M  V30 54 1 17 49
M  V30 55 1 18 50
M  V30 56 1 22 51
M  V30 57 1 24 52
M  V30 58 1 25 53
M  V30 59 1 27 54
M  V30 60 1 29 55
M  V30 61 1 31 56
M  V30 62 1 34 57
M  V30 END BOND
M  V30 END CTAB
M  END
>  <Dataset>  (813) 
ChEMBL_Kinases

>  <Ligand_Instance>  (813) 
nan

>  <PDB_ID>  (813) 
nan

>  <Standardized_SMILES>  (813) 
COc1ccc2c(NCCc3c[nH]c4ccccc34)nc(Nc3ccc4[nH]ncc4c3)nc2c1

>  <Name>  (813) 
nan

>  <Pocket>  (813) 
nan

>  <ATP_Site>  (813) 
nan

>  <Peripheral>  (813) 
nan

>  <Num_H_Atoms_ProtBoundConf>  (813) 
nan

>  <Num_Resolved_Atoms>  (813) 
nan

>  <Num_Not_Resolved_Atoms>  (813) 
nan

$$$$
CHEMBL4090315
     RDKit          3D

  0  0  0  0  0  0  0  0  0  0999 V3000
M  V30 BEGIN CTAB
M  V30 COUNTS 28 30 0 0 0
M  V30 BEGIN ATOM
M  V30 1 C 0.526414 -3.614207 -2.298907 0
M  V30 2 S 1.632593 -2.168311 -2.115948 0
M  V30 3 C 1.531807 -1.658992 -0.420540 0
M  V30 4 S 2.577394 -2.255926 0.922050 0
M  V30 5 C 1.821724 -1.267542 2.201703 0
M  V30 6 C 2.315786 -1.374413 3.543870 0
M  V30 7 N 1.716231 -0.588731 4.565768 0
M  V30 8 O 3.263803 -2.146611 3.827751 0
M  V30 9 C 0.842886 -0.557123 1.557170 0
M  V30 10 C 0.693201 -0.757589 0.209981 0
M  V30 11 C -0.340848 -0.012381 -0.493214 0
M  V30 12 N -0.790361 0.072685 -1.755320 0
M  V30 13 N -1.791079 0.930164 -1.880876 0
M  V30 14 C -2.055026 1.470088 -0.653753 0
M  V30 15 C -1.142013 0.869829 0.192319 0
M  V30 16 C -1.021080 1.119266 1.625318 0
M  V30 17 C 0.017927 0.374164 2.359392 0
M  V30 18 H -0.318796 -3.542293 -1.556372 0
M  V30 19 H 0.066704 -3.599648 -3.315941 0
M  V30 20 H 1.053149 -4.564835 -2.126278 0
M  V30 21 H 2.340309 0.248629 4.453782 0
M  V30 22 H 1.209334 -0.108088 5.324185 0
M  V30 23 H -0.394500 -0.476273 -2.548494 0
M  V30 24 H -2.834376 2.204973 -0.482071 0
M  V30 25 H -2.042428 1.033165 2.109192 0
M  V30 26 H -0.813133 2.228778 1.724760 0
M  V30 27 H 0.658702 1.093458 2.958932 0
M  V30 28 H -0.518719 -0.205220 3.174150 0
M  V30 END ATOM
M  V30 BEGIN BOND
M  V30 1 1 1 2
M  V30 2 1 2 3
M  V30 3 1 3 4
M  V30 4 1 4 5
M  V30 5 1 5 6
M  V30 6 1 6 7
M  V30 7 2 6 8
M  V30 8 2 5 9
M  V30 9 1 9 10
M  V30 10 1 10 11
M  V30 11 1 11 12
M  V30 12 1 12 13
M  V30 13 2 13 14
M  V30 14 1 14 15
M  V30 15 1 15 16
M  V30 16 1 16 17
M  V30 17 2 10 3
M  V30 18 2 15 11
M  V30 19 1 17 9
M  V30 20 1 1 18
M  V30 21 1 1 19
M  V30 22 1 1 20
M  V30 23 1 7 21
M  V30 24 1 7 22
M  V30 25 1 12 23
M  V30 26 1 14 24
M  V30 27 1 16 25
M  V30 28 1 16 26
M  V30 29 1 17 27
M  V30 30 1 17 28
M  V30 END BOND
M  V30 END CTAB
M  END
>  <Dataset>  (814) 
ChEMBL_Kinases

>  <Ligand_Instance>  (814) 
nan

>  <PDB_ID>  (814) 
nan

>  <Standardized_SMILES>  (814) 
CSc1sc(C(N)=O)c2c1-c1[nH]ncc1CC2

>  <Name>  (814) 
nan

>  <Pocket>  (814) 
nan

>  <ATP_Site>  (814) 
nan

>  <Peripheral>  (814) 
nan

>  <Num_H_Atoms_ProtBoundConf>  (814) 
nan

>  <Num_Resolved_Atoms>  (814) 
nan

>  <Num_Not_Resolved_Atoms>  (814) 
nan

$$$$
CHEMBL4846111
     RDKit          3D

  0  0  0  0  0  0  0  0  0  0999 V3000
M  V30 BEGIN CTAB
M  V30 COUNTS 46 49 0 0 0
M  V30 BEGIN ATOM
M  V30 1 O 1.754683 -3.123874 2.691873 0
M  V30 2 S 1.285218 -1.718806 2.949818 0
M  V30 3 O 1.249525 -1.554845 4.438956 0
M  V30 4 N 2.417728 -0.645116 2.274625 0
M  V30 5 C 2.330067 0.772980 2.339497 0
M  V30 6 C 2.569696 1.550234 1.218381 0
M  V30 7 C 2.514983 2.922107 1.160226 0
M  V30 8 C 2.793601 3.652951 -0.108206 0
M  V30 9 F 1.895901 4.661113 -0.355943 0
M  V30 10 F 2.699433 2.736389 -1.155569 0
M  V30 11 F 4.096072 4.154595 -0.086018 0
M  V30 12 C 2.189118 3.595273 2.334008 0
M  V30 13 C 1.946455 2.861729 3.458458 0
M  V30 14 C 1.598134 3.607560 4.707762 0
M  V30 15 F 1.025232 2.771439 5.626495 0
M  V30 16 F 0.695879 4.587066 4.378994 0
M  V30 17 F 2.739099 4.222931 5.197355 0
M  V30 18 C 2.006443 1.491442 3.495085 0
M  V30 19 C -0.314727 -1.575479 2.293228 0
M  V30 20 C -1.283821 -0.717503 2.823716 0
M  V30 21 C -2.554495 -0.610181 2.294439 0
M  V30 22 C -2.910475 -1.381002 1.182209 0
M  V30 23 C -1.963921 -2.250507 0.626164 0
M  V30 24 C -2.349630 -3.049910 -0.535719 0
M  V30 25 N -3.500019 -3.740958 -0.706184 0
M  V30 26 N -3.510615 -4.348602 -1.877927 0
M  V30 27 C -2.352829 -4.061425 -2.501007 0
M  V30 28 C -1.819249 -4.411793 -3.727632 0
M  V30 29 C -0.574906 -3.973822 -4.145654 0
M  V30 30 F -0.025498 -4.300986 -5.343281 0
M  V30 31 C 0.198006 -3.146147 -3.323944 0
M  V30 32 C -0.351864 -2.809862 -2.108095 0
M  V30 33 C -1.589636 -3.236038 -1.673821 0
M  V30 34 C -0.707475 -2.317403 1.196728 0
M  V30 35 H 3.279158 -0.958322 1.751552 0
M  V30 36 H 2.826432 1.034247 0.290714 0
M  V30 37 H 2.148463 4.678242 2.277877 0
M  V30 38 H 1.812274 0.913984 4.392902 0
M  V30 39 H -0.998508 -0.125950 3.683562 0
M  V30 40 H -3.301422 0.056608 2.709927 0
M  V30 41 H -3.897589 -1.315006 0.750131 0
M  V30 42 H -4.256151 -4.959279 -2.305290 0
M  V30 43 H -2.367674 -5.056045 -4.421550 0
M  V30 44 H 1.172746 -2.776381 -3.599447 0
M  V30 45 H 0.236555 -2.171171 -1.465896 0
M  V30 46 H 0.037900 -2.980946 0.784402 0
M  V30 END ATOM
M  V30 BEGIN BOND
M  V30 1 2 1 2
M  V30 2 2 2 3
M  V30 3 1 2 4
M  V30 4 1 4 5
M  V30 5 2 5 6
M  V30 6 1 6 7
M  V30 7 1 7 8
M  V30 8 1 8 9
M  V30 9 1 8 10
M  V30 10 1 8 11
M  V30 11 2 7 12
M  V30 12 1 12 13
M  V30 13 1 13 14
M  V30 14 1 14 15
M  V30 15 1 14 16
M  V30 16 1 14 17
M  V30 17 2 13 18
M  V30 18 1 2 19
M  V30 19 2 19 20
M  V30 20 1 20 21
M  V30 21 2 21 22
M  V30 22 1 22 23
M  V30 23 1 23 24
M  V30 24 2 24 25
M  V30 25 1 25 26
M  V30 26 1 26 27
M  V30 27 2 27 28
M  V30 28 1 28 29
M  V30 29 1 29 30
M  V30 30 2 29 31
M  V30 31 1 31 32
M  V30 32 2 32 33
M  V30 33 2 23 34
M  V30 34 1 18 5
M  V30 35 1 34 19
M  V30 36 1 33 24
M  V30 37 1 33 27
M  V30 38 1 4 35
M  V30 39 1 6 36
M  V30 40 1 12 37
M  V30 41 1 18 38
M  V30 42 1 20 39
M  V30 43 1 21 40
M  V30 44 1 22 41
M  V30 45 1 26 42
M  V30 46 1 28 43
M  V30 47 1 31 44
M  V30 48 1 32 45
M  V30 49 1 34 46
M  V30 END BOND
M  V30 END CTAB
M  END
>  <Dataset>  (815) 
ChEMBL_Kinases

>  <Ligand_Instance>  (815) 
nan

>  <PDB_ID>  (815) 
nan

>  <Standardized_SMILES>  (815) 
O=S(=O)(Nc1cc(C(F)(F)F)cc(C(F)(F)F)c1)c1cccc(-c2n[nH]c3cc(F)ccc23)c1

>  <Name>  (815) 
nan

>  <Pocket>  (815) 
nan

>  <ATP_Site>  (815) 
nan

>  <Peripheral>  (815) 
nan

>  <Num_H_Atoms_ProtBoundConf>  (815) 
nan

>  <Num_Resolved_Atoms>  (815) 
nan

>  <Num_Not_Resolved_Atoms>  (815) 
nan

$$$$
CHEMBL4090268
     RDKit          3D

  0  0  0  0  0  0  0  0  0  0999 V3000
M  V30 BEGIN CTAB
M  V30 COUNTS 54 58 0 0 0
M  V30 BEGIN ATOM
M  V30 1 C -0.267521 -0.621728 -3.953287 0
M  V30 2 C -0.366816 -1.867285 -3.091625 0
M  V30 3 C 0.050353 -1.502014 -1.694899 0
M  V30 4 N 0.188885 -2.652652 -0.829211 0
M  V30 5 C -0.294116 -2.938651 0.475060 0
M  V30 6 O -0.055408 -4.024679 1.066783 0
M  V30 7 C -1.109594 -2.075630 1.322981 0
M  V30 8 N -0.733949 -0.790171 1.541363 0
M  V30 9 C -1.530005 -0.054324 2.335237 0
M  V30 10 N -1.154699 1.294002 2.569480 0
M  V30 11 C -0.018293 1.966133 2.037796 0
M  V30 12 C 1.279673 2.114972 2.479316 0
M  V30 13 C 2.017804 2.869144 1.599925 0
M  V30 14 C 3.455409 3.187601 1.831172 0
M  V30 15 C 3.922552 3.257235 3.282830 0
M  V30 16 C 4.295843 2.063200 2.486070 0
M  V30 17 N 1.161314 3.182053 0.616785 0
M  V30 18 N -0.036076 2.658812 0.861173 0
M  V30 19 C -2.679656 -0.519371 2.926728 0
M  V30 20 C -3.513344 0.208937 3.742179 0
M  V30 21 C -4.655915 -0.325223 4.304113 0
M  V30 22 Cl -5.649015 0.684189 5.328558 0
M  V30 23 C -4.968025 -1.650198 4.030129 0
M  V30 24 C -4.158345 -2.419036 3.214882 0
M  V30 25 C -3.025346 -1.829996 2.679422 0
M  V30 26 N -2.241041 -2.580195 1.887928 0
M  V30 27 C 0.985719 -3.677156 -1.473178 0
M  V30 28 C 0.261520 -4.073555 -2.747950 0
M  V30 29 C 0.825128 -5.353708 -3.319477 0
M  V30 30 N 0.401154 -2.960491 -3.656994 0
M  V30 31 H 0.791553 -0.400066 -4.203039 0
M  V30 32 H -0.915765 -0.764714 -4.829389 0
M  V30 33 H -0.648749 0.265661 -3.408299 0
M  V30 34 H -1.428501 -2.186864 -3.145414 0
M  V30 35 H 1.067002 -1.037063 -1.786709 0
M  V30 36 H -0.690435 -0.777530 -1.309325 0
M  V30 37 H -1.588300 2.046222 3.140791 0
M  V30 38 H 1.601656 1.666913 3.410575 0
M  V30 39 H 3.979983 3.848441 1.129714 0
M  V30 40 H 3.114331 3.141213 4.061178 0
M  V30 41 H 4.706240 3.951630 3.587239 0
M  V30 42 H 3.771910 1.091080 2.598699 0
M  V30 43 H 5.373031 1.998549 2.202723 0
M  V30 44 H 1.443097 3.759293 -0.203557 0
M  V30 45 H -3.255273 1.230759 3.940560 0
M  V30 46 H -5.881764 -1.979700 4.513989 0
M  V30 47 H -4.480785 -3.432701 3.056790 0
M  V30 48 H 1.973784 -3.195424 -1.729149 0
M  V30 49 H 1.167715 -4.543555 -0.817665 0
M  V30 50 H -0.808521 -4.179453 -2.504047 0
M  V30 51 H 1.353970 -5.864651 -2.506623 0
M  V30 52 H 1.467564 -5.079586 -4.186734 0
M  V30 53 H -0.009606 -5.981097 -3.686291 0
M  V30 54 H 1.398627 -2.671022 -3.770605 0
M  V30 END ATOM
M  V30 BEGIN BOND
M  V30 1 1 1 2
M  V30 2 1 2 3
M  V30 3 1 3 4
M  V30 4 1 4 5
M  V30 5 2 5 6
M  V30 6 1 5 7
M  V30 7 2 7 8
M  V30 8 1 8 9
M  V30 9 1 9 10
M  V30 10 1 10 11
M  V30 11 1 11 12
M  V30 12 2 12 13
M  V30 13 1 13 14
M  V30 14 1 14 15
M  V30 15 1 15 16
M  V30 16 1 13 17
M  V30 17 1 17 18
M  V30 18 2 9 19
M  V30 19 1 19 20
M  V30 20 2 20 21
M  V30 21 1 21 22
M  V30 22 1 21 23
M  V30 23 2 23 24
M  V30 24 1 24 25
M  V30 25 2 25 26
M  V30 26 1 4 27
M  V30 27 1 27 28
M  V30 28 1 28 29
M  V30 29 1 28 30
M  V30 30 1 30 2
M  V30 31 1 26 7
M  V30 32 2 18 11
M  V30 33 1 25 19
M  V30 34 1 16 14
M  V30 35 1 1 31
M  V30 36 1 1 32
M  V30 37 1 1 33
M  V30 38 1 2 34
M  V30 39 1 3 35
M  V30 40 1 3 36
M  V30 41 1 10 37
M  V30 42 1 12 38
M  V30 43 1 14 39
M  V30 44 1 15 40
M  V30 45 1 15 41
M  V30 46 1 16 42
M  V30 47 1 16 43
M  V30 48 1 17 44
M  V30 49 1 20 45
M  V30 50 1 23 46
M  V30 51 1 24 47
M  V30 52 1 27 48
M  V30 53 1 27 49
M  V30 54 1 28 50
M  V30 55 1 29 51
M  V30 56 1 29 52
M  V30 57 1 29 53
M  V30 58 1 30 54
M  V30 END BOND
M  V30 END CTAB
M  END
>  <Dataset>  (816) 
ChEMBL_Kinases

>  <Ligand_Instance>  (816) 
nan

>  <PDB_ID>  (816) 
nan

>  <Standardized_SMILES>  (816) 
CC1CN(C(=O)c2nc(Nc3cc(C4CC4)[nH]n3)c3cc(Cl)ccc3n2)CC(C)N1

>  <Name>  (816) 
nan

>  <Pocket>  (816) 
nan

>  <ATP_Site>  (816) 
nan

>  <Peripheral>  (816) 
nan

>  <Num_H_Atoms_ProtBoundConf>  (816) 
nan

>  <Num_Resolved_Atoms>  (816) 
nan

>  <Num_Not_Resolved_Atoms>  (816) 
nan

$$$$
CHEMBL4846164
     RDKit          3D

  0  0  0  0  0  0  0  0  0  0999 V3000
M  V30 BEGIN CTAB
M  V30 COUNTS 53 57 0 0 0
M  V30 BEGIN ATOM
M  V30 1 O -0.706415 -4.390619 -0.066984 0
M  V30 2 C -1.091534 -3.295492 -0.598593 0
M  V30 3 C -0.453477 -2.204928 -1.341795 0
M  V30 4 C -0.620623 -2.353173 -2.686822 0
M  V30 5 C -0.041988 -1.375941 -3.506078 0
M  V30 6 C 0.646497 -0.346222 -2.914316 0
M  V30 7 C 0.825758 -0.179150 -1.565222 0
M  V30 8 C 1.586409 0.920785 -0.995944 0
M  V30 9 C 2.166219 1.806657 -1.877982 0
M  V30 10 C 2.938425 2.892132 -1.480435 0
M  V30 11 C 3.143934 3.104687 -0.109545 0
M  V30 12 N 3.882841 4.145128 0.292317 0
M  V30 13 C 4.070531 4.341672 1.603124 0
M  V30 14 N 3.494044 3.466422 2.421117 0
M  V30 15 C 2.751061 2.415461 2.074981 0
M  V30 16 N 2.205094 1.619230 3.097724 0
M  V30 17 C 1.497340 0.431443 3.286221 0
M  V30 18 C 1.821018 -0.767747 2.688809 0
M  V30 19 C 1.086266 -1.949372 2.868694 0
M  V30 20 C -0.009039 -1.860227 3.695239 0
M  V30 21 C -0.430515 -0.726512 4.344748 0
M  V30 22 C 0.358588 0.366931 4.097917 0
M  V30 23 C 2.539429 2.187584 0.729451 0
M  V30 24 N 1.798144 1.148022 0.313207 0
M  V30 25 C 0.243495 -1.156462 -0.787159 0
M  V30 26 N -2.483203 -3.283851 -0.315690 0
M  V30 27 C -3.062958 -4.409827 0.420621 0
M  V30 28 C -3.845977 -3.808657 1.559001 0
M  V30 29 N -3.510255 -2.417680 1.776906 0
M  V30 30 C -3.842871 -1.588764 0.641154 0
M  V30 31 C -3.490070 -2.268033 -0.655562 0
M  V30 32 H -1.154287 -3.147713 -3.196160 0
M  V30 33 H -0.146706 -1.448584 -4.592746 0
M  V30 34 H 1.053290 0.353861 -3.624478 0
M  V30 35 H 2.124226 1.812987 -2.965680 0
M  V30 36 H 3.412421 3.612773 -2.135642 0
M  V30 37 H 4.659959 5.168975 1.973435 0
M  V30 38 H 2.342359 1.977008 4.089632 0
M  V30 39 H 2.684793 -0.834405 2.042395 0
M  V30 40 H 1.352100 -2.880663 2.395145 0
M  V30 41 H -0.588069 -2.775453 3.840960 0
M  V30 42 H -1.276224 -0.631691 4.988393 0
M  V30 43 H 0.099964 1.324041 4.573786 0
M  V30 44 H 0.309659 -1.127342 0.270432 0
M  V30 45 H -2.327207 -5.160163 0.698169 0
M  V30 46 H -3.826538 -4.867265 -0.263347 0
M  V30 47 H -4.943053 -3.948954 1.450938 0
M  V30 48 H -3.553718 -4.355032 2.487226 0
M  V30 49 H -2.511107 -2.343152 2.050040 0
M  V30 50 H -4.889402 -1.238236 0.658138 0
M  V30 51 H -3.232622 -0.647681 0.771197 0
M  V30 52 H -3.091902 -1.555690 -1.403475 0
M  V30 53 H -4.378039 -2.765098 -1.049859 0
M  V30 END ATOM
M  V30 BEGIN BOND
M  V30 1 2 1 2
M  V30 2 1 2 3
M  V30 3 2 3 4
M  V30 4 1 4 5
M  V30 5 2 5 6
M  V30 6 1 6 7
M  V30 7 1 7 8
M  V30 8 2 8 9
M  V30 9 1 9 10
M  V30 10 2 10 11
M  V30 11 1 11 12
M  V30 12 2 12 13
M  V30 13 1 13 14
M  V30 14 2 14 15
M  V30 15 1 15 16
M  V30 16 1 16 17
M  V30 17 2 17 18
M  V30 18 1 18 19
M  V30 19 2 19 20
M  V30 20 1 20 21
M  V30 21 2 21 22
M  V30 22 1 15 23
M  V30 23 2 23 24
M  V30 24 2 7 25
M  V30 25 1 2 26
M  V30 26 1 26 27
M  V30 27 1 27 28
M  V30 28 1 28 29
M  V30 29 1 29 30
M  V30 30 1 30 31
M  V30 31 1 25 3
M  V30 32 1 31 26
M  V30 33 1 24 8
M  V30 34 1 23 11
M  V30 35 1 22 17
M  V30 36 1 4 32
M  V30 37 1 5 33
M  V30 38 1 6 34
M  V30 39 1 9 35
M  V30 40 1 10 36
M  V30 41 1 13 37
M  V30 42 1 16 38
M  V30 43 1 18 39
M  V30 44 1 19 40
M  V30 45 1 20 41
M  V30 46 1 21 42
M  V30 47 1 22 43
M  V30 48 1 25 44
M  V30 49 1 27 45
M  V30 50 1 27 46
M  V30 51 1 28 47
M  V30 52 1 28 48
M  V30 53 1 29 49
M  V30 54 1 30 50
M  V30 55 1 30 51
M  V30 56 1 31 52
M  V30 57 1 31 53
M  V30 END BOND
M  V30 END CTAB
M  END
>  <Dataset>  (817) 
ChEMBL_Kinases

>  <Ligand_Instance>  (817) 
nan

>  <PDB_ID>  (817) 
nan

>  <Standardized_SMILES>  (817) 
O=C(c1cccc(-c2ccc3ncnc(Nc4ccccc4)c3n2)c1)N1CCNCC1

>  <Name>  (817) 
nan

>  <Pocket>  (817) 
nan

>  <ATP_Site>  (817) 
nan

>  <Peripheral>  (817) 
nan

>  <Num_H_Atoms_ProtBoundConf>  (817) 
nan

>  <Num_Resolved_Atoms>  (817) 
nan

>  <Num_Not_Resolved_Atoms>  (817) 
nan

$$$$
CHEMBL4846282
     RDKit          3D

  0  0  0  0  0  0  0  0  0  0999 V3000
M  V30 BEGIN CTAB
M  V30 COUNTS 50 53 0 0 0
M  V30 BEGIN ATOM
M  V30 1 C -0.521935 -0.585769 -3.299392 0
M  V30 2 C 0.768925 -1.278617 -3.676214 0
M  V30 3 C 1.440425 -1.898216 -2.493394 0
M  V30 4 C 0.918360 -1.831834 -1.220960 0
M  V30 5 C 1.826645 -2.517611 -0.444486 0
M  V30 6 N 1.767475 -2.749903 0.955628 0
M  V30 7 C 0.733249 -2.287047 1.814604 0
M  V30 8 N 0.806551 -1.108517 2.479898 0
M  V30 9 C -0.147341 -0.637792 3.301235 0
M  V30 10 N 0.145417 0.618057 3.891477 0
M  V30 11 C -0.008824 2.044200 3.689066 0
M  V30 12 C 0.615188 2.494992 2.413081 0
M  V30 13 C 1.855716 3.142638 2.462898 0
M  V30 14 C 2.489751 3.578326 1.319602 0
M  V30 15 C 1.875248 3.364153 0.102554 0
M  V30 16 Cl 2.551180 3.858747 -1.446783 0
M  V30 17 C 0.638954 2.723434 0.002779 0
M  V30 18 C 0.009738 2.288558 1.167649 0
M  V30 19 O -1.202505 1.644981 1.246009 0
M  V30 20 C -2.033291 1.305093 0.169206 0
M  V30 21 N -1.283185 -1.356908 3.511756 0
M  V30 22 C -1.450862 -2.557775 2.886429 0
M  V30 23 C -2.600402 -3.289814 3.096925 0
M  V30 24 C -2.687233 -4.496377 2.422464 0
M  V30 25 C -1.707706 -4.978399 1.579669 0
M  V30 26 C -0.559897 -4.206635 1.393957 0
M  V30 27 C -0.434397 -2.984949 2.055963 0
M  V30 28 N 2.828521 -2.962432 -1.220947 0
M  V30 29 N 2.610273 -2.592959 -2.482055 0
M  V30 30 H -0.458914 0.000263 -2.368609 0
M  V30 31 H -0.809796 0.107653 -4.115185 0
M  V30 32 H -1.360885 -1.315243 -3.171470 0
M  V30 33 H 0.514438 -2.074027 -4.408064 0
M  V30 34 H 1.436280 -0.531105 -4.181428 0
M  V30 35 H 0.021984 -1.379648 -0.809730 0
M  V30 36 H 2.494438 -3.288329 1.467027 0
M  V30 37 H 0.638148 0.236273 4.755595 0
M  V30 38 H -1.094018 2.247241 3.593846 0
M  V30 39 H 0.480051 2.551127 4.524046 0
M  V30 40 H 2.384907 3.335777 3.408026 0
M  V30 41 H 3.446809 4.082369 1.317137 0
M  V30 42 H 0.128807 2.538365 -0.922667 0
M  V30 43 H -3.046902 1.776943 0.253939 0
M  V30 44 H -1.601025 1.475586 -0.830008 0
M  V30 45 H -2.235945 0.201074 0.254764 0
M  V30 46 H -3.387916 -2.935489 3.753807 0
M  V30 47 H -3.559913 -5.135613 2.531767 0
M  V30 48 H -1.769169 -5.918748 1.049725 0
M  V30 49 H 0.229627 -4.575611 0.725961 0
M  V30 50 H 3.206475 -2.781919 -3.337834 0
M  V30 END ATOM
M  V30 BEGIN BOND
M  V30 1 1 1 2
M  V30 2 1 2 3
M  V30 3 2 3 4
M  V30 4 1 4 5
M  V30 5 1 5 6
M  V30 6 1 6 7
M  V30 7 2 7 8
M  V30 8 1 8 9
M  V30 9 1 9 10
M  V30 10 1 10 11
M  V30 11 1 11 12
M  V30 12 2 12 13
M  V30 13 1 13 14
M  V30 14 2 14 15
M  V30 15 1 15 16
M  V30 16 1 15 17
M  V30 17 2 17 18
M  V30 18 1 18 19
M  V30 19 1 19 20
M  V30 20 2 9 21
M  V30 21 1 21 22
M  V30 22 2 22 23
M  V30 23 1 23 24
M  V30 24 2 24 25
M  V30 25 1 25 26
M  V30 26 2 26 27
M  V30 27 2 5 28
M  V30 28 1 28 29
M  V30 29 1 29 3
M  V30 30 1 27 7
M  V30 31 1 18 12
M  V30 32 1 27 22
M  V30 33 1 1 30
M  V30 34 1 1 31
M  V30 35 1 1 32
M  V30 36 1 2 33
M  V30 37 1 2 34
M  V30 38 1 4 35
M  V30 39 1 6 36
M  V30 40 1 10 37
M  V30 41 1 11 38
M  V30 42 1 11 39
M  V30 43 1 13 40
M  V30 44 1 14 41
M  V30 45 1 17 42
M  V30 46 1 20 43
M  V30 47 1 20 44
M  V30 48 1 20 45
M  V30 49 1 23 46
M  V30 50 1 24 47
M  V30 51 1 25 48
M  V30 52 1 26 49
M  V30 53 1 29 50
M  V30 END BOND
M  V30 END CTAB
M  END
>  <Dataset>  (818) 
ChEMBL_Kinases

>  <Ligand_Instance>  (818) 
nan

>  <PDB_ID>  (818) 
nan

>  <Standardized_SMILES>  (818) 
CCc1cc(Nc2nc(NCc3ccc(Cl)cc3OC)nc3ccccc23)n[nH]1

>  <Name>  (818) 
nan

>  <Pocket>  (818) 
nan

>  <ATP_Site>  (818) 
nan

>  <Peripheral>  (818) 
nan

>  <Num_H_Atoms_ProtBoundConf>  (818) 
nan

>  <Num_Resolved_Atoms>  (818) 
nan

>  <Num_Not_Resolved_Atoms>  (818) 
nan

$$$$
CHEMBL4090116
     RDKit          3D

  0  0  0  0  0  0  0  0  0  0999 V3000
M  V30 BEGIN CTAB
M  V30 COUNTS 38 40 0 0 0
M  V30 BEGIN ATOM
M  V30 1 O 1.649785 0.197944 -2.418968 0
M  V30 2 C 0.924042 -0.101524 -1.429531 0
M  V30 3 N 1.144207 -1.450686 -1.087220 0
M  V30 4 C 2.060358 -2.268186 -1.802832 0
M  V30 5 C 2.255480 -3.586339 -1.445311 0
M  V30 6 N 3.117066 -4.421492 -2.088745 0
M  V30 7 C 3.829547 -3.939440 -3.143528 0
M  V30 8 C 3.656369 -2.624803 -3.525340 0
M  V30 9 N 2.789607 -1.846621 -2.850400 0
M  V30 10 C 0.023920 0.847626 -0.791520 0
M  V30 11 C 0.048351 2.117433 -1.387359 0
M  V30 12 C -0.726469 3.159700 -0.939064 0
M  V30 13 Br -0.659669 4.868389 -1.780832 0
M  V30 14 C -1.575379 2.996882 0.134687 0
M  V30 15 C -1.578301 1.740250 0.699219 0
M  V30 16 C -0.819694 0.665769 0.284559 0
M  V30 17 O -0.819173 -0.553842 0.828164 0
M  V30 18 C -1.427058 -1.213548 1.842389 0
M  V30 19 C -1.270834 -0.755732 3.213109 0
M  V30 20 C -0.156788 -1.235243 3.878140 0
M  V30 21 C 0.171438 -0.932400 5.183013 0
M  V30 22 C -0.652660 -0.089853 5.909111 0
M  V30 23 C -1.767547 0.404168 5.279474 0
M  V30 24 C -2.061562 0.079084 3.976773 0
M  V30 25 H 0.628083 -1.844990 -0.302644 0
M  V30 26 H 1.716799 -4.040141 -0.608056 0
M  V30 27 H 4.524321 -4.569710 -3.681647 0
M  V30 28 H 4.216434 -2.201668 -4.374213 0
M  V30 29 H 0.687724 2.361201 -2.250190 0
M  V30 30 H -2.199308 3.793902 0.514554 0
M  V30 31 H -2.248369 1.622826 1.538248 0
M  V30 32 H -1.144745 -2.304421 1.805091 0
M  V30 33 H -2.541420 -1.235576 1.623902 0
M  V30 34 H 0.559721 -1.901680 3.411884 0
M  V30 35 H 1.046654 -1.316779 5.686438 0
M  V30 36 H -0.515165 0.225567 6.926130 0
M  V30 37 H -2.470679 1.077747 5.785878 0
M  V30 38 H -2.940367 0.455054 3.468816 0
M  V30 END ATOM
M  V30 BEGIN BOND
M  V30 1 2 1 2
M  V30 2 1 2 3
M  V30 3 1 3 4
M  V30 4 2 4 5
M  V30 5 1 5 6
M  V30 6 2 6 7
M  V30 7 1 7 8
M  V30 8 2 8 9
M  V30 9 1 2 10
M  V30 10 2 10 11
M  V30 11 1 11 12
M  V30 12 1 12 13
M  V30 13 2 12 14
M  V30 14 1 14 15
M  V30 15 2 15 16
M  V30 16 1 16 17
M  V30 17 1 17 18
M  V30 18 1 18 19
M  V30 19 2 19 20
M  V30 20 1 20 21
M  V30 21 2 21 22
M  V30 22 1 22 23
M  V30 23 2 23 24
M  V30 24 1 9 4
M  V30 25 1 16 10
M  V30 26 1 24 19
M  V30 27 1 3 25
M  V30 28 1 5 26
M  V30 29 1 7 27
M  V30 30 1 8 28
M  V30 31 1 11 29
M  V30 32 1 14 30
M  V30 33 1 15 31
M  V30 34 1 18 32
M  V30 35 1 18 33
M  V30 36 1 20 34
M  V30 37 1 21 35
M  V30 38 1 22 36
M  V30 39 1 23 37
M  V30 40 1 24 38
M  V30 END BOND
M  V30 END CTAB
M  END
>  <Dataset>  (819) 
ChEMBL_Kinases

>  <Ligand_Instance>  (819) 
nan

>  <PDB_ID>  (819) 
nan

>  <Standardized_SMILES>  (819) 
O=C(Nc1cnccn1)c1cc(Br)ccc1OCc1ccccc1

>  <Name>  (819) 
nan

>  <Pocket>  (819) 
nan

>  <ATP_Site>  (819) 
nan

>  <Peripheral>  (819) 
nan

>  <Num_H_Atoms_ProtBoundConf>  (819) 
nan

>  <Num_Resolved_Atoms>  (819) 
nan

>  <Num_Not_Resolved_Atoms>  (819) 
nan

$$$$
CHEMBL4090044
     RDKit          3D

  0  0  0  0  0  0  0  0  0  0999 V3000
M  V30 BEGIN CTAB
M  V30 COUNTS 40 42 0 0 0
M  V30 BEGIN ATOM
M  V30 1 C -0.155109 -1.884090 3.737978 0
M  V30 2 C 0.585106 -2.390667 2.555989 0 CFG=1
M  V30 3 C 0.305895 -3.875778 2.325901 0
M  V30 4 N 1.425897 -4.401319 1.554745 0
M  V30 5 C 1.961752 -3.385912 0.665688 0
M  V30 6 C 0.845595 -2.476605 0.165370 0
M  V30 7 N 0.285321 -1.726400 1.303635 0
M  V30 8 C -0.404877 -0.547783 0.845963 0
M  V30 9 N 0.403521 0.331464 0.200556 0
M  V30 10 C -0.039547 1.504012 -0.309166 0
M  V30 11 C 0.840120 2.427619 -0.994922 0
M  V30 12 C 0.405570 3.626018 -1.520310 0
M  V30 13 C 1.335817 4.432655 -2.155767 0
M  V30 14 N 2.659640 4.133701 -2.305831 0
M  V30 15 C 3.049712 2.942262 -1.775259 0
M  V30 16 C 2.167172 2.094398 -1.128681 0
M  V30 17 C -1.381439 1.731576 -0.117949 0
M  V30 18 C -2.241899 0.864254 0.533208 0
M  V30 19 O -3.465863 1.077227 0.704683 0
M  V30 20 N -1.691627 -0.271677 0.999081 0
M  V30 21 C -2.510216 -1.227554 1.695235 0
M  V30 22 H 0.451113 -2.097889 4.649954 0
M  V30 23 H -0.354145 -0.809084 3.718832 0
M  V30 24 H -1.097781 -2.482021 3.901227 0
M  V30 25 H 1.690864 -2.329094 2.773918 0
M  V30 26 H 0.149391 -4.420938 3.255310 0
M  V30 27 H -0.584354 -4.037750 1.684945 0
M  V30 28 H 2.185886 -4.756718 2.155326 0
M  V30 29 H 2.763806 -2.780734 1.097983 0
M  V30 30 H 2.372860 -3.913308 -0.217001 0
M  V30 31 H 0.097449 -2.974771 -0.439934 0
M  V30 32 H 1.367942 -1.711699 -0.469999 0
M  V30 33 H -0.609868 3.931190 -1.447547 0
M  V30 34 H 0.951931 5.376822 -2.559868 0
M  V30 35 H 4.106401 2.647981 -1.865823 0
M  V30 36 H 2.540680 1.167022 -0.731372 0
M  V30 37 H -1.840901 2.637106 -0.483416 0
M  V30 38 H -3.564987 -1.213658 1.292163 0
M  V30 39 H -2.159246 -2.257339 1.678249 0
M  V30 40 H -2.644103 -0.800963 2.732731 0
M  V30 END ATOM
M  V30 BEGIN BOND
M  V30 1 1 1 2
M  V30 2 1 2 3
M  V30 3 1 3 4
M  V30 4 1 4 5
M  V30 5 1 5 6
M  V30 6 1 6 7
M  V30 7 1 7 8
M  V30 8 2 8 9
M  V30 9 1 9 10
M  V30 10 1 10 11
M  V30 11 2 11 12
M  V30 12 1 12 13
M  V30 13 2 13 14
M  V30 14 1 14 15
M  V30 15 2 15 16
M  V30 16 2 10 17
M  V30 17 1 17 18
M  V30 18 2 18 19
M  V30 19 1 18 20
M  V30 20 1 20 21
M  V30 21 1 7 2
M  V30 22 1 20 8
M  V30 23 1 16 11
M  V30 24 1 1 22
M  V30 25 1 1 23
M  V30 26 1 1 24
M  V30 27 1 2 25 CFG=1
M  V30 28 1 3 26
M  V30 29 1 3 27
M  V30 30 1 4 28
M  V30 31 1 5 29
M  V30 32 1 5 30
M  V30 33 1 6 31
M  V30 34 1 6 32
M  V30 35 1 12 33
M  V30 36 1 13 34
M  V30 37 1 15 35
M  V30 38 1 16 36
M  V30 39 1 17 37
M  V30 40 1 21 38
M  V30 41 1 21 39
M  V30 42 1 21 40
M  V30 END BOND
M  V30 END CTAB
M  END
>  <Dataset>  (820) 
ChEMBL_Kinases

>  <Ligand_Instance>  (820) 
nan

>  <PDB_ID>  (820) 
nan

>  <Standardized_SMILES>  (820) 
C[C@H]1CNCCN1c1nc(-c2ccncc2)cc(=O)n1C

>  <Name>  (820) 
nan

>  <Pocket>  (820) 
nan

>  <ATP_Site>  (820) 
nan

>  <Peripheral>  (820) 
nan

>  <Num_H_Atoms_ProtBoundConf>  (820) 
nan

>  <Num_Resolved_Atoms>  (820) 
nan

>  <Num_Not_Resolved_Atoms>  (820) 
nan

$$$$
CHEMBL4090574
     RDKit          3D

  0  0  0  0  0  0  0  0  0  0999 V3000
M  V30 BEGIN CTAB
M  V30 COUNTS 24 26 0 0 0
M  V30 BEGIN ATOM
M  V30 1 O -0.672071 -4.596658 -0.380517 0
M  V30 2 C 0.375801 -4.175031 0.230918 0
M  V30 3 N 1.261359 -4.938398 1.014840 0
M  V30 4 C 2.364557 -4.204977 1.590760 0
M  V30 5 S 3.039881 -4.808811 2.951732 0
M  V30 6 S 2.520349 -2.813004 0.435849 0
M  V30 7 C 0.730972 -2.739591 0.129570 0
M  V30 8 C -0.015121 -1.671919 -0.104116 0
M  V30 9 C 0.704003 -0.377763 -0.136132 0
M  V30 10 C 1.928302 -0.151574 -0.722228 0
M  V30 11 S 2.126048 1.638890 -0.325614 0
M  V30 12 C 0.529138 1.742940 0.550382 0
M  V30 13 C 0.073955 3.006114 1.141281 0
M  V30 14 C -1.120984 2.996597 1.808796 0
M  V30 15 C -1.561824 4.140255 2.354407 0
M  V30 16 S -0.309044 5.422346 1.986751 0
M  V30 17 C 0.776321 4.223979 1.066116 0
M  V30 18 N 0.092016 0.617241 0.467224 0
M  V30 19 H 1.053796 -5.978841 1.120787 0
M  V30 20 H -1.078892 -1.869989 -0.248215 0
M  V30 21 H 2.498819 -0.913808 -1.240607 0
M  V30 22 H -1.797280 2.177694 1.976576 0
M  V30 23 H -2.413687 4.477102 2.919851 0
M  V30 24 H 1.745722 4.388950 0.565602 0
M  V30 END ATOM
M  V30 BEGIN BOND
M  V30 1 2 1 2
M  V30 2 1 2 3
M  V30 3 1 3 4
M  V30 4 2 4 5
M  V30 5 1 4 6
M  V30 6 1 6 7
M  V30 7 2 7 8
M  V30 8 1 8 9
M  V30 9 2 9 10
M  V30 10 1 10 11
M  V30 11 1 11 12
M  V30 12 1 12 13
M  V30 13 1 13 14
M  V30 14 2 14 15
M  V30 15 1 15 16
M  V30 16 1 16 17
M  V30 17 2 12 18
M  V30 18 1 7 2
M  V30 19 1 18 9
M  V30 20 2 17 13
M  V30 21 1 3 19
M  V30 22 1 8 20
M  V30 23 1 10 21
M  V30 24 1 14 22
M  V30 25 1 15 23
M  V30 26 1 17 24
M  V30 END BOND
M  V30 END CTAB
M  END
>  <Dataset>  (821) 
ChEMBL_Kinases

>  <Ligand_Instance>  (821) 
nan

>  <PDB_ID>  (821) 
nan

>  <Standardized_SMILES>  (821) 
O=C1NC(=S)S/C1=C\c1csc(-c2ccsc2)n1

>  <Name>  (821) 
nan

>  <Pocket>  (821) 
nan

>  <ATP_Site>  (821) 
nan

>  <Peripheral>  (821) 
nan

>  <Num_H_Atoms_ProtBoundConf>  (821) 
nan

>  <Num_Resolved_Atoms>  (821) 
nan

>  <Num_Not_Resolved_Atoms>  (821) 
nan

$$$$
CHEMBL4091435
     RDKit          3D

  0  0  0  0  0  0  0  0  0  0999 V3000
M  V30 BEGIN CTAB
M  V30 COUNTS 24 26 0 0 0
M  V30 BEGIN ATOM
M  V30 1 O -0.408284 -4.385822 1.186813 0
M  V30 2 C 0.597870 -3.626073 1.201945 0
M  V30 3 N 1.889471 -4.019620 1.551207 0
M  V30 4 C 2.922548 -3.047937 1.520363 0
M  V30 5 S 4.422448 -3.136920 2.152469 0
M  V30 6 S 2.187086 -1.676506 0.609897 0
M  V30 7 C 0.484202 -2.199634 0.836948 0
M  V30 8 C -0.570895 -1.460071 0.670595 0
M  V30 9 C -0.539168 -0.049137 0.310467 0
M  V30 10 C -1.363939 0.367820 -0.732477 0
M  V30 11 C -1.278841 1.735270 -1.001400 0
M  V30 12 C -0.491586 2.664518 -0.359046 0
M  V30 13 C 0.308241 2.180106 0.675669 0
M  V30 14 C 1.142302 2.965604 1.429878 0
M  V30 15 C 1.885080 2.438708 2.430016 0
M  V30 16 S 1.370931 0.625918 2.322028 0
M  V30 17 C 0.262129 0.863483 0.974088 0
M  V30 18 H 2.146728 -5.011438 1.839357 0
M  V30 19 H -1.560004 -1.900937 0.806166 0
M  V30 20 H -2.014691 -0.263765 -1.296562 0
M  V30 21 H -1.913503 2.102921 -1.815285 0
M  V30 22 H -0.528249 3.698980 -0.676152 0
M  V30 23 H 1.327909 4.027996 1.360472 0
M  V30 24 H 2.574352 2.698280 3.156557 0
M  V30 END ATOM
M  V30 BEGIN BOND
M  V30 1 2 1 2
M  V30 2 1 2 3
M  V30 3 1 3 4
M  V30 4 2 4 5
M  V30 5 1 4 6
M  V30 6 1 6 7
M  V30 7 2 7 8
M  V30 8 1 8 9
M  V30 9 2 9 10
M  V30 10 1 10 11
M  V30 11 2 11 12
M  V30 12 1 12 13
M  V30 13 1 13 14
M  V30 14 2 14 15
M  V30 15 1 15 16
M  V30 16 1 16 17
M  V30 17 1 7 2
M  V30 18 1 17 9
M  V30 19 2 17 13
M  V30 20 1 3 18
M  V30 21 1 8 19
M  V30 22 1 10 20
M  V30 23 1 11 21
M  V30 24 1 12 22
M  V30 25 1 14 23
M  V30 26 1 15 24
M  V30 END BOND
M  V30 END CTAB
M  END
>  <Dataset>  (822) 
ChEMBL_Kinases

>  <Ligand_Instance>  (822) 
nan

>  <PDB_ID>  (822) 
nan

>  <Standardized_SMILES>  (822) 
O=C1NC(=S)S/C1=C\c1cccc2ccsc12

>  <Name>  (822) 
nan

>  <Pocket>  (822) 
nan

>  <ATP_Site>  (822) 
nan

>  <Peripheral>  (822) 
nan

>  <Num_H_Atoms_ProtBoundConf>  (822) 
nan

>  <Num_Resolved_Atoms>  (822) 
nan

>  <Num_Not_Resolved_Atoms>  (822) 
nan

$$$$
CHEMBL4091382
     RDKit          3D

  0  0  0  0  0  0  0  0  0  0999 V3000
M  V30 BEGIN CTAB
M  V30 COUNTS 58 61 0 0 0
M  V30 BEGIN ATOM
M  V30 1 C 1.626264 -3.658460 4.725227 0
M  V30 2 C 2.314628 -2.997793 3.548706 0
M  V30 3 C 3.799140 -2.995190 3.669732 0
M  V30 4 N 4.455812 -3.519577 2.526110 0
M  V30 5 C 4.866375 -2.603072 1.546071 0
M  V30 6 C 3.814945 -1.793769 0.924761 0
M  V30 7 C 3.379777 -0.546614 1.393362 0
M  V30 8 C 2.381886 0.180819 0.774746 0
M  V30 9 C 1.802095 -0.363531 -0.352402 0
M  V30 10 N 0.772716 0.372977 -0.999081 0
M  V30 11 C 0.851647 1.337020 -2.037944 0
M  V30 12 O 1.997642 1.603801 -2.477233 0
M  V30 13 C -0.339360 1.985457 -2.568895 0
M  V30 14 C -1.574165 1.794087 -2.197835 0
M  V30 15 C -2.736769 2.446073 -2.736551 0
M  V30 16 C -2.716155 3.386804 -3.726149 0
M  V30 17 N -3.779647 4.014344 -4.244261 0
M  V30 18 C -5.023820 3.737439 -3.789668 0
M  V30 19 C -5.106095 2.788634 -2.783748 0
M  V30 20 C -3.990811 2.146445 -2.257614 0
M  V30 21 C -4.272847 1.177191 -1.226163 0
M  V30 22 C -3.906487 -0.116535 -0.988317 0
M  V30 23 N -4.472045 -0.536070 0.156268 0
M  V30 24 N -5.200159 0.432150 0.685848 0
M  V30 25 C -5.939215 0.291652 1.926011 0
M  V30 26 C -5.096146 1.486013 -0.135741 0
M  V30 27 C 2.194318 -1.604791 -0.868011 0
M  V30 28 C 3.196362 -2.306817 -0.224281 0
M  V30 29 C 3.932767 -4.775278 2.128023 0
M  V30 30 C 2.415426 -4.800154 2.093898 0
M  V30 31 O 1.815718 -3.616549 2.416386 0
M  V30 32 H 1.459064 -4.753000 4.535412 0
M  V30 33 H 2.111483 -3.439467 5.678839 0
M  V30 34 H 0.595136 -3.221303 4.771420 0
M  V30 35 H 1.981201 -1.925687 3.550498 0
M  V30 36 H 4.052405 -3.683773 4.528830 0
M  V30 37 H 4.195202 -2.004580 3.959199 0
M  V30 38 H 5.588169 -1.883806 2.032236 0
M  V30 39 H 5.463024 -3.102212 0.764606 0
M  V30 40 H 3.920677 -0.224974 2.297128 0
M  V30 41 H 2.120921 1.114930 1.203368 0
M  V30 42 H -0.130307 0.080798 -0.565751 0
M  V30 43 H -0.183709 2.720283 -3.374489 0
M  V30 44 H -1.677090 1.070687 -1.404246 0
M  V30 45 H -1.781099 3.689892 -4.167279 0
M  V30 46 H -5.915241 4.215420 -4.173530 0
M  V30 47 H -6.116579 2.577703 -2.429117 0
M  V30 48 H -3.264073 -0.668936 -1.653238 0
M  V30 49 H -6.159513 -0.797088 2.112826 0
M  V30 50 H -6.923339 0.791666 1.900888 0
M  V30 51 H -5.357158 0.688666 2.801782 0
M  V30 52 H -5.625068 2.393302 0.121621 0
M  V30 53 H 1.736432 -2.030804 -1.755622 0
M  V30 54 H 3.478892 -3.271521 -0.651856 0
M  V30 55 H 4.377492 -5.206768 1.227837 0
M  V30 56 H 4.217412 -5.500154 2.948887 0
M  V30 57 H 1.978984 -5.612476 2.708231 0
M  V30 58 H 2.137486 -5.001357 1.017531 0
M  V30 END ATOM
M  V30 BEGIN BOND
M  V30 1 1 1 2
M  V30 2 1 2 3
M  V30 3 1 3 4
M  V30 4 1 4 5
M  V30 5 1 5 6
M  V30 6 2 6 7
M  V30 7 1 7 8
M  V30 8 2 8 9
M  V30 9 1 9 10
M  V30 10 1 10 11
M  V30 11 2 11 12
M  V30 12 1 11 13
M  V30 13 2 13 14
M  V30 14 1 14 15
M  V30 15 2 15 16
M  V30 16 1 16 17
M  V30 17 2 17 18
M  V30 18 1 18 19
M  V30 19 2 19 20
M  V30 20 1 20 21
M  V30 21 1 21 22
M  V30 22 2 22 23
M  V30 23 1 23 24
M  V30 24 1 24 25
M  V30 25 1 24 26
M  V30 26 1 9 27
M  V30 27 2 27 28
M  V30 28 1 4 29
M  V30 29 1 29 30
M  V30 30 1 30 31
M  V30 31 1 31 2
M  V30 32 1 28 6
M  V30 33 1 20 15
M  V30 34 2 26 21
M  V30 35 1 1 32
M  V30 36 1 1 33
M  V30 37 1 1 34
M  V30 38 1 2 35
M  V30 39 1 3 36
M  V30 40 1 3 37
M  V30 41 1 5 38
M  V30 42 1 5 39
M  V30 43 1 7 40
M  V30 44 1 8 41
M  V30 45 1 10 42
M  V30 46 1 13 43
M  V30 47 1 14 44
M  V30 48 1 16 45
M  V30 49 1 18 46
M  V30 50 1 19 47
M  V30 51 1 22 48
M  V30 52 1 25 49
M  V30 53 1 25 50
M  V30 54 1 25 51
M  V30 55 1 26 52
M  V30 56 1 27 53
M  V30 57 1 28 54
M  V30 58 1 29 55
M  V30 59 1 29 56
M  V30 60 1 30 57
M  V30 61 1 30 58
M  V30 END BOND
M  V30 END CTAB
M  END
>  <Dataset>  (823) 
ChEMBL_Kinases

>  <Ligand_Instance>  (823) 
nan

>  <PDB_ID>  (823) 
nan

>  <Standardized_SMILES>  (823) 
CC1CN(Cc2ccc(NC(=O)/C=C/c3cnccc3-c3cnn(C)c3)cc2)CCO1

>  <Name>  (823) 
nan

>  <Pocket>  (823) 
nan

>  <ATP_Site>  (823) 
nan

>  <Peripheral>  (823) 
nan

>  <Num_H_Atoms_ProtBoundConf>  (823) 
nan

>  <Num_Resolved_Atoms>  (823) 
nan

>  <Num_Not_Resolved_Atoms>  (823) 
nan

$$$$
CHEMBL4091345
     RDKit          3D

  0  0  0  0  0  0  0  0  0  0999 V3000
M  V30 BEGIN CTAB
M  V30 COUNTS 33 36 0 0 0
M  V30 BEGIN ATOM
M  V30 1 N 2.084537 -3.311969 2.976227 0
M  V30 2 C 0.790573 -2.740630 3.061827 0
M  V30 3 O 0.164690 -3.159620 4.072874 0
M  V30 4 C 0.300916 -1.756826 2.023817 0
M  V30 5 S 1.319174 -1.304152 0.698324 0
M  V30 6 C 0.166586 -0.207705 -0.044775 0
M  V30 7 O 0.404896 0.526983 -1.231794 0
M  V30 8 C 1.649215 0.380881 -1.876449 0
M  V30 9 C 1.891028 -0.568829 -2.847251 0
M  V30 10 C 3.131859 -0.675141 -3.453955 0
M  V30 11 C 4.088021 0.221951 -3.022995 0
M  V30 12 N 3.866565 1.151353 -2.079180 0
M  V30 13 C 2.650658 1.252810 -1.487161 0
M  V30 14 C -0.873352 -0.286526 0.774241 0
M  V30 15 C -0.858095 -1.077515 1.866747 0
M  V30 16 C -1.909145 -1.285937 2.877897 0
M  V30 17 C -3.165960 -0.528381 2.674163 0
M  V30 18 C -3.109906 0.311932 1.471642 0
M  V30 19 C -4.232883 1.073487 1.184514 0
M  V30 20 N -4.367668 1.894661 0.136534 0
M  V30 21 S -2.673514 1.611883 -0.633150 0
M  V30 22 C -2.154577 0.521512 0.525302 0
M  V30 23 H 3.008185 -3.139535 3.435166 0
M  V30 24 H 2.059475 -4.086538 2.273790 0
M  V30 25 H 1.072448 -1.231629 -3.119642 0
M  V30 26 H 3.313791 -1.423119 -4.215050 0
M  V30 27 H 5.072621 0.159577 -3.484238 0
M  V30 28 H 2.563273 2.030717 -0.737390 0
M  V30 29 H -1.526686 -0.968072 3.910567 0
M  V30 30 H -2.116105 -2.380692 3.050113 0
M  V30 31 H -3.966311 -1.304452 2.458735 0
M  V30 32 H -3.470115 0.057308 3.583977 0
M  V30 33 H -5.233214 1.260142 1.611680 0
M  V30 END ATOM
M  V30 BEGIN BOND
M  V30 1 1 1 2
M  V30 2 2 2 3
M  V30 3 1 2 4
M  V30 4 1 4 5
M  V30 5 1 5 6
M  V30 6 1 6 7
M  V30 7 1 7 8
M  V30 8 2 8 9
M  V30 9 1 9 10
M  V30 10 2 10 11
M  V30 11 1 11 12
M  V30 12 2 12 13
M  V30 13 2 6 14
M  V30 14 1 14 15
M  V30 15 1 15 16
M  V30 16 1 16 17
M  V30 17 1 17 18
M  V30 18 1 18 19
M  V30 19 2 19 20
M  V30 20 1 20 21
M  V30 21 1 21 22
M  V30 22 2 15 4
M  V30 23 2 22 18
M  V30 24 1 13 8
M  V30 25 1 22 14
M  V30 26 1 1 23
M  V30 27 1 1 24
M  V30 28 1 9 25
M  V30 29 1 10 26
M  V30 30 1 11 27
M  V30 31 1 13 28
M  V30 32 1 16 29
M  V30 33 1 16 30
M  V30 34 1 17 31
M  V30 35 1 17 32
M  V30 36 1 19 33
M  V30 END BOND
M  V30 END CTAB
M  END
>  <Dataset>  (824) 
ChEMBL_Kinases

>  <Ligand_Instance>  (824) 
nan

>  <PDB_ID>  (824) 
nan

>  <Standardized_SMILES>  (824) 
NC(=O)c1sc(Oc2cccnc2)c2c1CCc1cnsc1-2

>  <Name>  (824) 
nan

>  <Pocket>  (824) 
nan

>  <ATP_Site>  (824) 
nan

>  <Peripheral>  (824) 
nan

>  <Num_H_Atoms_ProtBoundConf>  (824) 
nan

>  <Num_Resolved_Atoms>  (824) 
nan

>  <Num_Not_Resolved_Atoms>  (824) 
nan

$$$$
CHEMBL4845709
     RDKit          3D

  0  0  0  0  0  0  0  0  0  0999 V3000
M  V30 BEGIN CTAB
M  V30 COUNTS 47 48 0 0 0
M  V30 BEGIN ATOM
M  V30 1 C -1.877502 -4.281504 0.793894 0
M  V30 2 O -2.170244 -3.107354 1.493627 0
M  V30 3 C -1.315367 -2.032174 1.617420 0
M  V30 4 C -0.039813 -1.920042 1.084148 0
M  V30 5 C 0.723288 -0.783026 1.279947 0
M  V30 6 N 2.001439 -0.878572 0.645526 0
M  V30 7 C 1.865743 -0.355835 -0.696236 0
M  V30 8 O 0.697006 0.057404 -1.011888 0
M  V30 9 C 2.866698 -0.223780 -1.761824 0 CFG=2
M  V30 10 N 4.183516 -0.720199 -1.324152 0
M  V30 11 C 2.963973 1.108001 -2.412551 0
M  V30 12 C 3.302805 2.267913 -1.576633 0
M  V30 13 C 4.603032 2.232326 -0.861587 0
M  V30 14 C 2.143355 2.679521 -0.667040 0
M  V30 15 C 0.242545 0.286277 2.015790 0
M  V30 16 C -1.024309 0.203968 2.559403 0
M  V30 17 C -1.766933 -0.943080 2.349352 0
M  V30 18 C -3.101678 -0.930339 2.969955 0
M  V30 19 C -4.052826 0.089412 2.974926 0
M  V30 20 N -5.103237 -0.371440 3.667052 0
M  V30 21 N -4.838911 -1.598713 4.074044 0
M  V30 22 C -5.682109 -2.486595 4.853725 0
M  V30 23 C -3.604223 -2.024394 3.679040 0
M  V30 24 H -1.886233 -4.061924 -0.282537 0
M  V30 25 H -2.699435 -4.998714 0.997098 0
M  V30 26 H -0.927677 -4.762105 1.140301 0
M  V30 27 H 0.271360 -2.798481 0.518209 0
M  V30 28 H 2.982538 -1.197413 0.833392 0
M  V30 29 H 2.582376 -0.932785 -2.572061 0
M  V30 30 H 4.096543 -1.741216 -1.126654 0
M  V30 31 H 4.776887 -0.639183 -2.202421 0
M  V30 32 H 3.685790 1.021112 -3.235223 0
M  V30 33 H 1.983400 1.312563 -2.890965 0
M  V30 34 H 3.389428 3.133768 -2.296680 0
M  V30 35 H 4.424644 2.156182 0.251424 0
M  V30 36 H 5.195161 3.191132 -0.937856 0
M  V30 37 H 5.310409 1.454744 -1.143670 0
M  V30 38 H 2.300671 3.730350 -0.287424 0
M  V30 39 H 1.225991 2.743929 -1.265497 0
M  V30 40 H 2.079135 2.073169 0.248489 0
M  V30 41 H 0.905043 1.117082 2.110567 0
M  V30 42 H -1.397135 1.042116 3.134332 0
M  V30 43 H -3.859154 1.037454 2.473906 0
M  V30 44 H -6.660255 -1.990537 4.998018 0
M  V30 45 H -5.224007 -2.750234 5.827367 0
M  V30 46 H -5.860906 -3.397490 4.228419 0
M  V30 47 H -3.120735 -2.955564 3.855121 0
M  V30 END ATOM
M  V30 BEGIN BOND
M  V30 1 1 1 2
M  V30 2 1 2 3
M  V30 3 2 3 4
M  V30 4 1 4 5
M  V30 5 1 5 6
M  V30 6 1 6 7
M  V30 7 2 7 8
M  V30 8 1 7 9
M  V30 9 1 9 10
M  V30 10 1 9 11
M  V30 11 1 11 12
M  V30 12 1 12 13
M  V30 13 1 12 14
M  V30 14 2 5 15
M  V30 15 1 15 16
M  V30 16 2 16 17
M  V30 17 1 17 18
M  V30 18 1 18 19
M  V30 19 2 19 20
M  V30 20 1 20 21
M  V30 21 1 21 22
M  V30 22 1 21 23
M  V30 23 1 17 3
M  V30 24 2 23 18
M  V30 25 1 1 24
M  V30 26 1 1 25
M  V30 27 1 1 26
M  V30 28 1 4 27
M  V30 29 1 6 28
M  V30 30 1 9 29 CFG=3
M  V30 31 1 10 30
M  V30 32 1 10 31
M  V30 33 1 11 32
M  V30 34 1 11 33
M  V30 35 1 12 34
M  V30 36 1 13 35
M  V30 37 1 13 36
M  V30 38 1 13 37
M  V30 39 1 14 38
M  V30 40 1 14 39
M  V30 41 1 14 40
M  V30 42 1 15 41
M  V30 43 1 16 42
M  V30 44 1 19 43
M  V30 45 1 22 44
M  V30 46 1 22 45
M  V30 47 1 22 46
M  V30 48 1 23 47
M  V30 END BOND
M  V30 END CTAB
M  END
>  <Dataset>  (825) 
ChEMBL_Kinases

>  <Ligand_Instance>  (825) 
nan

>  <PDB_ID>  (825) 
nan

>  <Standardized_SMILES>  (825) 
COc1cc(NC(=O)[C@H](N)CC(C)C)ccc1-c1cnn(C)c1

>  <Name>  (825) 
nan

>  <Pocket>  (825) 
nan

>  <ATP_Site>  (825) 
nan

>  <Peripheral>  (825) 
nan

>  <Num_H_Atoms_ProtBoundConf>  (825) 
nan

>  <Num_Resolved_Atoms>  (825) 
nan

>  <Num_Not_Resolved_Atoms>  (825) 
nan

$$$$
CHEMBL4845717
     RDKit          3D

  0  0  0  0  0  0  0  0  0  0999 V3000
M  V30 BEGIN CTAB
M  V30 COUNTS 53 57 0 0 0
M  V30 BEGIN ATOM
M  V30 1 C 2.001463 -0.596190 3.156536 0
M  V30 2 C 3.385892 -0.923621 2.640723 0
M  V30 3 C 3.858569 -2.139138 3.434327 0
M  V30 4 N 4.317318 0.153666 2.842573 0
M  V30 5 C 5.195021 0.303812 3.862511 0
M  V30 6 N 5.925100 1.443340 3.737651 0
M  V30 7 N 5.486461 2.003147 2.618976 0
M  V30 8 C 4.522135 1.237672 2.074395 0
M  V30 9 C 3.795861 1.518373 0.841977 0
M  V30 10 C 4.261967 2.392580 -0.118637 0
M  V30 11 C 3.597252 2.679294 -1.296132 0
M  V30 12 C 2.389767 2.038998 -1.506163 0
M  V30 13 C 1.904414 1.159813 -0.557580 0
M  V30 14 N 0.687156 0.418662 -0.610347 0
M  V30 15 C -0.404075 1.117893 -0.038633 0
M  V30 16 O -0.280740 2.275362 0.458051 0
M  V30 17 C -1.744619 0.537059 0.010103 0
M  V30 18 C -2.842964 1.173456 0.554964 0
M  V30 19 C -3.939114 0.312492 0.419641 0
M  V30 20 C -5.268802 0.407963 0.772968 0
M  V30 21 C -6.100086 -0.654242 0.484645 0
M  V30 22 C -5.599648 -1.795854 -0.150194 0
M  V30 23 C -4.254326 -1.884180 -0.503931 0
M  V30 24 C -3.856051 -3.124921 -1.160240 0
M  V30 25 C -3.061345 -3.286127 -2.282185 0
M  V30 26 C -2.807629 -4.562430 -2.739236 0
M  V30 27 N -3.294744 -5.650104 -2.147317 0
M  V30 28 C -4.074364 -5.578918 -1.053699 0
M  V30 29 C -4.340960 -4.302093 -0.578628 0
M  V30 30 C -3.440612 -0.810060 -0.206096 0
M  V30 31 N -2.142160 -0.668089 -0.444280 0
M  V30 32 N 2.615632 0.930435 0.573720 0
M  V30 33 H 1.962476 0.478698 3.436925 0
M  V30 34 H 1.285417 -0.864026 2.361566 0
M  V30 35 H 1.728540 -1.167622 4.053998 0
M  V30 36 H 3.374560 -1.183510 1.565612 0
M  V30 37 H 3.853611 -1.830081 4.517596 0
M  V30 38 H 3.088926 -2.934064 3.371068 0
M  V30 39 H 4.819806 -2.525195 3.093590 0
M  V30 40 H 5.308201 -0.399490 4.687223 0
M  V30 41 H 5.214706 2.880674 0.075528 0
M  V30 42 H 3.963730 3.362232 -2.044086 0
M  V30 43 H 1.769769 2.164427 -2.368565 0
M  V30 44 H 0.582576 -0.523225 -1.013534 0
M  V30 45 H -2.922468 2.145979 1.014938 0
M  V30 46 H -5.628865 1.309852 1.266280 0
M  V30 47 H -7.136584 -0.539414 0.778418 0
M  V30 48 H -6.362055 -2.557027 -0.317940 0
M  V30 49 H -2.707227 -2.360521 -2.701800 0
M  V30 50 H -2.168899 -4.548569 -3.629391 0
M  V30 51 H -4.467877 -6.445090 -0.574500 0
M  V30 52 H -4.972686 -4.264198 0.305932 0
M  V30 53 H -1.491360 -1.341861 -0.901718 0
M  V30 END ATOM
M  V30 BEGIN BOND
M  V30 1 1 1 2
M  V30 2 1 2 3
M  V30 3 1 2 4
M  V30 4 1 4 5
M  V30 5 2 5 6
M  V30 6 1 6 7
M  V30 7 2 7 8
M  V30 8 1 8 9
M  V30 9 2 9 10
M  V30 10 1 10 11
M  V30 11 2 11 12
M  V30 12 1 12 13
M  V30 13 1 13 14
M  V30 14 1 14 15
M  V30 15 2 15 16
M  V30 16 1 15 17
M  V30 17 2 17 18
M  V30 18 1 18 19
M  V30 19 2 19 20
M  V30 20 1 20 21
M  V30 21 2 21 22
M  V30 22 1 22 23
M  V30 23 1 23 24
M  V30 24 2 24 25
M  V30 25 1 25 26
M  V30 26 2 26 27
M  V30 27 1 27 28
M  V30 28 2 28 29
M  V30 29 2 23 30
M  V30 30 1 30 31
M  V30 31 2 13 32
M  V30 32 1 8 4
M  V30 33 1 32 9
M  V30 34 1 31 17
M  V30 35 1 30 19
M  V30 36 1 29 24
M  V30 37 1 1 33
M  V30 38 1 1 34
M  V30 39 1 1 35
M  V30 40 1 2 36
M  V30 41 1 3 37
M  V30 42 1 3 38
M  V30 43 1 3 39
M  V30 44 1 5 40
M  V30 45 1 10 41
M  V30 46 1 11 42
M  V30 47 1 12 43
M  V30 48 1 14 44
M  V30 49 1 18 45
M  V30 50 1 20 46
M  V30 51 1 21 47
M  V30 52 1 22 48
M  V30 53 1 25 49
M  V30 54 1 26 50
M  V30 55 1 28 51
M  V30 56 1 29 52
M  V30 57 1 31 53
M  V30 END BOND
M  V30 END CTAB
M  END
>  <Dataset>  (826) 
ChEMBL_Kinases

>  <Ligand_Instance>  (826) 
nan

>  <PDB_ID>  (826) 
nan

>  <Standardized_SMILES>  (826) 
CC(C)n1cnnc1-c1cccc(NC(=O)c2cc3cccc(-c4ccncc4)c3[nH]2)n1

>  <Name>  (826) 
nan

>  <Pocket>  (826) 
nan

>  <ATP_Site>  (826) 
nan

>  <Peripheral>  (826) 
nan

>  <Num_H_Atoms_ProtBoundConf>  (826) 
nan

>  <Num_Resolved_Atoms>  (826) 
nan

>  <Num_Not_Resolved_Atoms>  (826) 
nan

$$$$
CHEMBL4091338
     RDKit          3D

  0  0  0  0  0  0  0  0  0  0999 V3000
M  V30 BEGIN CTAB
M  V30 COUNTS 40 42 0 0 0
M  V30 BEGIN ATOM
M  V30 1 O -0.390766 -3.993454 4.271585 0
M  V30 2 C 0.233456 -3.501808 3.304411 0
M  V30 3 N 1.406218 -3.958088 2.683901 0
M  V30 4 C 1.751256 -3.079809 1.619880 0
M  V30 5 C 2.808536 -3.100972 0.727800 0
M  V30 6 C 2.946006 -2.108923 -0.248744 0
M  V30 7 C 1.994832 -1.097213 -0.304612 0
M  V30 8 C 2.209471 -0.095831 -1.340530 0
M  V30 9 O 3.217053 -0.176526 -2.082972 0
M  V30 10 N 1.341805 1.002576 -1.586655 0
M  V30 11 C 1.652284 1.948323 -2.647015 0
M  V30 12 C 0.608820 3.035147 -2.739905 0
M  V30 13 C 1.014840 3.977880 -3.861104 0
M  V30 14 O 2.275695 4.541196 -3.580610 0
M  V30 15 C 0.931121 -1.047984 0.568762 0
M  V30 16 C 0.822785 -2.040928 1.521061 0
M  V30 17 C -0.149743 -2.288064 2.580987 0
M  V30 18 C -1.204645 -1.561765 2.898340 0
M  V30 19 C -2.191778 -1.728638 3.949779 0
M  V30 20 C -2.161496 -1.975050 5.299584 0
M  V30 21 C -3.436994 -2.066040 5.824804 0
M  V30 22 C -4.270986 -1.861620 4.726898 0
M  V30 23 N -3.520869 -1.666610 3.644421 0
M  V30 24 H 1.910375 -4.803818 2.982053 0
M  V30 25 H 3.524378 -3.911128 0.810160 0
M  V30 26 H 3.801096 -2.206170 -0.900675 0
M  V30 27 H 0.482596 1.107013 -0.987214 0
M  V30 28 H 1.714343 1.453661 -3.634773 0
M  V30 29 H 2.617865 2.426122 -2.390017 0
M  V30 30 H 0.507031 3.587804 -1.789477 0
M  V30 31 H -0.397880 2.606299 -2.980360 0
M  V30 32 H 0.250307 4.733342 -4.065197 0
M  V30 33 H 1.200499 3.341803 -4.770624 0
M  V30 34 H 2.184492 5.303659 -2.926902 0
M  V30 35 H 0.205669 -0.252951 0.505525 0
M  V30 36 H -1.348256 -0.680326 2.247391 0
M  V30 37 H -1.267259 -2.066277 5.859467 0
M  V30 38 H -3.642238 -2.254330 6.864601 0
M  V30 39 H -5.351094 -1.887744 4.898654 0
M  V30 40 H -4.075346 -1.501203 2.753151 0
M  V30 END ATOM
M  V30 BEGIN BOND
M  V30 1 2 1 2
M  V30 2 1 2 3
M  V30 3 1 3 4
M  V30 4 2 4 5
M  V30 5 1 5 6
M  V30 6 2 6 7
M  V30 7 1 7 8
M  V30 8 2 8 9
M  V30 9 1 8 10
M  V30 10 1 10 11
M  V30 11 1 11 12
M  V30 12 1 12 13
M  V30 13 1 13 14
M  V30 14 1 7 15
M  V30 15 2 15 16
M  V30 16 1 16 17
M  V30 17 2 17 18
M  V30 18 1 18 19
M  V30 19 2 19 20
M  V30 20 1 20 21
M  V30 21 2 21 22
M  V30 22 1 22 23
M  V30 23 1 17 2
M  V30 24 1 23 19
M  V30 25 1 16 4
M  V30 26 1 3 24
M  V30 27 1 5 25
M  V30 28 1 6 26
M  V30 29 1 10 27
M  V30 30 1 11 28
M  V30 31 1 11 29
M  V30 32 1 12 30
M  V30 33 1 12 31
M  V30 34 1 13 32
M  V30 35 1 13 33
M  V30 36 1 14 34
M  V30 37 1 15 35
M  V30 38 1 18 36
M  V30 39 1 20 37
M  V30 40 1 21 38
M  V30 41 1 22 39
M  V30 42 1 23 40
M  V30 END BOND
M  V30 END CTAB
M  END
>  <Dataset>  (827) 
ChEMBL_Kinases

>  <Ligand_Instance>  (827) 
nan

>  <PDB_ID>  (827) 
nan

>  <Standardized_SMILES>  (827) 
O=C1Nc2ccc(C(=O)NCCCO)cc2/C1=C/c1ccc[nH]1

>  <Name>  (827) 
nan

>  <Pocket>  (827) 
nan

>  <ATP_Site>  (827) 
nan

>  <Peripheral>  (827) 
nan

>  <Num_H_Atoms_ProtBoundConf>  (827) 
nan

>  <Num_Resolved_Atoms>  (827) 
nan

>  <Num_Not_Resolved_Atoms>  (827) 
nan

$$$$
CHEMBL4845722
     RDKit          3D

  0  0  0  0  0  0  0  0  0  0999 V3000
M  V30 BEGIN CTAB
M  V30 COUNTS 45 49 0 0 0
M  V30 BEGIN ATOM
M  V30 1 F 1.351995 0.318413 7.676239 0
M  V30 2 C 1.333124 -0.183141 6.423429 0
M  V30 3 C 1.069469 -1.526520 6.290967 0
M  V30 4 C 1.046858 -2.051423 5.022276 0
M  V30 5 C 1.285564 -1.222627 3.952920 0
M  V30 6 F 1.249841 -1.797253 2.738190 0
M  V30 7 C 1.553577 0.120478 4.018559 0
M  V30 8 C 1.814936 1.058490 2.947537 0
M  V30 9 C 1.844737 0.785805 1.609569 0
M  V30 10 C 2.096080 1.700670 0.617775 0
M  V30 11 N 2.114620 1.368174 -0.761098 0
M  V30 12 C 1.795447 0.184845 -1.476951 0
M  V30 13 C 2.805657 -0.435109 -2.221404 0
M  V30 14 C 2.629641 -1.580785 -2.958430 0
M  V30 15 N 1.409915 -2.130976 -2.957581 0
M  V30 16 C 0.375416 -1.594996 -2.263949 0
M  V30 17 C -0.875282 -2.178255 -2.281655 0
M  V30 18 C -1.908533 -1.607820 -1.570421 0
M  V30 19 C -3.225746 -2.230469 -1.595228 0
M  V30 20 C -4.092343 -2.167560 -0.533511 0
M  V30 21 C -5.316730 -2.771564 -0.615638 0
M  V30 22 S -5.363916 -3.525921 -2.288621 0
M  V30 23 C -3.671970 -2.942562 -2.748927 0
M  V30 24 C -1.709526 -0.442284 -0.827756 0
M  V30 25 C -0.453387 0.129867 -0.819199 0
M  V30 26 C 0.577681 -0.444246 -1.531726 0
M  V30 27 C 2.340900 3.004189 0.971820 0
M  V30 28 C 2.302328 3.241978 2.333085 0
M  V30 29 N 2.054030 2.329551 3.285191 0
M  V30 30 C 1.564496 0.600548 5.326699 0
M  V30 31 H 0.886352 -2.149604 7.148812 0
M  V30 32 H 0.844487 -3.094450 4.883855 0
M  V30 33 H 1.660642 -0.217685 1.268682 0
M  V30 34 H 2.406171 2.063970 -1.473350 0
M  V30 35 H 3.822246 -0.027228 -2.257539 0
M  V30 36 H 3.425974 -2.035627 -3.522110 0
M  V30 37 H -1.030474 -3.080727 -2.856441 0
M  V30 38 H -3.886488 -1.664363 0.397556 0
M  V30 39 H -6.131656 -2.866830 0.029978 0
M  V30 40 H -3.132422 -3.080529 -3.635848 0
M  V30 41 H -2.516716 0.014113 -0.265010 0
M  V30 42 H -0.322661 1.033873 -0.243132 0
M  V30 43 H 2.548244 3.793184 0.260979 0
M  V30 44 H 2.492945 4.273402 2.664285 0
M  V30 45 H 1.763314 1.656000 5.557265 0
M  V30 END ATOM
M  V30 BEGIN BOND
M  V30 1 1 1 2
M  V30 2 2 2 3
M  V30 3 1 3 4
M  V30 4 2 4 5
M  V30 5 1 5 6
M  V30 6 1 5 7
M  V30 7 1 7 8
M  V30 8 2 8 9
M  V30 9 1 9 10
M  V30 10 1 10 11
M  V30 11 1 11 12
M  V30 12 2 12 13
M  V30 13 1 13 14
M  V30 14 2 14 15
M  V30 15 1 15 16
M  V30 16 2 16 17
M  V30 17 1 17 18
M  V30 18 1 18 19
M  V30 19 1 19 20
M  V30 20 2 20 21
M  V30 21 1 21 22
M  V30 22 1 22 23
M  V30 23 2 18 24
M  V30 24 1 24 25
M  V30 25 2 25 26
M  V30 26 2 10 27
M  V30 27 1 27 28
M  V30 28 2 28 29
M  V30 29 2 7 30
M  V30 30 1 30 2
M  V30 31 1 29 8
M  V30 32 1 26 12
M  V30 33 1 26 16
M  V30 34 2 23 19
M  V30 35 1 3 31
M  V30 36 1 4 32
M  V30 37 1 9 33
M  V30 38 1 11 34
M  V30 39 1 13 35
M  V30 40 1 14 36
M  V30 41 1 17 37
M  V30 42 1 20 38
M  V30 43 1 21 39
M  V30 44 1 23 40
M  V30 45 1 24 41
M  V30 46 1 25 42
M  V30 47 1 27 43
M  V30 48 1 28 44
M  V30 49 1 30 45
M  V30 END BOND
M  V30 END CTAB
M  END
>  <Dataset>  (828) 
ChEMBL_Kinases

>  <Ligand_Instance>  (828) 
nan

>  <PDB_ID>  (828) 
nan

>  <Standardized_SMILES>  (828) 
Fc1ccc(F)c(-c2cc(Nc3ccnc4cc(-c5ccsc5)ccc34)ccn2)c1

>  <Name>  (828) 
nan

>  <Pocket>  (828) 
nan

>  <ATP_Site>  (828) 
nan

>  <Peripheral>  (828) 
nan

>  <Num_H_Atoms_ProtBoundConf>  (828) 
nan

>  <Num_Resolved_Atoms>  (828) 
nan

>  <Num_Not_Resolved_Atoms>  (828) 
nan

$$$$
CHEMBL4845736
     RDKit          3D

  0  0  0  0  0  0  0  0  0  0999 V3000
M  V30 BEGIN CTAB
M  V30 COUNTS 47 51 0 0 0
M  V30 BEGIN ATOM
M  V30 1 O 0.183498 -3.642507 3.896764 0
M  V30 2 C 1.101388 -2.625045 3.651197 0
M  V30 3 C 2.371113 -3.012264 3.275347 0
M  V30 4 F 2.787959 -4.281525 3.129397 0
M  V30 5 C 3.321412 -2.045788 3.019555 0
M  V30 6 C 2.979935 -0.714932 3.144975 0
M  V30 7 N 3.798987 0.442456 2.947329 0
M  V30 8 C 3.471299 0.864285 1.624485 0
M  V30 9 N 4.472426 0.981554 0.709055 0
M  V30 10 C 4.216656 1.366159 -0.560809 0
M  V30 11 C 2.944847 1.657004 -0.990646 0
M  V30 12 N 2.305236 2.054277 -2.118406 0
M  V30 13 C 0.979229 2.159312 -1.855640 0
M  V30 14 N 0.718509 1.836570 -0.556005 0
M  V30 15 C -0.503307 1.797814 0.169903 0
M  V30 16 C -0.961149 2.774119 1.025324 0
M  V30 17 C -2.185498 2.587766 1.672574 0
M  V30 18 C -2.938891 1.447631 1.469220 0
M  V30 19 C -2.466267 0.465933 0.600869 0
M  V30 20 O -3.290982 -0.631626 0.463501 0
M  V30 21 C -3.049729 -1.765519 -0.256325 0
M  V30 22 C -2.535452 -2.927736 0.284022 0
M  V30 23 C -2.329672 -4.017783 -0.539657 0
M  V30 24 C -2.607931 -4.022896 -1.887991 0
M  V30 25 C -3.125409 -2.827753 -2.389371 0
M  V30 26 C -3.344756 -1.719597 -1.599619 0
M  V30 27 C -1.257170 0.659456 -0.031591 0
M  V30 28 C 1.936630 1.537194 -0.062341 0
M  V30 29 N 2.231133 1.151088 1.192196 0
M  V30 30 C 1.689906 -0.339929 3.525937 0
M  V30 31 C 0.717597 -1.306072 3.788521 0
M  V30 32 F -0.545365 -1.001121 4.163867 0
M  V30 33 H -0.366326 -4.018202 3.107303 0
M  V30 34 H 4.350029 -2.181232 2.718501 0
M  V30 35 H 4.477876 0.898339 3.585545 0
M  V30 36 H 4.999790 1.467995 -1.311912 0
M  V30 37 H 0.200049 2.458225 -2.563698 0
M  V30 38 H -0.306173 3.627917 1.121266 0
M  V30 39 H -2.499591 3.382311 2.334108 0
M  V30 40 H -3.855021 1.428717 2.024083 0
M  V30 41 H -2.302750 -2.968427 1.339307 0
M  V30 42 H -1.926189 -4.923227 -0.094506 0
M  V30 43 H -2.441033 -4.889658 -2.515956 0
M  V30 44 H -3.364737 -2.771338 -3.450913 0
M  V30 45 H -3.746389 -0.828832 -2.056613 0
M  V30 46 H -1.033623 -0.199053 -0.673479 0
M  V30 47 H 1.317992 0.671671 3.652925 0
M  V30 END ATOM
M  V30 BEGIN BOND
M  V30 1 1 1 2
M  V30 2 2 2 3
M  V30 3 1 3 4
M  V30 4 1 3 5
M  V30 5 2 5 6
M  V30 6 1 6 7
M  V30 7 1 7 8
M  V30 8 2 8 9
M  V30 9 1 9 10
M  V30 10 2 10 11
M  V30 11 1 11 12
M  V30 12 2 12 13
M  V30 13 1 13 14
M  V30 14 1 14 15
M  V30 15 2 15 16
M  V30 16 1 16 17
M  V30 17 2 17 18
M  V30 18 1 18 19
M  V30 19 1 19 20
M  V30 20 1 20 21
M  V30 21 2 21 22
M  V30 22 1 22 23
M  V30 23 2 23 24
M  V30 24 1 24 25
M  V30 25 2 25 26
M  V30 26 2 19 27
M  V30 27 1 14 28
M  V30 28 2 28 29
M  V30 29 1 6 30
M  V30 30 2 30 31
M  V30 31 1 31 32
M  V30 32 1 31 2
M  V30 33 1 29 8
M  V30 34 1 28 11
M  V30 35 1 27 15
M  V30 36 1 26 21
M  V30 37 1 1 33
M  V30 38 1 5 34
M  V30 39 1 7 35
M  V30 40 1 10 36
M  V30 41 1 13 37
M  V30 42 1 16 38
M  V30 43 1 17 39
M  V30 44 1 18 40
M  V30 45 1 22 41
M  V30 46 1 23 42
M  V30 47 1 24 43
M  V30 48 1 25 44
M  V30 49 1 26 45
M  V30 50 1 27 46
M  V30 51 1 30 47
M  V30 END BOND
M  V30 END CTAB
M  END
>  <Dataset>  (829) 
ChEMBL_Kinases

>  <Ligand_Instance>  (829) 
nan

>  <PDB_ID>  (829) 
nan

>  <Standardized_SMILES>  (829) 
Oc1c(F)cc(Nc2ncc3ncn(-c4cccc(Oc5ccccc5)c4)c3n2)cc1F

>  <Name>  (829) 
nan

>  <Pocket>  (829) 
nan

>  <ATP_Site>  (829) 
nan

>  <Peripheral>  (829) 
nan

>  <Num_H_Atoms_ProtBoundConf>  (829) 
nan

>  <Num_Resolved_Atoms>  (829) 
nan

>  <Num_Not_Resolved_Atoms>  (829) 
nan

$$$$
CHEMBL4091281
     RDKit          3D

  0  0  0  0  0  0  0  0  0  0999 V3000
M  V30 BEGIN CTAB
M  V30 COUNTS 61 65 0 0 0
M  V30 BEGIN ATOM
M  V30 1 O 0.681059 0.323386 2.078741 0
M  V30 2 C 1.091256 0.984636 1.063788 0
M  V30 3 N 2.440158 1.362445 1.276492 0
M  V30 4 C 3.014116 0.925509 2.549430 0
M  V30 5 C 4.414422 1.402751 2.588711 0
M  V30 6 C 5.254852 0.637651 1.786631 0
M  V30 7 F 4.855209 -0.432471 1.040366 0
M  V30 8 C 6.597141 0.899967 1.672659 0
M  V30 9 C 7.154304 1.961572 2.374380 0
M  V30 10 C 6.319108 2.718478 3.168858 0
M  V30 11 C 4.970691 2.451619 3.280777 0
M  V30 12 F 4.075254 3.135654 4.032948 0
M  V30 13 C 0.242237 1.248931 -0.063340 0
M  V30 14 C -1.049424 0.724645 -0.007458 0
M  V30 15 C -1.960560 0.902633 -1.022888 0
M  V30 16 C -3.300157 0.315891 -0.888210 0 CFG=2
M  V30 17 C -4.051166 0.963969 0.268403 0
M  V30 18 C -5.295028 0.127867 0.557468 0
M  V30 19 N -5.556987 -0.707854 -0.626495 0
M  V30 20 C -4.584059 -1.748679 -0.663004 0
M  V30 21 C -3.201521 -1.200541 -0.651824 0 CFG=1
M  V30 22 C -2.321801 -1.713993 -1.737736 0
M  V30 23 O -2.045727 -3.051209 -1.785406 0
M  V30 24 C -1.435164 -3.906033 -0.933316 0
M  V30 25 C -1.424421 -5.198685 -1.479992 0
M  V30 26 C -0.849739 -6.280784 -0.801238 0
M  V30 27 C -0.277046 -6.079823 0.437251 0
M  V30 28 C -0.276163 -4.803279 1.000252 0
M  V30 29 C -0.849803 -3.763759 0.304603 0
M  V30 30 O 0.349110 -4.847079 2.237024 0
M  V30 31 C 1.031471 -6.102639 2.349795 0
M  V30 32 O 0.369822 -6.894085 1.378784 0
M  V30 33 C -1.616046 1.622692 -2.154728 0
M  V30 34 C -0.360142 2.154834 -2.251896 0
M  V30 35 C 0.508659 1.947714 -1.211961 0
M  V30 36 F 1.748917 2.474249 -1.307962 0
M  V30 37 H 2.901511 1.907711 0.525675 0
M  V30 38 H 2.458773 1.387243 3.394477 0
M  V30 39 H 2.950739 -0.161247 2.676558 0
M  V30 40 H 7.302815 0.348403 1.070805 0
M  V30 41 H 8.218170 2.206576 2.313311 0
M  V30 42 H 6.687005 3.569294 3.749852 0
M  V30 43 H -1.364154 0.152210 0.862202 0
M  V30 44 H -3.882215 0.532337 -1.803435 0
M  V30 45 H -4.413383 1.939387 -0.114163 0
M  V30 46 H -3.450076 1.101739 1.167014 0
M  V30 47 H -5.105417 -0.589136 1.381978 0
M  V30 48 H -6.192991 0.723816 0.734993 0
M  V30 49 H -6.516269 -1.124978 -0.565055 0
M  V30 50 H -4.722399 -2.337237 0.291625 0
M  V30 51 H -4.763282 -2.499474 -1.458311 0
M  V30 52 H -2.721357 -1.321356 0.344917 0
M  V30 53 H -2.794395 -1.411143 -2.704673 0
M  V30 54 H -1.362228 -1.135655 -1.670694 0
M  V30 55 H -1.836312 -5.515159 -2.445918 0
M  V30 56 H -0.824311 -7.287098 -1.193083 0
M  V30 57 H -0.885714 -2.754599 0.664745 0
M  V30 58 H 0.894861 -6.469814 3.386797 0
M  V30 59 H 2.090084 -5.979357 2.048875 0
M  V30 60 H -2.331180 1.768450 -2.963548 0
M  V30 61 H -0.028922 2.732294 -3.119423 0
M  V30 END ATOM
M  V30 BEGIN BOND
M  V30 1 2 1 2
M  V30 2 1 2 3
M  V30 3 1 3 4
M  V30 4 1 4 5
M  V30 5 2 5 6
M  V30 6 1 6 7
M  V30 7 1 6 8
M  V30 8 2 8 9
M  V30 9 1 9 10
M  V30 10 2 10 11
M  V30 11 1 11 12
M  V30 12 1 2 13
M  V30 13 2 13 14
M  V30 14 1 14 15
M  V30 15 1 15 16
M  V30 16 1 16 17
M  V30 17 1 17 18
M  V30 18 1 18 19
M  V30 19 1 19 20
M  V30 20 1 20 21
M  V30 21 1 21 22
M  V30 22 1 22 23
M  V30 23 1 23 24
M  V30 24 2 24 25
M  V30 25 1 25 26
M  V30 26 2 26 27
M  V30 27 1 27 28
M  V30 28 2 28 29
M  V30 29 1 28 30
M  V30 30 1 30 31
M  V30 31 1 31 32
M  V30 32 2 15 33
M  V30 33 1 33 34
M  V30 34 2 34 35
M  V30 35 1 35 36
M  V30 36 1 11 5
M  V30 37 1 35 13
M  V30 38 1 21 16
M  V30 39 1 29 24
M  V30 40 1 32 27
M  V30 41 1 3 37
M  V30 42 1 4 38
M  V30 43 1 4 39
M  V30 44 1 8 40
M  V30 45 1 9 41
M  V30 46 1 10 42
M  V30 47 1 14 43
M  V30 48 1 16 44 CFG=3
M  V30 49 1 17 45
M  V30 50 1 17 46
M  V30 51 1 18 47
M  V30 52 1 18 48
M  V30 53 1 19 49
M  V30 54 1 20 50
M  V30 55 1 20 51
M  V30 56 1 21 52 CFG=1
M  V30 57 1 22 53
M  V30 58 1 22 54
M  V30 59 1 25 55
M  V30 60 1 26 56
M  V30 61 1 29 57
M  V30 62 1 31 58
M  V30 63 1 31 59
M  V30 64 1 33 60
M  V30 65 1 34 61
M  V30 END BOND
M  V30 END CTAB
M  END
>  <Dataset>  (830) 
ChEMBL_Kinases

>  <Ligand_Instance>  (830) 
nan

>  <PDB_ID>  (830) 
nan

>  <Standardized_SMILES>  (830) 
O=C(NCc1c(F)cccc1F)c1cc([C@@H]2CCNC[C@H]2COc2ccc3c(c2)OCO3)ccc1F

>  <Name>  (830) 
nan

>  <Pocket>  (830) 
nan

>  <ATP_Site>  (830) 
nan

>  <Peripheral>  (830) 
nan

>  <Num_H_Atoms_ProtBoundConf>  (830) 
nan

>  <Num_Resolved_Atoms>  (830) 
nan

>  <Num_Not_Resolved_Atoms>  (830) 
nan

$$$$
CHEMBL4091279
     RDKit          3D

  0  0  0  0  0  0  0  0  0  0999 V3000
M  V30 BEGIN CTAB
M  V30 COUNTS 40 43 0 0 0
M  V30 BEGIN ATOM
M  V30 1 C 0.098318 -6.157822 0.572828 0
M  V30 2 C 1.346005 -5.531079 1.065498 0
M  V30 3 N 2.431863 -6.240785 1.482697 0
M  V30 4 N 3.397849 -5.401134 1.867545 0
M  V30 5 C 2.955679 -4.123738 1.706864 0
M  V30 6 C 1.685517 -4.226060 1.210160 0
M  V30 7 C 0.881058 -3.102018 0.906453 0
M  V30 8 C 0.976629 -1.700058 0.957020 0
M  V30 9 C -0.093209 -0.975845 0.545846 0
M  V30 10 N -0.167720 0.366084 0.529460 0
M  V30 11 C -1.263204 1.014047 0.107611 0
M  V30 12 C -1.211189 2.515404 0.142257 0
M  V30 13 C -0.175116 3.090395 -0.761811 0
M  V30 14 C 1.212674 2.979103 -0.222626 0
M  V30 15 C 1.320257 3.671933 1.109674 0
M  V30 16 C 0.352117 3.000073 2.061837 0
M  V30 17 C -1.043643 3.031130 1.534206 0
M  V30 18 N -2.381166 0.412207 -0.334883 0
M  V30 19 C -2.394426 -0.925441 -0.352751 0
M  V30 20 O -3.324002 -1.684266 -0.723133 0
M  V30 21 C -1.297117 -1.569851 0.069855 0
M  V30 22 S -0.864733 -3.389394 0.221628 0
M  V30 23 H -0.069036 -5.960303 -0.486893 0
M  V30 24 H -0.732773 -5.737997 1.204494 0
M  V30 25 H 0.104621 -7.248307 0.729662 0
M  V30 26 H 4.334458 -5.686071 2.230450 0
M  V30 27 H 3.495099 -3.232478 1.925707 0
M  V30 28 H 1.915532 -1.345393 1.327212 0
M  V30 29 H -2.195963 2.897033 -0.218018 0
M  V30 30 H -0.197916 2.657513 -1.780203 0
M  V30 31 H -0.426702 4.170221 -0.890848 0
M  V30 32 H 1.508276 1.923015 -0.102123 0
M  V30 33 H 1.926243 3.480873 -0.908850 0
M  V30 34 H 1.038281 4.738531 1.030345 0
M  V30 35 H 2.328731 3.551479 1.549940 0
M  V30 36 H 0.673390 1.964761 2.273118 0
M  V30 37 H 0.387717 3.555170 3.003600 0
M  V30 38 H -1.425913 4.065683 1.559468 0
M  V30 39 H -1.670303 2.409732 2.225521 0
M  V30 40 H -3.232705 0.895206 -0.662992 0
M  V30 END ATOM
M  V30 BEGIN BOND
M  V30 1 1 1 2
M  V30 2 2 2 3
M  V30 3 1 3 4
M  V30 4 1 4 5
M  V30 5 2 5 6
M  V30 6 1 6 7
M  V30 7 2 7 8
M  V30 8 1 8 9
M  V30 9 1 9 10
M  V30 10 2 10 11
M  V30 11 1 11 12
M  V30 12 1 12 13
M  V30 13 1 13 14
M  V30 14 1 14 15
M  V30 15 1 15 16
M  V30 16 1 16 17
M  V30 17 1 11 18
M  V30 18 1 18 19
M  V30 19 2 19 20
M  V30 20 1 19 21
M  V30 21 1 21 22
M  V30 22 1 6 2
M  V30 23 1 22 7
M  V30 24 2 21 9
M  V30 25 1 17 12
M  V30 26 1 1 23
M  V30 27 1 1 24
M  V30 28 1 1 25
M  V30 29 1 4 26
M  V30 30 1 5 27
M  V30 31 1 8 28
M  V30 32 1 12 29
M  V30 33 1 13 30
M  V30 34 1 13 31
M  V30 35 1 14 32
M  V30 36 1 14 33
M  V30 37 1 15 34
M  V30 38 1 15 35
M  V30 39 1 16 36
M  V30 40 1 16 37
M  V30 41 1 17 38
M  V30 42 1 17 39
M  V30 43 1 18 40
M  V30 END BOND
M  V30 END CTAB
M  END
>  <Dataset>  (831) 
ChEMBL_Kinases

>  <Ligand_Instance>  (831) 
nan

>  <PDB_ID>  (831) 
nan

>  <Standardized_SMILES>  (831) 
Cc1n[nH]cc1-c1cc2nc(C3CCCCC3)[nH]c(=O)c2s1

>  <Name>  (831) 
nan

>  <Pocket>  (831) 
nan

>  <ATP_Site>  (831) 
nan

>  <Peripheral>  (831) 
nan

>  <Num_H_Atoms_ProtBoundConf>  (831) 
nan

>  <Num_Resolved_Atoms>  (831) 
nan

>  <Num_Not_Resolved_Atoms>  (831) 
nan

$$$$
CHEMBL4091128
     RDKit          3D

  0  0  0  0  0  0  0  0  0  0999 V3000
M  V30 BEGIN CTAB
M  V30 COUNTS 63 67 0 0 0
M  V30 BEGIN ATOM
M  V30 1 C 4.320178 0.433091 5.301711 0
M  V30 2 O 4.559281 1.804789 5.196694 0
M  V30 3 C 4.118430 2.598146 4.145846 0
M  V30 4 C 4.412139 3.965640 4.135370 0
M  V30 5 C 3.986122 4.788638 3.098848 0
M  V30 6 C 3.249243 4.248953 2.041758 0
M  V30 7 C 2.954472 2.901987 2.042648 0
M  V30 8 C 2.183115 2.380341 0.919465 0
M  V30 9 C 1.798183 1.074320 0.753538 0
M  V30 10 C 1.064268 0.638385 -0.336312 0
M  V30 11 N 0.739121 -0.767873 -0.360671 0
M  V30 12 C 0.051308 -1.256733 0.711068 0
M  V30 13 C -0.133241 -2.618570 0.445627 0
M  V30 14 C -0.833956 -3.538871 1.352350 0
M  V30 15 N -2.140393 -3.810137 0.824052 0
M  V30 16 C -2.892824 -2.576227 0.703760 0
M  V30 17 C -4.278155 -2.833822 0.157204 0
M  V30 18 C -4.158653 -3.460154 -1.190231 0
M  V30 19 C -3.918636 -2.413716 -2.243753 0
M  V30 20 C -5.148382 -1.502405 -2.257433 0
M  V30 21 C -5.132519 -0.741789 -0.955208 0
M  V30 22 C -5.173603 -1.649147 0.247144 0
M  V30 23 C 0.436831 -2.931686 -0.765779 0
M  V30 24 C 0.564897 -4.078197 -1.521723 0
M  V30 25 C 1.231781 -3.982374 -2.730942 0
M  V30 26 C 1.767181 -2.796889 -3.203438 0
M  V30 27 F 2.412879 -2.768094 -4.402503 0
M  V30 28 C 1.643784 -1.641179 -2.452104 0
M  V30 29 C 0.973711 -1.753620 -1.244307 0
M  V30 30 C 0.695842 1.556683 -1.311846 0
M  V30 31 C 1.088711 2.866465 -1.133797 0
M  V30 32 N 1.812460 3.249828 -0.041427 0
M  V30 33 C 3.388058 2.105262 3.082270 0
M  V30 34 H 3.331676 0.228289 5.791182 0
M  V30 35 H 4.300519 -0.109038 4.348518 0
M  V30 36 H 5.116470 -0.046865 5.939150 0
M  V30 37 H 4.986493 4.331408 4.980127 0
M  V30 38 H 4.262248 5.836567 3.178140 0
M  V30 39 H 2.963028 4.962001 1.285596 0
M  V30 40 H 2.091607 0.371794 1.519151 0
M  V30 41 H -0.309958 -0.757922 1.613562 0
M  V30 42 H -0.920280 -3.146808 2.386735 0
M  V30 43 H -0.210744 -4.449785 1.439471 0
M  V30 44 H -2.600049 -4.496072 1.473555 0
M  V30 45 H -2.309825 -1.921906 0.012268 0
M  V30 46 H -2.984488 -2.019897 1.659952 0
M  V30 47 H -4.720998 -3.615424 0.840956 0
M  V30 48 H -5.073373 -4.050282 -1.407911 0
M  V30 49 H -3.283535 -4.140030 -1.171589 0
M  V30 50 H -3.076720 -1.770196 -1.893886 0
M  V30 51 H -3.740038 -2.873597 -3.236969 0
M  V30 52 H -5.094219 -0.740816 -3.063536 0
M  V30 53 H -6.073276 -2.090813 -2.297360 0
M  V30 54 H -4.327584 -0.004175 -0.877155 0
M  V30 55 H -6.091232 -0.150579 -0.915146 0
M  V30 56 H -6.236126 -1.948663 0.442138 0
M  V30 57 H -4.892256 -1.044083 1.133260 0
M  V30 58 H 0.135516 -4.978668 -1.120278 0
M  V30 59 H 1.312869 -4.893806 -3.293081 0
M  V30 60 H 2.057326 -0.710692 -2.810355 0
M  V30 61 H 0.124979 1.176819 -2.143964 0
M  V30 62 H 0.795673 3.573255 -1.900999 0
M  V30 63 H 3.169201 1.056371 3.100880 0
M  V30 END ATOM
M  V30 BEGIN BOND
M  V30 1 1 1 2
M  V30 2 1 2 3
M  V30 3 2 3 4
M  V30 4 1 4 5
M  V30 5 2 5 6
M  V30 6 1 6 7
M  V30 7 1 7 8
M  V30 8 2 8 9
M  V30 9 1 9 10
M  V30 10 1 10 11
M  V30 11 1 11 12
M  V30 12 2 12 13
M  V30 13 1 13 14
M  V30 14 1 14 15
M  V30 15 1 15 16
M  V30 16 1 16 17
M  V30 17 1 17 18
M  V30 18 1 18 19
M  V30 19 1 19 20
M  V30 20 1 20 21
M  V30 21 1 21 22
M  V30 22 1 13 23
M  V30 23 2 23 24
M  V30 24 1 24 25
M  V30 25 2 25 26
M  V30 26 1 26 27
M  V30 27 1 26 28
M  V30 28 2 28 29
M  V30 29 2 10 30
M  V30 30 1 30 31
M  V30 31 2 31 32
M  V30 32 2 7 33
M  V30 33 1 33 3
M  V30 34 1 32 8
M  V30 35 1 29 11
M  V30 36 1 22 17
M  V30 37 1 29 23
M  V30 38 1 1 34
M  V30 39 1 1 35
M  V30 40 1 1 36
M  V30 41 1 4 37
M  V30 42 1 5 38
M  V30 43 1 6 39
M  V30 44 1 9 40
M  V30 45 1 12 41
M  V30 46 1 14 42
M  V30 47 1 14 43
M  V30 48 1 15 44
M  V30 49 1 16 45
M  V30 50 1 16 46
M  V30 51 1 17 47
M  V30 52 1 18 48
M  V30 53 1 18 49
M  V30 54 1 19 50
M  V30 55 1 19 51
M  V30 56 1 20 52
M  V30 57 1 20 53
M  V30 58 1 21 54
M  V30 59 1 21 55
M  V30 60 1 22 56
M  V30 61 1 22 57
M  V30 62 1 24 58
M  V30 63 1 25 59
M  V30 64 1 28 60
M  V30 65 1 30 61
M  V30 66 1 31 62
M  V30 67 1 33 63
M  V30 END BOND
M  V30 END CTAB
M  END
>  <Dataset>  (832) 
ChEMBL_Kinases

>  <Ligand_Instance>  (832) 
nan

>  <PDB_ID>  (832) 
nan

>  <Standardized_SMILES>  (832) 
COc1cccc(-c2cc(-n3cc(CNCC4CCCCC4)c4ccc(F)cc43)ccn2)c1

>  <Name>  (832) 
nan

>  <Pocket>  (832) 
nan

>  <ATP_Site>  (832) 
nan

>  <Peripheral>  (832) 
nan

>  <Num_H_Atoms_ProtBoundConf>  (832) 
nan

>  <Num_Resolved_Atoms>  (832) 
nan

>  <Num_Not_Resolved_Atoms>  (832) 
nan

$$$$
CHEMBL4845942
     RDKit          3D

  0  0  0  0  0  0  0  0  0  0999 V3000
M  V30 BEGIN CTAB
M  V30 COUNTS 48 51 0 0 0
M  V30 BEGIN ATOM
M  V30 1 C 2.542015 -4.899131 -0.599430 0
M  V30 2 C 1.524599 -3.776467 -0.397579 0
M  V30 3 C 0.248120 -4.219016 -1.004713 0
M  V30 4 C 2.083606 -2.469024 -1.007641 0
M  V30 5 O 3.274834 -2.275653 -0.276795 0
M  V30 6 C 3.340769 -1.283877 0.667488 0
M  V30 7 O 4.402826 -1.277993 1.356467 0
M  V30 8 N 2.374755 -0.287285 0.950876 0
M  V30 9 C 2.559612 0.709874 1.967318 0
M  V30 10 C 2.618933 2.142224 1.386610 0
M  V30 11 C 2.062782 2.572200 2.724613 0
M  V30 12 C 1.487754 1.155255 2.847236 0
M  V30 13 C 1.179908 -0.323219 0.156413 0
M  V30 14 N 0.226236 0.577036 0.263494 0
M  V30 15 C -0.884359 0.606328 -0.522649 0
M  V30 16 N -1.685249 1.707198 -0.109537 0
M  V30 17 C -2.807335 1.375813 0.713202 0
M  V30 18 C -3.190726 0.043956 0.886035 0
M  V30 19 C -4.268610 -0.339803 1.678249 0
M  V30 20 F -4.613725 -1.659812 1.817871 0
M  V30 21 C -4.992294 0.671703 2.325578 0
M  V30 22 O -6.077150 0.357102 3.128565 0
M  V30 23 C -4.633485 2.010620 2.172866 0
M  V30 24 F -5.339571 3.004824 2.805475 0
M  V30 25 C -3.544870 2.353226 1.369065 0
M  V30 26 N -0.936516 -0.375181 -1.439218 0
M  V30 27 C 0.022531 -1.299525 -1.562542 0
M  V30 28 C 1.178066 -1.349624 -0.759582 0
M  V30 29 H 2.244385 -5.686712 0.122965 0
M  V30 30 H 3.575075 -4.539639 -0.408236 0
M  V30 31 H 2.391449 -5.276376 -1.627854 0
M  V30 32 H 1.408286 -3.648016 0.698278 0
M  V30 33 H 0.319500 -4.250986 -2.120625 0
M  V30 34 H 0.027470 -5.280768 -0.707846 0
M  V30 35 H -0.604897 -3.615494 -0.702940 0
M  V30 36 H 2.281810 -2.616062 -2.084363 0
M  V30 37 H 3.522373 0.578660 2.502643 0
M  V30 38 H 1.900977 2.215252 0.568439 0
M  V30 39 H 3.653609 2.465488 1.166445 0
M  V30 40 H 1.310765 3.379614 2.658563 0
M  V30 41 H 2.848412 2.749875 3.476406 0
M  V30 42 H 0.442939 1.207861 2.529670 0
M  V30 43 H 1.493523 0.860072 3.928368 0
M  V30 44 H -1.538882 2.701469 -0.337905 0
M  V30 45 H -2.635119 -0.759050 0.384951 0
M  V30 46 H -6.568166 -0.535935 3.056325 0
M  V30 47 H -3.227934 3.392104 1.225776 0
M  V30 48 H -0.255005 -1.960317 -2.372069 0
M  V30 END ATOM
M  V30 BEGIN BOND
M  V30 1 1 1 2
M  V30 2 1 2 3
M  V30 3 1 2 4
M  V30 4 1 4 5
M  V30 5 1 5 6
M  V30 6 2 6 7
M  V30 7 1 6 8
M  V30 8 1 8 9
M  V30 9 1 9 10
M  V30 10 1 10 11
M  V30 11 1 11 12
M  V30 12 1 8 13
M  V30 13 2 13 14
M  V30 14 1 14 15
M  V30 15 1 15 16
M  V30 16 1 16 17
M  V30 17 2 17 18
M  V30 18 1 18 19
M  V30 19 1 19 20
M  V30 20 2 19 21
M  V30 21 1 21 22
M  V30 22 1 21 23
M  V30 23 1 23 24
M  V30 24 2 23 25
M  V30 25 2 15 26
M  V30 26 1 26 27
M  V30 27 2 27 28
M  V30 28 1 28 4
M  V30 29 1 12 9
M  V30 30 1 28 13
M  V30 31 1 25 17
M  V30 32 1 1 29
M  V30 33 1 1 30
M  V30 34 1 1 31
M  V30 35 1 2 32
M  V30 36 1 3 33
M  V30 37 1 3 34
M  V30 38 1 3 35
M  V30 39 1 4 36
M  V30 40 1 9 37
M  V30 41 1 10 38
M  V30 42 1 10 39
M  V30 43 1 11 40
M  V30 44 1 11 41
M  V30 45 1 12 42
M  V30 46 1 12 43
M  V30 47 1 16 44
M  V30 48 1 18 45
M  V30 49 1 22 46
M  V30 50 1 25 47
M  V30 51 1 27 48
M  V30 END BOND
M  V30 END CTAB
M  END
>  <Dataset>  (833) 
ChEMBL_Kinases

>  <Ligand_Instance>  (833) 
nan

>  <PDB_ID>  (833) 
nan

>  <Standardized_SMILES>  (833) 
CC(C)C1OC(=O)N(C2CCC2)c2nc(Nc3cc(F)c(O)c(F)c3)ncc21

>  <Name>  (833) 
nan

>  <Pocket>  (833) 
nan

>  <ATP_Site>  (833) 
nan

>  <Peripheral>  (833) 
nan

>  <Num_H_Atoms_ProtBoundConf>  (833) 
nan

>  <Num_Resolved_Atoms>  (833) 
nan

>  <Num_Not_Resolved_Atoms>  (833) 
nan

$$$$
CHEMBL4091112
     RDKit          3D

  0  0  0  0  0  0  0  0  0  0999 V3000
M  V30 BEGIN CTAB
M  V30 COUNTS 38 41 0 0 0
M  V30 BEGIN ATOM
M  V30 1 C 1.040260 -6.383229 2.998171 0
M  V30 2 C 2.274554 -5.548601 3.311871 0
M  V30 3 C 2.028905 -4.188731 2.724351 0
M  V30 4 N 2.881740 -3.169120 2.788897 0
M  V30 5 N 2.308455 -2.146148 2.157588 0
M  V30 6 C 1.100165 -2.518846 1.697248 0
M  V30 7 C 0.048414 -1.835234 0.949679 0
M  V30 8 C 0.304482 -0.513485 0.619351 0
M  V30 9 C -0.629402 0.216505 -0.087161 0
M  V30 10 C -0.495072 1.616937 -0.503938 0
M  V30 11 C -1.124313 2.011290 -1.690809 0
M  V30 12 C -1.054300 3.306395 -2.162877 0
M  V30 13 C -0.331320 4.228900 -1.419932 0
M  V30 14 N -0.092828 5.537103 -1.627332 0
M  V30 15 C 0.675469 6.047655 -0.625703 0
M  V30 16 C 0.933527 5.000469 0.260317 0
M  V30 17 C 0.309473 3.873823 -0.232195 0
M  V30 18 C 0.214193 2.566666 0.204752 0
M  V30 19 C -1.810674 -0.439608 -0.436910 0
M  V30 20 N -2.049663 -1.722095 -0.111807 0
M  V30 21 C -1.145669 -2.437048 0.574958 0
M  V30 22 N -1.282786 -3.798835 0.977556 0
M  V30 23 O 0.988181 -3.759122 2.069512 0
M  V30 24 H 0.862125 -6.297118 1.888465 0
M  V30 25 H 1.151207 -7.432721 3.314622 0
M  V30 26 H 0.130463 -5.983248 3.489550 0
M  V30 27 H 3.144458 -6.046693 2.876138 0
M  V30 28 H 2.350163 -5.412688 4.404998 0
M  V30 29 H 1.194768 0.036450 0.864115 0
M  V30 30 H -1.685820 1.291113 -2.266386 0
M  V30 31 H -1.542670 3.614196 -3.085007 0
M  V30 32 H -0.425792 6.137992 -2.432059 0
M  V30 33 H 1.026583 7.065009 -0.521492 0
M  V30 34 H 1.509968 5.031950 1.170455 0
M  V30 35 H 0.696695 2.238869 1.125815 0
M  V30 36 H -2.630478 0.007604 -0.990456 0
M  V30 37 H -1.712710 -3.904068 1.925078 0
M  V30 38 H -1.686031 -4.113420 1.882759 0
M  V30 END ATOM
M  V30 BEGIN BOND
M  V30 1 1 1 2
M  V30 2 1 2 3
M  V30 3 2 3 4
M  V30 4 1 4 5
M  V30 5 2 5 6
M  V30 6 1 6 7
M  V30 7 2 7 8
M  V30 8 1 8 9
M  V30 9 1 9 10
M  V30 10 2 10 11
M  V30 11 1 11 12
M  V30 12 2 12 13
M  V30 13 1 13 14
M  V30 14 1 14 15
M  V30 15 2 15 16
M  V30 16 1 16 17
M  V30 17 2 17 18
M  V30 18 2 9 19
M  V30 19 1 19 20
M  V30 20 2 20 21
M  V30 21 1 21 22
M  V30 22 1 6 23
M  V30 23 1 23 3
M  V30 24 1 21 7
M  V30 25 1 18 10
M  V30 26 1 17 13
M  V30 27 1 1 24
M  V30 28 1 1 25
M  V30 29 1 1 26
M  V30 30 1 2 27
M  V30 31 1 2 28
M  V30 32 1 8 29
M  V30 33 1 11 30
M  V30 34 1 12 31
M  V30 35 1 14 32
M  V30 36 1 15 33
M  V30 37 1 16 34
M  V30 38 1 18 35
M  V30 39 1 19 36
M  V30 40 1 22 37
M  V30 41 1 22 38
M  V30 END BOND
M  V30 END CTAB
M  END
>  <Dataset>  (834) 
ChEMBL_Kinases

>  <Ligand_Instance>  (834) 
nan

>  <PDB_ID>  (834) 
nan

>  <Standardized_SMILES>  (834) 
CCc1nnc(-c2cc(-c3ccc4[nH]ccc4c3)cnc2N)o1

>  <Name>  (834) 
nan

>  <Pocket>  (834) 
nan

>  <ATP_Site>  (834) 
nan

>  <Peripheral>  (834) 
nan

>  <Num_H_Atoms_ProtBoundConf>  (834) 
nan

>  <Num_Resolved_Atoms>  (834) 
nan

>  <Num_Not_Resolved_Atoms>  (834) 
nan

$$$$
CHEMBL4091092
     RDKit          3D

  0  0  0  0  0  0  0  0  0  0999 V3000
M  V30 BEGIN CTAB
M  V30 COUNTS 28 30 0 0 0
M  V30 BEGIN ATOM
M  V30 1 N 3.235595 -3.875811 1.891773 0
M  V30 2 C 3.190243 -2.707288 2.704301 0
M  V30 3 O 3.987745 -2.767535 3.651139 0
M  V30 4 C 2.310137 -1.570645 2.455164 0
M  V30 5 C 2.402509 -0.523035 3.348946 0
M  V30 6 C 1.542840 0.544176 3.073612 0
M  V30 7 C 0.676490 0.554387 2.004055 0
M  V30 8 N 0.687373 -0.522690 1.216743 0
M  V30 9 C -0.075268 -0.730464 0.114053 0
M  V30 10 C -1.097178 0.062557 -0.566853 0
M  V30 11 C -2.111744 0.720914 0.099481 0
M  V30 12 C -3.033421 1.447276 -0.630526 0
M  V30 13 C -3.005618 1.559042 -1.999990 0
M  V30 14 N -2.010932 0.912988 -2.647052 0
M  V30 15 C -1.091647 0.190940 -1.944222 0
M  V30 16 C 0.241466 -1.970521 -0.414168 0
M  V30 17 N 1.194937 -2.485075 0.388708 0
M  V30 18 C 1.461450 -1.613314 1.368250 0
M  V30 19 H 2.538034 -4.299451 1.209505 0
M  V30 20 H 2.536834 -4.274822 1.226498 0
M  V30 21 H 3.084683 -0.534942 4.188250 0
M  V30 22 H 1.587155 1.398582 3.763989 0
M  V30 23 H 0.029477 1.402699 1.830363 0
M  V30 24 H -2.162133 0.651918 1.191152 0
M  V30 25 H -3.807394 1.944764 -0.072801 0
M  V30 26 H -3.732472 2.130357 -2.559957 0
M  V30 27 H -0.332545 -0.291394 -2.549483 0
M  V30 28 H -0.041010 -2.606601 -1.238321 0
M  V30 END ATOM
M  V30 BEGIN BOND
M  V30 1 1 1 2
M  V30 2 2 2 3
M  V30 3 1 2 4
M  V30 4 2 4 5
M  V30 5 1 5 6
M  V30 6 2 6 7
M  V30 7 1 7 8
M  V30 8 1 8 9
M  V30 9 1 9 10
M  V30 10 2 10 11
M  V30 11 1 11 12
M  V30 12 2 12 13
M  V30 13 1 13 14
M  V30 14 2 14 15
M  V30 15 2 9 16
M  V30 16 1 16 17
M  V30 17 2 17 18
M  V30 18 1 18 4
M  V30 19 1 18 8
M  V30 20 1 15 10
M  V30 21 1 1 19
M  V30 22 1 1 20
M  V30 23 1 5 21
M  V30 24 1 6 22
M  V30 25 1 7 23
M  V30 26 1 11 24
M  V30 27 1 12 25
M  V30 28 1 13 26
M  V30 29 1 15 27
M  V30 30 1 16 28
M  V30 END BOND
M  V30 END CTAB
M  END
>  <Dataset>  (835) 
ChEMBL_Kinases

>  <Ligand_Instance>  (835) 
nan

>  <PDB_ID>  (835) 
nan

>  <Standardized_SMILES>  (835) 
NC(=O)c1cccn2c(-c3cccnc3)cnc12

>  <Name>  (835) 
nan

>  <Pocket>  (835) 
nan

>  <ATP_Site>  (835) 
nan

>  <Peripheral>  (835) 
nan

>  <Num_H_Atoms_ProtBoundConf>  (835) 
nan

>  <Num_Resolved_Atoms>  (835) 
nan

>  <Num_Not_Resolved_Atoms>  (835) 
nan

$$$$
CHEMBL4091089
     RDKit          3D

  0  0  0  0  0  0  0  0  0  0999 V3000
M  V30 BEGIN CTAB
M  V30 COUNTS 67 71 0 0 0
M  V30 BEGIN ATOM
M  V30 1 C 4.343033 -5.177386 4.499466 0
M  V30 2 N 3.786035 -6.464689 4.221784 0
M  V30 3 C 3.653311 -7.326814 5.365631 0
M  V30 4 C 2.714570 -6.529232 3.284961 0
M  V30 5 C 3.151908 -6.269335 1.882632 0
M  V30 6 N 3.738787 -4.996697 1.626472 0
M  V30 7 C 3.007013 -3.912814 1.287720 0
M  V30 8 C 3.793120 -2.806629 1.060017 0
M  V30 9 C 3.312061 -1.487543 0.682056 0
M  V30 10 C 2.167970 -1.448838 -0.088555 0
M  V30 11 C 1.669896 -0.217573 -0.470503 0
M  V30 12 N 2.227766 0.961335 -0.140662 0
M  V30 13 C 1.938442 2.251670 -0.385287 0
M  V30 14 C 0.806875 2.757735 -1.162756 0
M  V30 15 C 1.125236 3.745741 -2.069639 0
M  V30 16 C 0.074726 4.243107 -2.811521 0
M  V30 17 C -1.179696 3.723899 -2.590973 0
M  V30 18 C -2.229089 4.298347 -3.410535 0
M  V30 19 N -3.598951 3.851813 -3.308771 0
M  V30 20 O -2.910373 4.946075 -4.211563 0
M  V30 21 C -1.524051 2.742886 -1.696997 0
M  V30 22 O -2.760233 2.227944 -1.477220 0
M  V30 23 C -3.109041 1.227112 -0.565538 0
M  V30 24 C -4.571778 0.987444 -0.670490 0
M  V30 25 C -5.040808 0.041543 -1.572776 0
M  V30 26 C -6.388132 -0.195217 -1.682627 0
M  V30 27 C -7.291213 0.501976 -0.899693 0
M  V30 28 C -6.854721 1.448870 0.006083 0
M  V30 29 C -7.791059 2.236394 0.884353 0
M  V30 30 F -7.226118 3.479308 1.175798 0
M  V30 31 F -8.895349 2.509287 0.102416 0
M  V30 32 F -8.097037 1.561817 2.028801 0
M  V30 33 C -5.497905 1.666367 0.095726 0
M  V30 34 C -0.463657 2.256625 -0.963676 0
M  V30 35 C 2.920242 3.024468 0.243509 0
M  V30 36 N 3.767285 2.164235 0.846106 0
M  V30 37 C 3.339623 0.888804 0.609073 0
M  V30 38 C 3.918006 -0.306714 1.043745 0
M  V30 39 C 5.055315 -3.249651 1.272426 0
M  V30 40 N 4.973640 -4.545341 1.604023 0
M  V30 41 H 5.427537 -5.074052 4.247935 0
M  V30 42 H 3.721539 -4.387132 4.040133 0
M  V30 43 H 4.251671 -4.950656 5.615133 0
M  V30 44 H 4.008776 -6.799519 6.276091 0
M  V30 45 H 2.637483 -7.679986 5.574295 0
M  V30 46 H 4.273255 -8.257255 5.256131 0
M  V30 47 H 1.922946 -5.746999 3.538100 0
M  V30 48 H 2.241562 -7.544703 3.391145 0
M  V30 49 H 3.850712 -7.115629 1.613383 0
M  V30 50 H 2.228637 -6.369547 1.223996 0
M  V30 51 H 1.909296 -3.880018 1.193883 0
M  V30 52 H 1.666375 -2.371355 -0.390079 0
M  V30 53 H 0.773785 -0.227316 -1.076100 0
M  V30 54 H 2.120135 4.131656 -2.218955 0
M  V30 55 H 0.251857 5.017327 -3.538870 0
M  V30 56 H -4.261080 3.062538 -3.139463 0
M  V30 57 H -4.202310 2.997780 -3.126645 0
M  V30 58 H -2.947751 1.681708 0.456491 0
M  V30 59 H -2.496096 0.327339 -0.583364 0
M  V30 60 H -4.313759 -0.503869 -2.187724 0
M  V30 61 H -6.733628 -0.945742 -2.400702 0
M  V30 62 H -8.348986 0.335177 -0.966913 0
M  V30 63 H -5.122868 2.414990 0.809037 0
M  V30 64 H -0.662134 1.469793 -0.223221 0
M  V30 65 H 2.980469 4.114035 0.240794 0
M  V30 66 H 4.811890 -0.340503 1.646362 0
M  V30 67 H 5.965803 -2.668609 1.190882 0
M  V30 END ATOM
M  V30 BEGIN BOND
M  V30 1 1 1 2
M  V30 2 1 2 3
M  V30 3 1 2 4
M  V30 4 1 4 5
M  V30 5 1 5 6
M  V30 6 1 6 7
M  V30 7 2 7 8
M  V30 8 1 8 9
M  V30 9 1 9 10
M  V30 10 2 10 11
M  V30 11 1 11 12
M  V30 12 1 12 13
M  V30 13 1 13 14
M  V30 14 2 14 15
M  V30 15 1 15 16
M  V30 16 2 16 17
M  V30 17 1 17 18
M  V30 18 1 18 19
M  V30 19 2 18 20
M  V30 20 1 17 21
M  V30 21 1 21 22
M  V30 22 1 22 23
M  V30 23 1 23 24
M  V30 24 2 24 25
M  V30 25 1 25 26
M  V30 26 2 26 27
M  V30 27 1 27 28
M  V30 28 1 28 29
M  V30 29 1 29 30
M  V30 30 1 29 31
M  V30 31 1 29 32
M  V30 32 2 28 33
M  V30 33 2 21 34
M  V30 34 2 13 35
M  V30 35 1 35 36
M  V30 36 2 36 37
M  V30 37 1 37 38
M  V30 38 1 8 39
M  V30 39 2 39 40
M  V30 40 1 40 6
M  V30 41 2 38 9
M  V30 42 1 37 12
M  V30 43 1 34 14
M  V30 44 1 33 24
M  V30 45 1 1 41
M  V30 46 1 1 42
M  V30 47 1 1 43
M  V30 48 1 3 44
M  V30 49 1 3 45
M  V30 50 1 3 46
M  V30 51 1 4 47
M  V30 52 1 4 48
M  V30 53 1 5 49
M  V30 54 1 5 50
M  V30 55 1 7 51
M  V30 56 1 10 52
M  V30 57 1 11 53
M  V30 58 1 15 54
M  V30 59 1 16 55
M  V30 60 1 19 56
M  V30 61 1 19 57
M  V30 62 1 23 58
M  V30 63 1 23 59
M  V30 64 1 25 60
M  V30 65 1 26 61
M  V30 66 1 27 62
M  V30 67 1 33 63
M  V30 68 1 34 64
M  V30 69 1 35 65
M  V30 70 1 38 66
M  V30 71 1 39 67
M  V30 END BOND
M  V30 END CTAB
M  END
>  <Dataset>  (836) 
ChEMBL_Kinases

>  <Ligand_Instance>  (836) 
nan

>  <PDB_ID>  (836) 
nan

>  <Standardized_SMILES>  (836) 
CN(C)CCn1cc(-c2ccn3c(-c4ccc(C(N)=O)c(OCc5cccc(C(F)(F)F)c5)c4)cnc3c2)cn1

>  <Name>  (836) 
nan

>  <Pocket>  (836) 
nan

>  <ATP_Site>  (836) 
nan

>  <Peripheral>  (836) 
nan

>  <Num_H_Atoms_ProtBoundConf>  (836) 
nan

>  <Num_Resolved_Atoms>  (836) 
nan

>  <Num_Not_Resolved_Atoms>  (836) 
nan

$$$$
CHEMBL4091080
     RDKit          3D

  0  0  0  0  0  0  0  0  0  0999 V3000
M  V30 BEGIN CTAB
M  V30 COUNTS 86 88 0 0 0
M  V30 BEGIN ATOM
M  V30 1 O 2.061694 -5.309392 6.582769 0
M  V30 2 C 2.608892 -6.444404 6.639329 0
M  V30 3 O 1.851263 -7.427002 7.260879 0
M  V30 4 C 3.971536 -6.615739 6.051156 0
M  V30 5 C 3.908803 -6.613697 4.550209 0 CFG=2
M  V30 6 N 3.375935 -5.394599 3.985358 0
M  V30 7 C 4.157510 -4.730440 2.983785 0
M  V30 8 O 5.278546 -5.228142 2.625413 0
M  V30 9 C 3.980465 -3.503898 2.186760 0 CFG=2
M  V30 10 C 5.195940 -2.604942 2.239836 0
M  V30 11 C 6.382105 -3.324122 1.704559 0
M  V30 12 O 7.494314 -2.740658 1.689405 0
M  V30 13 O 7.236749 -4.264349 1.155364 0
M  V30 14 N 2.768392 -2.808125 2.515206 0
M  V30 15 C 1.685411 -2.601645 1.631144 0
M  V30 16 O 1.501492 -2.942306 0.427120 0
M  V30 17 C 0.414722 -1.893507 1.894303 0 CFG=2
M  V30 18 C -0.290775 -2.359883 3.116111 0
M  V30 19 C -1.542297 -1.577686 3.273124 0
M  V30 20 O -1.725350 -0.709512 2.360574 0
M  V30 21 O -2.714666 -1.167850 3.820869 0
M  V30 22 N -0.345489 -2.016425 0.667540 0
M  V30 23 C -0.654628 -1.116654 -0.363957 0
M  V30 24 O -0.266025 0.076456 -0.379696 0
M  V30 25 C -1.487961 -1.776084 -1.404518 0
M  V30 26 C -1.682090 -0.777213 -2.531149 0
M  V30 27 C -2.531756 -1.351785 -3.639354 0
M  V30 28 C -2.753491 -0.439424 -4.795519 0
M  V30 29 C -3.434821 0.871822 -4.412669 0
M  V30 30 C -3.655926 1.752682 -5.596286 0
M  V30 31 O -4.272118 2.959584 -5.191552 0
M  V30 32 C -3.727250 3.870801 -4.311404 0
M  V30 33 N -2.519608 3.767599 -3.696010 0
M  V30 34 C -2.063068 4.711223 -2.847794 0
M  V30 35 C -0.823891 4.539269 -2.262173 0
M  V30 36 C -0.322277 5.486436 -1.389874 0
M  V30 37 C 0.979397 5.232373 -0.820418 0
M  V30 38 O 1.617080 4.198697 -1.108018 0
M  V30 39 O 1.595441 6.107636 0.069161 0
M  V30 40 C -1.052496 6.611019 -1.095347 0
M  V30 41 C -2.294782 6.798151 -1.673150 0
M  V30 42 C -2.769139 5.850123 -2.530832 0
M  V30 43 C -3.991077 5.981511 -3.135971 0
M  V30 44 C -4.753416 7.084697 -2.872473 0
M  V30 45 N -5.962889 7.234998 -3.458683 0
M  V30 46 C -6.451072 6.315201 -4.310337 0
M  V30 47 C -5.700659 5.193513 -4.592372 0
M  V30 48 C -4.452825 5.017613 -4.000715 0
M  V30 49 C 2.970009 -7.703615 4.094377 0
M  V30 50 O 2.089165 -7.134143 3.405636 0
M  V30 51 O 2.225538 -8.833555 3.776144 0
M  V30 52 H 0.883790 -7.521314 6.966385 0
M  V30 53 H 4.384743 -7.598190 6.348766 0
M  V30 54 H 4.665707 -5.833366 6.386886 0
M  V30 55 H 4.886273 -6.809299 4.113262 0
M  V30 56 H 2.506664 -4.841970 4.137178 0
M  V30 57 H 3.907598 -3.834395 1.112512 0
M  V30 58 H 5.041965 -1.664713 1.679576 0
M  V30 59 H 5.412082 -2.366575 3.307682 0
M  V30 60 H 7.071733 -4.689760 0.235053 0
M  V30 61 H 2.554845 -2.386626 3.426490 0
M  V30 62 H 0.719855 -0.821038 2.076061 0
M  V30 63 H 0.317288 -2.147449 3.988742 0
M  V30 64 H -0.580452 -3.439768 3.044960 0
M  V30 65 H -3.593228 -1.617640 3.699139 0
M  V30 66 H -0.639056 -3.038489 0.732829 0
M  V30 67 H -2.484309 -2.030645 -0.946173 0
M  V30 68 H -1.055170 -2.738770 -1.739014 0
M  V30 69 H -2.174778 0.105935 -2.078555 0
M  V30 70 H -0.701598 -0.539640 -2.962189 0
M  V30 71 H -2.112736 -2.294756 -4.038883 0
M  V30 72 H -3.515851 -1.633022 -3.180354 0
M  V30 73 H -1.865741 -0.281976 -5.416240 0
M  V30 74 H -3.493714 -0.947831 -5.469923 0
M  V30 75 H -2.834236 1.430241 -3.669358 0
M  V30 76 H -4.427964 0.539585 -3.997091 0
M  V30 77 H -2.646868 2.045482 -6.008955 0
M  V30 78 H -4.263999 1.288308 -6.392326 0
M  V30 79 H -0.252293 3.651609 -2.495936 0
M  V30 80 H 2.512989 5.934036 0.448236 0
M  V30 81 H -0.554751 7.291772 -0.392686 0
M  V30 82 H -2.800298 7.698786 -1.391693 0
M  V30 83 H -4.523456 7.902718 -2.228735 0
M  V30 84 H -7.416327 6.441008 -4.775785 0
M  V30 85 H -6.063473 4.449392 -5.262550 0
M  V30 86 H 1.913690 -9.480242 4.504203 0
M  V30 END ATOM
M  V30 BEGIN BOND
M  V30 1 2 1 2
M  V30 2 1 2 3
M  V30 3 1 2 4
M  V30 4 1 4 5
M  V30 5 1 5 6
M  V30 6 1 6 7
M  V30 7 2 7 8
M  V30 8 1 7 9
M  V30 9 1 9 10
M  V30 10 1 10 11
M  V30 11 2 11 12
M  V30 12 1 11 13
M  V30 13 1 9 14
M  V30 14 1 14 15
M  V30 15 2 15 16
M  V30 16 1 15 17
M  V30 17 1 17 18
M  V30 18 1 18 19
M  V30 19 2 19 20
M  V30 20 1 19 21
M  V30 21 1 17 22
M  V30 22 1 22 23
M  V30 23 2 23 24
M  V30 24 1 23 25
M  V30 25 1 25 26
M  V30 26 1 26 27
M  V30 27 1 27 28
M  V30 28 1 28 29
M  V30 29 1 29 30
M  V30 30 1 30 31
M  V30 31 1 31 32
M  V30 32 2 32 33
M  V30 33 1 33 34
M  V30 34 2 34 35
M  V30 35 1 35 36
M  V30 36 1 36 37
M  V30 37 2 37 38
M  V30 38 1 37 39
M  V30 39 2 36 40
M  V30 40 1 40 41
M  V30 41 2 41 42
M  V30 42 1 42 43
M  V30 43 2 43 44
M  V30 44 1 44 45
M  V30 45 2 45 46
M  V30 46 1 46 47
M  V30 47 2 47 48
M  V30 48 1 5 49
M  V30 49 2 49 50
M  V30 50 1 49 51
M  V30 51 1 48 32
M  V30 52 1 42 34
M  V30 53 1 48 43
M  V30 54 1 3 52
M  V30 55 1 4 53
M  V30 56 1 4 54
M  V30 57 1 5 55 CFG=3
M  V30 58 1 6 56
M  V30 59 1 9 57 CFG=3
M  V30 60 1 10 58
M  V30 61 1 10 59
M  V30 62 1 13 60
M  V30 63 1 14 61
M  V30 64 1 17 62 CFG=1
M  V30 65 1 18 63
M  V30 66 1 18 64
M  V30 67 1 21 65
M  V30 68 1 22 66
M  V30 69 1 25 67
M  V30 70 1 25 68
M  V30 71 1 26 69
M  V30 72 1 26 70
M  V30 73 1 27 71
M  V30 74 1 27 72
M  V30 75 1 28 73
M  V30 76 1 28 74
M  V30 77 1 29 75
M  V30 78 1 29 76
M  V30 79 1 30 77
M  V30 80 1 30 78
M  V30 81 1 35 79
M  V30 82 1 39 80
M  V30 83 1 40 81
M  V30 84 1 41 82
M  V30 85 1 44 83
M  V30 86 1 46 84
M  V30 87 1 47 85
M  V30 88 1 51 86
M  V30 END BOND
M  V30 END CTAB
M  END
>  <Dataset>  (837) 
ChEMBL_Kinases

>  <Ligand_Instance>  (837) 
nan

>  <PDB_ID>  (837) 
nan

>  <Standardized_SMILES>  (837) 
O=C(O)C[C@H](NC(=O)[C@H](CC(=O)O)NC(=O)[C@H](CC(=O)O)NC(=O)CCCCCCOc1nc2cc(C(=O)O)ccc2c2cnccc12)C(=O)O

>  <Name>  (837) 
nan

>  <Pocket>  (837) 
nan

>  <ATP_Site>  (837) 
nan

>  <Peripheral>  (837) 
nan

>  <Num_H_Atoms_ProtBoundConf>  (837) 
nan

>  <Num_Resolved_Atoms>  (837) 
nan

>  <Num_Not_Resolved_Atoms>  (837) 
nan

$$$$
CHEMBL4845745
     RDKit          3D

  0  0  0  0  0  0  0  0  0  0999 V3000
M  V30 BEGIN CTAB
M  V30 COUNTS 39 40 0 0 0
M  V30 BEGIN ATOM
M  V30 1 C -2.868084 -4.462989 1.522242 0
M  V30 2 C -1.909150 -4.308929 0.333742 0
M  V30 3 C -0.854409 -5.384261 0.483920 0
M  V30 4 C -1.283734 -2.957229 0.484532 0
M  V30 5 C -0.297122 -2.590094 -0.583929 0 CFG=1
M  V30 6 N -0.982098 -2.608663 -1.847469 0
M  V30 7 C 0.220250 -1.243488 -0.226300 0
M  V30 8 O 0.816987 -1.292776 0.903780 0
M  V30 9 N 0.149040 0.000259 -0.915470 0
M  V30 10 C 0.810804 1.000224 -0.134497 0
M  V30 11 C 2.154890 1.285924 -0.260177 0
M  V30 12 C 2.695494 2.284396 0.555927 0
M  V30 13 C 1.852686 2.933976 1.447603 0
M  V30 14 C 2.387278 3.987866 2.319889 0
M  V30 15 C 3.717517 4.415943 2.338065 0
M  V30 16 N 3.807843 5.391526 3.267704 0
M  V30 17 C 2.584405 5.550931 3.793517 0
M  V30 18 O 1.752577 4.709053 3.218947 0
M  V30 19 C 0.497246 2.645616 1.574101 0
M  V30 20 F -0.274032 3.319809 2.468322 0
M  V30 21 C -0.029725 1.655320 0.761900 0
M  V30 22 H -3.922436 -4.336204 1.174511 0
M  V30 23 H -2.642268 -3.745026 2.326147 0
M  V30 24 H -2.805942 -5.483460 1.949619 0
M  V30 25 H -2.408782 -4.472363 -0.618583 0
M  V30 26 H -1.004058 -6.208372 -0.260321 0
M  V30 27 H 0.167099 -4.971411 0.403933 0
M  V30 28 H -0.934934 -5.917660 1.475685 0
M  V30 29 H -2.079956 -2.175863 0.471277 0
M  V30 30 H -0.776041 -2.891394 1.453872 0
M  V30 31 H 0.590674 -3.252129 -0.608985 0
M  V30 32 H -0.511532 -2.101234 -2.603690 0
M  V30 33 H -1.979662 -2.321374 -1.763070 0
M  V30 34 H -0.366174 -0.115571 -1.820232 0
M  V30 35 H 2.750808 0.747096 -0.968660 0
M  V30 36 H 3.724878 2.547086 0.502720 0
M  V30 37 H 4.507824 4.010350 1.701570 0
M  V30 38 H 2.412505 6.286538 4.566960 0
M  V30 39 H -1.083700 1.427779 0.857012 0
M  V30 END ATOM
M  V30 BEGIN BOND
M  V30 1 1 1 2
M  V30 2 1 2 3
M  V30 3 1 2 4
M  V30 4 1 4 5
M  V30 5 1 5 6
M  V30 6 1 5 7
M  V30 7 2 7 8
M  V30 8 1 7 9
M  V30 9 1 9 10
M  V30 10 2 10 11
M  V30 11 1 11 12
M  V30 12 2 12 13
M  V30 13 1 13 14
M  V30 14 2 14 15
M  V30 15 1 15 16
M  V30 16 2 16 17
M  V30 17 1 17 18
M  V30 18 1 13 19
M  V30 19 1 19 20
M  V30 20 2 19 21
M  V30 21 1 21 10
M  V30 22 1 18 14
M  V30 23 1 1 22
M  V30 24 1 1 23
M  V30 25 1 1 24
M  V30 26 1 2 25
M  V30 27 1 3 26
M  V30 28 1 3 27
M  V30 29 1 3 28
M  V30 30 1 4 29
M  V30 31 1 4 30
M  V30 32 1 5 31 CFG=3
M  V30 33 1 6 32
M  V30 34 1 6 33
M  V30 35 1 9 34
M  V30 36 1 11 35
M  V30 37 1 12 36
M  V30 38 1 15 37
M  V30 39 1 17 38
M  V30 40 1 21 39
M  V30 END BOND
M  V30 END CTAB
M  END
>  <Dataset>  (838) 
ChEMBL_Kinases

>  <Ligand_Instance>  (838) 
nan

>  <PDB_ID>  (838) 
nan

>  <Standardized_SMILES>  (838) 
CC(C)C[C@@H](N)C(=O)Nc1ccc(-c2cnco2)c(F)c1

>  <Name>  (838) 
nan

>  <Pocket>  (838) 
nan

>  <ATP_Site>  (838) 
nan

>  <Peripheral>  (838) 
nan

>  <Num_H_Atoms_ProtBoundConf>  (838) 
nan

>  <Num_Resolved_Atoms>  (838) 
nan

>  <Num_Not_Resolved_Atoms>  (838) 
nan

$$$$
CHEMBL4091061
     RDKit          3D

  0  0  0  0  0  0  0  0  0  0999 V3000
M  V30 BEGIN CTAB
M  V30 COUNTS 51 52 0 0 0
M  V30 BEGIN ATOM
M  V30 1 C 5.153770 -4.241355 5.204223 0
M  V30 2 C 4.176529 -4.229458 4.060579 0
M  V30 3 C 4.684213 -3.468367 2.868183 0
M  V30 4 C 4.974233 -2.022925 3.183282 0
M  V30 5 C 3.781573 -1.267136 3.664149 0
M  V30 6 C 2.640340 -1.218856 2.693253 0
M  V30 7 C 3.041943 -0.554198 1.378807 0
M  V30 8 C 1.829545 -0.578231 0.528543 0
M  V30 9 O 0.781630 -1.107915 1.035963 0
M  V30 10 N 1.663921 -0.088511 -0.791093 0
M  V30 11 N 0.358237 -0.303623 -1.244501 0
M  V30 12 C -0.624889 0.692616 -1.020494 0
M  V30 13 O -0.153712 1.696129 -0.404689 0
M  V30 14 C -2.031067 0.729094 -1.378050 0
M  V30 15 C -2.729434 1.862149 -1.012933 0
M  V30 16 O -2.165283 2.957041 -0.329239 0
M  V30 17 C -4.082926 1.945368 -1.333890 0
M  V30 18 C -4.785027 3.083881 -0.966824 0
M  V30 19 C -6.125835 3.252485 -1.242535 0
M  V30 20 C -6.738033 2.222943 -1.907332 0
M  V30 21 C -6.112969 1.060357 -2.306737 0
M  V30 22 C -4.763587 0.957719 -1.996546 0
M  V30 23 N -4.057316 -0.133245 -2.339041 0
M  V30 24 C -4.744470 -1.199846 -3.041735 0
M  V30 25 C -2.754482 -0.232063 -2.039196 0
M  V30 26 O -2.169306 -1.262852 -2.384705 0
M  V30 27 H 5.333828 -5.259163 5.556675 0
M  V30 28 H 6.088617 -3.675638 4.980558 0
M  V30 29 H 4.643782 -3.720876 6.067590 0
M  V30 30 H 3.162893 -3.894710 4.375503 0
M  V30 31 H 4.037620 -5.276900 3.723773 0
M  V30 32 H 5.633682 -3.935865 2.544932 0
M  V30 33 H 3.948337 -3.570083 2.060975 0
M  V30 34 H 5.364536 -1.534322 2.275432 0
M  V30 35 H 5.758109 -1.932097 3.960829 0
M  V30 36 H 3.417448 -1.549054 4.659860 0
M  V30 37 H 4.121282 -0.195907 3.779888 0
M  V30 38 H 1.872226 -0.542818 3.147113 0
M  V30 39 H 2.172077 -2.192398 2.528341 0
M  V30 40 H 3.283371 0.515834 1.532649 0
M  V30 41 H 3.902786 -1.050226 0.939598 0
M  V30 42 H 2.551043 0.346801 -1.187975 0
M  V30 43 H 0.026360 -1.154307 -1.748355 0
M  V30 44 H -2.005174 2.847450 0.669901 0
M  V30 45 H -4.296042 3.910061 -0.434092 0
M  V30 46 H -6.670062 4.134298 -0.958291 0
M  V30 47 H -7.789498 2.302848 -2.149109 0
M  V30 48 H -6.637829 0.282756 -2.825516 0
M  V30 49 H -5.418366 -1.778142 -2.354983 0
M  V30 50 H -5.315489 -0.820585 -3.918492 0
M  V30 51 H -3.985432 -1.934863 -3.379586 0
M  V30 END ATOM
M  V30 BEGIN BOND
M  V30 1 1 1 2
M  V30 2 1 2 3
M  V30 3 1 3 4
M  V30 4 1 4 5
M  V30 5 1 5 6
M  V30 6 1 6 7
M  V30 7 1 7 8
M  V30 8 2 8 9
M  V30 9 1 8 10
M  V30 10 1 10 11
M  V30 11 1 11 12
M  V30 12 2 12 13
M  V30 13 1 12 14
M  V30 14 2 14 15
M  V30 15 1 15 16
M  V30 16 1 15 17
M  V30 17 2 17 18
M  V30 18 1 18 19
M  V30 19 2 19 20
M  V30 20 1 20 21
M  V30 21 2 21 22
M  V30 22 1 22 23
M  V30 23 1 23 24
M  V30 24 1 23 25
M  V30 25 2 25 26
M  V30 26 1 25 14
M  V30 27 1 22 17
M  V30 28 1 1 27
M  V30 29 1 1 28
M  V30 30 1 1 29
M  V30 31 1 2 30
M  V30 32 1 2 31
M  V30 33 1 3 32
M  V30 34 1 3 33
M  V30 35 1 4 34
M  V30 36 1 4 35
M  V30 37 1 5 36
M  V30 38 1 5 37
M  V30 39 1 6 38
M  V30 40 1 6 39
M  V30 41 1 7 40
M  V30 42 1 7 41
M  V30 43 1 10 42
M  V30 44 1 11 43
M  V30 45 1 16 44
M  V30 46 1 18 45
M  V30 47 1 19 46
M  V30 48 1 20 47
M  V30 49 1 21 48
M  V30 50 1 24 49
M  V30 51 1 24 50
M  V30 52 1 24 51
M  V30 END BOND
M  V30 END CTAB
M  END
>  <Dataset>  (839) 
ChEMBL_Kinases

>  <Ligand_Instance>  (839) 
nan

>  <PDB_ID>  (839) 
nan

>  <Standardized_SMILES>  (839) 
CCCCCCCC(=O)NNC(=O)c1c(O)c2ccccc2n(C)c1=O

>  <Name>  (839) 
nan

>  <Pocket>  (839) 
nan

>  <ATP_Site>  (839) 
nan

>  <Peripheral>  (839) 
nan

>  <Num_H_Atoms_ProtBoundConf>  (839) 
nan

>  <Num_Resolved_Atoms>  (839) 
nan

>  <Num_Not_Resolved_Atoms>  (839) 
nan

$$$$
CHEMBL4845775
     RDKit          3D

  0  0  0  0  0  0  0  0  0  0999 V3000
M  V30 BEGIN CTAB
M  V30 COUNTS 85 90 0 0 0
M  V30 BEGIN ATOM
M  V30 1 C 2.302382 -3.931776 5.111219 0
M  V30 2 O 1.315234 -2.996898 4.711318 0
M  V30 3 C 1.464345 -2.389406 3.460782 0
M  V30 4 C 2.506189 -2.642858 2.594380 0
M  V30 5 C 2.662122 -2.059828 1.378322 0
M  V30 6 N 3.748142 -2.374043 0.543502 0
M  V30 7 C 4.633467 -3.499902 0.724630 0
M  V30 8 C 4.489398 -4.426332 -0.467403 0
M  V30 9 N 4.914964 -3.724049 -1.642525 0
M  V30 10 C 4.701370 -4.537830 -2.826723 0
M  V30 11 C 4.246643 -2.472943 -1.839109 0
M  V30 12 C 4.153019 -1.603768 -0.621156 0
M  V30 13 C 1.713758 -1.145958 0.972606 0
M  V30 14 C 0.662244 -0.899393 1.863277 0
M  V30 15 C 0.468939 -1.467366 3.097643 0
M  V30 16 N -0.634083 -1.079974 3.894021 0
M  V30 17 C -1.796183 -0.309759 3.645072 0
M  V30 18 N -2.359193 0.146861 4.775326 0
M  V30 19 C -3.482052 0.866271 4.833611 0
M  V30 20 C -4.064508 1.129268 3.611414 0
M  V30 21 C -5.221796 1.855983 3.656961 0
M  V30 22 C -5.804244 2.340635 4.933451 0
M  V30 23 C -5.845661 2.131346 2.461402 0
M  V30 24 C -5.257330 1.652209 1.294826 0
M  V30 25 O -5.941055 1.978876 0.265847 0
M  V30 26 N -4.089363 0.923427 1.294474 0
M  V30 27 C -3.743975 0.552937 -0.015122 0 CFG=1
M  V30 28 C -3.402680 1.711214 -0.960326 0
M  V30 29 C -3.695143 1.177018 -2.345846 0
M  V30 30 C -2.737725 0.083745 -2.657806 0 CFG=1
M  V30 31 N -1.378947 0.554196 -2.861290 0
M  V30 32 C -0.728565 0.383449 -4.111298 0
M  V30 33 O -1.250290 -0.178245 -5.134272 0
M  V30 34 C 0.665301 0.885814 -4.275486 0
M  V30 35 C 0.617959 2.400467 -4.035698 0
M  V30 36 C 2.089262 2.718612 -3.910745 0
M  V30 37 C 2.733803 1.479455 -3.325120 0
M  V30 38 C 1.590775 0.466440 -3.174198 0
M  V30 39 C -2.790787 -0.995585 -1.637144 0
M  V30 40 C -2.698326 -0.505504 -0.199532 0
M  V30 41 C -3.498457 0.666629 2.447677 0
M  V30 42 N -2.367244 -0.052926 2.428580 0
M  V30 43 H 3.317792 -3.462526 5.057099 0
M  V30 44 H 2.158832 -4.301508 6.124959 0
M  V30 45 H 2.285026 -4.762300 4.379916 0
M  V30 46 H 3.187289 -3.371510 3.017697 0
M  V30 47 H 5.673489 -3.118631 0.716676 0
M  V30 48 H 4.521144 -4.035354 1.680025 0
M  V30 49 H 5.187536 -5.272783 -0.307460 0
M  V30 50 H 3.464333 -4.835098 -0.550317 0
M  V30 51 H 5.473916 -4.360579 -3.606256 0
M  V30 52 H 4.591434 -5.606972 -2.577883 0
M  V30 53 H 3.725944 -4.217123 -3.282448 0
M  V30 54 H 4.810765 -1.890218 -2.599136 0
M  V30 55 H 3.221422 -2.624020 -2.237108 0
M  V30 56 H 5.198096 -1.264630 -0.380793 0
M  V30 57 H 3.496217 -0.768284 -0.868129 0
M  V30 58 H 1.714335 -0.612905 0.034174 0
M  V30 59 H -0.071098 -0.177425 1.569519 0
M  V30 60 H -0.483633 -1.498429 4.845767 0
M  V30 61 H -3.894467 1.213248 5.785585 0
M  V30 62 H -5.904473 1.478603 5.620202 0
M  V30 63 H -5.231824 3.161511 5.395130 0
M  V30 64 H -6.834877 2.748783 4.763736 0
M  V30 65 H -6.756139 2.704635 2.490377 0
M  V30 66 H -4.683506 0.097701 -0.484990 0
M  V30 67 H -3.949769 2.619805 -0.715869 0
M  V30 68 H -2.283945 1.878381 -0.949420 0
M  V30 69 H -4.714939 0.708824 -2.296508 0
M  V30 70 H -3.724579 1.982141 -3.105666 0
M  V30 71 H -3.107784 -0.387627 -3.622707 0
M  V30 72 H -0.851680 1.025810 -2.098543 0
M  V30 73 H 1.100251 0.621650 -5.238539 0
M  V30 74 H 0.119501 2.939456 -4.862081 0
M  V30 75 H 0.158456 2.538560 -3.042703 0
M  V30 76 H 2.442998 2.951365 -4.941851 0
M  V30 77 H 2.243178 3.629803 -3.298216 0
M  V30 78 H 3.270512 1.651335 -2.389205 0
M  V30 79 H 3.384792 1.067321 -4.134405 0
M  V30 80 H 1.147899 0.668161 -2.164325 0
M  V30 81 H 1.949951 -0.574617 -3.237146 0
M  V30 82 H -3.666421 -1.637474 -1.804873 0
M  V30 83 H -1.896227 -1.664587 -1.818964 0
M  V30 84 H -2.934837 -1.362452 0.450382 0
M  V30 85 H -1.690218 -0.143897 -0.012504 0
M  V30 END ATOM
M  V30 BEGIN BOND
M  V30 1 1 1 2
M  V30 2 1 2 3
M  V30 3 2 3 4
M  V30 4 1 4 5
M  V30 5 1 5 6
M  V30 6 1 6 7
M  V30 7 1 7 8
M  V30 8 1 8 9
M  V30 9 1 9 10
M  V30 10 1 9 11
M  V30 11 1 11 12
M  V30 12 2 5 13
M  V30 13 1 13 14
M  V30 14 2 14 15
M  V30 15 1 15 16
M  V30 16 1 16 17
M  V30 17 2 17 18
M  V30 18 1 18 19
M  V30 19 2 19 20
M  V30 20 1 20 21
M  V30 21 1 21 22
M  V30 22 2 21 23
M  V30 23 1 23 24
M  V30 24 2 24 25
M  V30 25 1 24 26
M  V30 26 1 26 27
M  V30 27 1 27 28
M  V30 28 1 28 29
M  V30 29 1 29 30
M  V30 30 1 30 31
M  V30 31 1 31 32
M  V30 32 2 32 33
M  V30 33 1 32 34
M  V30 34 1 34 35
M  V30 35 1 35 36
M  V30 36 1 36 37
M  V30 37 1 37 38
M  V30 38 1 30 39
M  V30 39 1 39 40
M  V30 40 1 26 41
M  V30 41 2 41 42
M  V30 42 1 15 3
M  V30 43 1 42 17
M  V30 44 1 12 6
M  V30 45 1 41 20
M  V30 46 1 40 27
M  V30 47 1 38 34
M  V30 48 1 1 43
M  V30 49 1 1 44
M  V30 50 1 1 45
M  V30 51 1 4 46
M  V30 52 1 7 47
M  V30 53 1 7 48
M  V30 54 1 8 49
M  V30 55 1 8 50
M  V30 56 1 10 51
M  V30 57 1 10 52
M  V30 58 1 10 53
M  V30 59 1 11 54
M  V30 60 1 11 55
M  V30 61 1 12 56
M  V30 62 1 12 57
M  V30 63 1 13 58
M  V30 64 1 14 59
M  V30 65 1 16 60
M  V30 66 1 19 61
M  V30 67 1 22 62
M  V30 68 1 22 63
M  V30 69 1 22 64
M  V30 70 1 23 65
M  V30 71 1 27 66 CFG=3
M  V30 72 1 28 67
M  V30 73 1 28 68
M  V30 74 1 29 69
M  V30 75 1 29 70
M  V30 76 1 30 71 CFG=3
M  V30 77 1 31 72
M  V30 78 1 34 73
M  V30 79 1 35 74
M  V30 80 1 35 75
M  V30 81 1 36 76
M  V30 82 1 36 77
M  V30 83 1 37 78
M  V30 84 1 37 79
M  V30 85 1 38 80
M  V30 86 1 38 81
M  V30 87 1 39 82
M  V30 88 1 39 83
M  V30 89 1 40 84
M  V30 90 1 40 85
M  V30 END BOND
M  V30 END CTAB
M  END
>  <Dataset>  (840) 
ChEMBL_Kinases

>  <Ligand_Instance>  (840) 
nan

>  <PDB_ID>  (840) 
nan

>  <Standardized_SMILES>  (840) 
COc1cc(N2CCN(C)CC2)ccc1Nc1ncc2c(C)cc(=O)n([C@H]3CC[C@@H](NC(=O)C4CCCC4)CC3)c2n1

>  <Name>  (840) 
nan

>  <Pocket>  (840) 
nan

>  <ATP_Site>  (840) 
nan

>  <Peripheral>  (840) 
nan

>  <Num_H_Atoms_ProtBoundConf>  (840) 
nan

>  <Num_Resolved_Atoms>  (840) 
nan

>  <Num_Not_Resolved_Atoms>  (840) 
nan

$$$$
CHEMBL4090923
     RDKit          3D

  0  0  0  0  0  0  0  0  0  0999 V3000
M  V30 BEGIN CTAB
M  V30 COUNTS 69 73 0 0 0
M  V30 BEGIN ATOM
M  V30 1 C 3.906792 -2.314662 3.959139 0
M  V30 2 O 3.633174 -1.281679 3.027110 0
M  V30 3 C 4.143954 -0.022868 3.315556 0
M  V30 4 C 4.887706 0.243072 4.450153 0
M  V30 5 C 5.420721 1.466901 4.792613 0
M  V30 6 C 5.189709 2.522631 3.921670 0
M  V30 7 C 4.455376 2.328133 2.770077 0
M  V30 8 O 4.181883 3.339761 1.847438 0
M  V30 9 C 4.703403 4.626524 2.140826 0
M  V30 10 C 3.941623 1.075774 2.473322 0
M  V30 11 C 3.145134 0.839538 1.243960 0
M  V30 12 N 1.738517 0.746164 1.511851 0
M  V30 13 C 0.797817 0.530460 0.472540 0
M  V30 14 O 1.450251 0.452168 -0.625464 0
M  V30 15 C -0.643615 0.418854 0.624321 0
M  V30 16 C -1.288285 0.242623 -0.602932 0
M  V30 17 C -2.649466 0.117173 -0.706259 0
M  V30 18 C -3.334305 -0.069168 -2.011440 0 CFG=2
M  V30 19 C -4.178478 1.140451 -2.325864 0
M  V30 20 C -5.138711 0.903155 -3.457107 0
M  V30 21 N -5.984208 -0.237089 -3.275042 0
M  V30 22 C -5.585616 -1.140646 -2.251775 0
M  V30 23 C -4.118230 -1.364359 -2.089693 0 CFG=1
M  V30 24 C -3.570799 -2.277686 -3.148276 0
M  V30 25 O -2.264516 -2.682158 -3.008713 0
M  V30 26 C -1.615247 -3.396872 -2.065496 0
M  V30 27 C -0.263591 -3.501726 -2.423815 0
M  V30 28 C 0.673541 -4.187958 -1.643755 0
M  V30 29 C 0.230809 -4.787429 -0.464272 0
M  V30 30 C -1.094981 -4.693239 -0.098895 0
M  V30 31 C -1.984790 -4.010330 -0.892335 0
M  V30 32 O -1.257378 -5.371032 1.101433 0
M  V30 33 C 0.050150 -5.636207 1.627667 0
M  V30 34 O 0.917249 -5.529372 0.508491 0
M  V30 35 C -3.474330 0.157989 0.411616 0
M  V30 36 C -2.822262 0.331922 1.611944 0
M  V30 37 C -1.461232 0.459204 1.733721 0
M  V30 38 F -0.778305 0.630367 2.886248 0
M  V30 39 H 3.370501 -2.107295 4.920240 0
M  V30 40 H 3.503205 -3.296448 3.626303 0
M  V30 41 H 4.971430 -2.399871 4.195048 0
M  V30 42 H 5.062675 -0.585743 5.123806 0
M  V30 43 H 5.982251 1.576119 5.692205 0
M  V30 44 H 5.582450 3.510901 4.135198 0
M  V30 45 H 4.500034 4.955057 3.181339 0
M  V30 46 H 5.798889 4.692851 1.983556 0
M  V30 47 H 4.219271 5.418243 1.505983 0
M  V30 48 H 3.303791 1.647051 0.504090 0
M  V30 49 H 3.469424 -0.096496 0.721905 0
M  V30 50 H 1.397127 0.838828 2.491312 0
M  V30 51 H -0.770739 0.190100 -1.570981 0
M  V30 52 H -2.569451 -0.118233 -2.813501 0
M  V30 53 H -4.716130 1.438381 -1.402429 0
M  V30 54 H -3.552009 2.006799 -2.621633 0
M  V30 55 H -5.801584 1.795494 -3.491342 0
M  V30 56 H -4.595300 0.905649 -4.427967 0
M  V30 57 H -6.999171 -0.005174 -3.254321 0
M  V30 58 H -6.010147 -0.806827 -1.285568 0
M  V30 59 H -6.044802 -2.152192 -2.429826 0
M  V30 60 H -3.984077 -1.843030 -1.096757 0
M  V30 61 H -4.228443 -3.201297 -3.144734 0
M  V30 62 H -3.758800 -1.865562 -4.183495 0
M  V30 63 H 0.237105 -3.097257 -3.300450 0
M  V30 64 H 1.714963 -4.302198 -1.863267 0
M  V30 65 H -3.019027 -3.912906 -0.667004 0
M  V30 66 H 0.127473 -6.649981 2.046128 0
M  V30 67 H 0.312370 -4.862610 2.400125 0
M  V30 68 H -4.533555 0.068947 0.418386 0
M  V30 69 H -3.320348 0.384541 2.571414 0
M  V30 END ATOM
M  V30 BEGIN BOND
M  V30 1 1 1 2
M  V30 2 1 2 3
M  V30 3 2 3 4
M  V30 4 1 4 5
M  V30 5 2 5 6
M  V30 6 1 6 7
M  V30 7 1 7 8
M  V30 8 1 8 9
M  V30 9 2 7 10
M  V30 10 1 10 11
M  V30 11 1 11 12
M  V30 12 1 12 13
M  V30 13 2 13 14
M  V30 14 1 13 15
M  V30 15 2 15 16
M  V30 16 1 16 17
M  V30 17 1 17 18
M  V30 18 1 18 19
M  V30 19 1 19 20
M  V30 20 1 20 21
M  V30 21 1 21 22
M  V30 22 1 22 23
M  V30 23 1 23 24
M  V30 24 1 24 25
M  V30 25 1 25 26
M  V30 26 2 26 27
M  V30 27 1 27 28
M  V30 28 2 28 29
M  V30 29 1 29 30
M  V30 30 2 30 31
M  V30 31 1 30 32
M  V30 32 1 32 33
M  V30 33 1 33 34
M  V30 34 2 17 35
M  V30 35 1 35 36
M  V30 36 2 36 37
M  V30 37 1 37 38
M  V30 38 1 10 3
M  V30 39 1 37 15
M  V30 40 1 23 18
M  V30 41 1 31 26
M  V30 42 1 34 29
M  V30 43 1 1 39
M  V30 44 1 1 40
M  V30 45 1 1 41
M  V30 46 1 4 42
M  V30 47 1 5 43
M  V30 48 1 6 44
M  V30 49 1 9 45
M  V30 50 1 9 46
M  V30 51 1 9 47
M  V30 52 1 11 48
M  V30 53 1 11 49
M  V30 54 1 12 50
M  V30 55 1 16 51
M  V30 56 1 18 52 CFG=3
M  V30 57 1 19 53
M  V30 58 1 19 54
M  V30 59 1 20 55
M  V30 60 1 20 56
M  V30 61 1 21 57
M  V30 62 1 22 58
M  V30 63 1 22 59
M  V30 64 1 23 60 CFG=1
M  V30 65 1 24 61
M  V30 66 1 24 62
M  V30 67 1 27 63
M  V30 68 1 28 64
M  V30 69 1 31 65
M  V30 70 1 33 66
M  V30 71 1 33 67
M  V30 72 1 35 68
M  V30 73 1 36 69
M  V30 END BOND
M  V30 END CTAB
M  END
>  <Dataset>  (841) 
ChEMBL_Kinases

>  <Ligand_Instance>  (841) 
nan

>  <PDB_ID>  (841) 
nan

>  <Standardized_SMILES>  (841) 
COc1cccc(OC)c1CNC(=O)c1cc([C@@H]2CCNC[C@H]2COc2ccc3c(c2)OCO3)ccc1F

>  <Name>  (841) 
nan

>  <Pocket>  (841) 
nan

>  <ATP_Site>  (841) 
nan

>  <Peripheral>  (841) 
nan

>  <Num_H_Atoms_ProtBoundConf>  (841) 
nan

>  <Num_Resolved_Atoms>  (841) 
nan

>  <Num_Not_Resolved_Atoms>  (841) 
nan

$$$$
CHEMBL4845809
     RDKit          3D

  0  0  0  0  0  0  0  0  0  0999 V3000
M  V30 BEGIN CTAB
M  V30 COUNTS 36 40 0 0 0
M  V30 BEGIN ATOM
M  V30 1 C 2.138769 -5.767588 0.636997 0
M  V30 2 C 1.755066 -6.178481 1.915169 0
M  V30 3 N 1.105666 -5.356927 2.727348 0
M  V30 4 N 0.808068 -4.132002 2.343900 0
M  V30 5 N 0.185510 -3.130374 2.931889 0
M  V30 6 C 0.126611 -2.063802 2.121986 0
M  V30 7 C 0.750581 -2.362422 0.904523 0
M  V30 8 C 0.830687 -1.390124 -0.151906 0
M  V30 9 C 1.364887 -1.432560 -1.384227 0
M  V30 10 C 1.393999 -0.443546 -2.334337 0
M  V30 11 N 0.799906 0.729280 -1.966419 0
M  V30 12 C 0.244615 0.846252 -0.750342 0
M  V30 13 N -0.378648 2.058807 -0.348530 0
M  V30 14 C -0.557761 3.319322 -1.046366 0
M  V30 15 C -1.028520 3.975506 0.236322 0
M  V30 16 C -1.052354 2.612478 0.760914 0
M  V30 17 C -2.308514 1.989697 1.239245 0
M  V30 18 O -1.558362 1.394132 2.267351 0
M  V30 19 C -0.521060 2.343253 2.130729 0
M  V30 20 N 0.277018 -0.185218 0.091317 0
M  V30 21 C 1.135129 -3.652442 1.139238 0
M  V30 22 C 1.806413 -4.481925 0.282092 0
M  V30 23 H 2.670900 -6.463923 -0.007916 0
M  V30 24 H 1.963882 -7.165379 2.297681 0
M  V30 25 H -0.376760 -1.173710 2.525944 0
M  V30 26 H 1.834279 -2.326184 -1.704354 0
M  V30 27 H 1.850171 -0.579363 -3.297982 0
M  V30 28 H 0.446627 3.717183 -1.317322 0
M  V30 29 H -1.277256 3.312591 -1.886096 0
M  V30 30 H -0.299603 4.650082 0.703392 0
M  V30 31 H -2.060384 4.419695 0.122655 0
M  V30 32 H -3.020434 2.710909 1.706790 0
M  V30 33 H -2.769644 1.247616 0.548887 0
M  V30 34 H -0.674974 3.132732 2.878351 0
M  V30 35 H 0.499604 1.895979 2.170926 0
M  V30 36 H 2.109550 -4.196416 -0.692867 0
M  V30 END ATOM
M  V30 BEGIN BOND
M  V30 1 1 1 2
M  V30 2 2 2 3
M  V30 3 1 3 4
M  V30 4 1 4 5
M  V30 5 2 5 6
M  V30 6 1 6 7
M  V30 7 1 7 8
M  V30 8 2 8 9
M  V30 9 1 9 10
M  V30 10 2 10 11
M  V30 11 1 11 12
M  V30 12 1 12 13
M  V30 13 1 13 14
M  V30 14 1 14 15
M  V30 15 1 15 16
M  V30 16 1 16 17
M  V30 17 1 17 18
M  V30 18 1 18 19
M  V30 19 2 12 20
M  V30 20 2 7 21
M  V30 21 1 21 22
M  V30 22 2 22 1
M  V30 23 1 21 4
M  V30 24 1 20 8
M  V30 25 1 16 13
M  V30 26 1 19 16
M  V30 27 1 1 23
M  V30 28 1 2 24
M  V30 29 1 6 25
M  V30 30 1 9 26
M  V30 31 1 10 27
M  V30 32 1 14 28
M  V30 33 1 14 29
M  V30 34 1 15 30
M  V30 35 1 15 31
M  V30 36 1 17 32
M  V30 37 1 17 33
M  V30 38 1 19 34
M  V30 39 1 19 35
M  V30 40 1 22 36
M  V30 END BOND
M  V30 END CTAB
M  END
>  <Dataset>  (842) 
ChEMBL_Kinases

>  <Ligand_Instance>  (842) 
nan

>  <PDB_ID>  (842) 
nan

>  <Standardized_SMILES>  (842) 
c1cnn2ncc(-c3ccnc(N4CCC45COC5)n3)c2c1

>  <Name>  (842) 
nan

>  <Pocket>  (842) 
nan

>  <ATP_Site>  (842) 
nan

>  <Peripheral>  (842) 
nan

>  <Num_H_Atoms_ProtBoundConf>  (842) 
nan

>  <Num_Resolved_Atoms>  (842) 
nan

>  <Num_Not_Resolved_Atoms>  (842) 
nan

$$$$
CHEMBL4845857
     RDKit          3D

  0  0  0  0  0  0  0  0  0  0999 V3000
M  V30 BEGIN CTAB
M  V30 COUNTS 42 46 0 0 0
M  V30 BEGIN ATOM
M  V30 1 O 1.519722 -4.060089 2.245451 0
M  V30 2 C 0.895471 -4.666540 1.314353 0
M  V30 3 N 1.178070 -4.313357 -0.034704 0
M  V30 4 C 2.180703 -3.274149 -0.008671 0
M  V30 5 N 3.494107 -3.564660 -0.034312 0
M  V30 6 C 4.464091 -2.632762 -0.011474 0
M  V30 7 C 4.018328 -1.318023 0.041569 0
M  V30 8 C 2.692585 -0.974489 0.069272 0
M  V30 9 C 1.715990 -1.955070 0.044703 0
M  V30 10 N 0.486810 -1.404076 0.078921 0
M  V30 11 C 0.650682 -0.053869 0.126352 0
M  V30 12 C -0.270833 0.970418 0.174243 0
M  V30 13 C 0.197602 2.288451 0.216792 0
M  V30 14 C -0.871492 3.290151 0.264854 0
M  V30 15 C -2.072675 3.033814 -0.366503 0
M  V30 16 C -3.102511 3.958374 -0.339571 0
M  V30 17 C -2.909291 5.150080 0.333141 0
M  V30 18 C -1.706292 5.438582 0.981218 0
M  V30 19 C -0.694980 4.492104 0.935701 0
M  V30 20 C 1.556749 2.571765 0.211524 0
M  V30 21 C 2.466567 1.531418 0.163217 0
M  V30 22 C 2.006952 0.229793 0.121152 0
M  V30 23 C -0.091617 -5.709625 1.734109 0
M  V30 24 C -0.924268 -5.314689 2.934441 0
M  V30 25 C 0.133528 -6.405658 3.040703 0
M  V30 26 H 0.633765 -4.846835 -0.741311 0
M  V30 27 H 5.516479 -2.848023 -0.031289 0
M  V30 28 H 4.700641 -0.475629 0.064500 0
M  V30 29 H -0.379497 -1.973537 0.068120 0
M  V30 30 H -1.311334 0.691551 0.176075 0
M  V30 31 H -2.283689 2.117400 -0.910398 0
M  V30 32 H -4.082025 3.872276 -0.793054 0
M  V30 33 H -3.664280 5.946368 0.411608 0
M  V30 34 H -1.527226 6.368067 1.518057 0
M  V30 35 H 0.271299 4.612400 1.401017 0
M  V30 36 H 1.837684 3.617671 0.246218 0
M  V30 37 H 3.532147 1.762669 0.159557 0
M  V30 38 H -0.650504 -6.255131 0.959288 0
M  V30 39 H -1.954586 -5.708453 3.038748 0
M  V30 40 H -0.690863 -4.368799 3.478587 0
M  V30 41 H -0.178489 -7.456901 3.191269 0
M  V30 42 H 1.081372 -6.155537 3.558239 0
M  V30 END ATOM
M  V30 BEGIN BOND
M  V30 1 2 1 2
M  V30 2 1 2 3
M  V30 3 1 3 4
M  V30 4 2 4 5
M  V30 5 1 5 6
M  V30 6 2 6 7
M  V30 7 1 7 8
M  V30 8 2 8 9
M  V30 9 1 9 10
M  V30 10 1 10 11
M  V30 11 2 11 12
M  V30 12 1 12 13
M  V30 13 1 13 14
M  V30 14 2 14 15
M  V30 15 1 15 16
M  V30 16 2 16 17
M  V30 17 1 17 18
M  V30 18 2 18 19
M  V30 19 2 13 20
M  V30 20 1 20 21
M  V30 21 2 21 22
M  V30 22 1 2 23
M  V30 23 1 23 24
M  V30 24 1 24 25
M  V30 25 1 9 4
M  V30 26 1 22 11
M  V30 27 1 25 23
M  V30 28 1 22 8
M  V30 29 1 19 14
M  V30 30 1 3 26
M  V30 31 1 6 27
M  V30 32 1 7 28
M  V30 33 1 10 29
M  V30 34 1 12 30
M  V30 35 1 15 31
M  V30 36 1 16 32
M  V30 37 1 17 33
M  V30 38 1 18 34
M  V30 39 1 19 35
M  V30 40 1 20 36
M  V30 41 1 21 37
M  V30 42 1 23 38
M  V30 43 1 24 39
M  V30 44 1 24 40
M  V30 45 1 25 41
M  V30 46 1 25 42
M  V30 END BOND
M  V30 END CTAB
M  END
>  <Dataset>  (843) 
ChEMBL_Kinases

>  <Ligand_Instance>  (843) 
nan

>  <PDB_ID>  (843) 
nan

>  <Standardized_SMILES>  (843) 
O=C(Nc1nccc2c1[nH]c1cc(-c3ccccc3)ccc12)C1CC1

>  <Name>  (843) 
nan

>  <Pocket>  (843) 
nan

>  <ATP_Site>  (843) 
nan

>  <Peripheral>  (843) 
nan

>  <Num_H_Atoms_ProtBoundConf>  (843) 
nan

>  <Num_Resolved_Atoms>  (843) 
nan

>  <Num_Not_Resolved_Atoms>  (843) 
nan

$$$$
CHEMBL4845883
     RDKit          3D

  0  0  0  0  0  0  0  0  0  0999 V3000
M  V30 BEGIN CTAB
M  V30 COUNTS 47 49 0 0 0
M  V30 BEGIN ATOM
M  V30 1 C 0.927361 -5.671097 7.897145 0
M  V30 2 C 1.074344 -4.853497 6.643137 0
M  V30 3 O 0.207012 -3.966788 6.385353 0
M  V30 4 N 2.130640 -4.979280 5.677829 0
M  V30 5 C 1.856163 -3.998010 4.656834 0
M  V30 6 C 2.352044 -2.713299 4.734219 0
M  V30 7 C 1.990279 -1.912482 3.673208 0
M  V30 8 O 2.449961 -0.582511 3.664595 0
M  V30 9 C 2.115456 0.269546 2.619088 0
M  V30 10 C 2.976159 0.297540 1.540365 0
M  V30 11 C 2.621839 1.151125 0.515999 0
M  V30 12 C 1.475705 1.916030 0.590835 0
M  V30 13 N 1.095479 2.812013 -0.474458 0
M  V30 14 C 0.280922 2.170464 -1.421577 0
M  V30 15 O -0.005664 0.966620 -1.244939 0
M  V30 16 N -0.255974 2.804864 -2.596966 0
M  V30 17 C -1.087658 2.073506 -3.524301 0
M  V30 18 C -0.675917 1.352685 -4.631382 0
M  V30 19 C -1.643257 0.723381 -5.389770 0
M  V30 20 C -2.992605 0.790362 -5.081229 0
M  V30 21 C -3.405779 1.520046 -3.961106 0
M  V30 22 C -4.850172 1.601281 -3.617071 0
M  V30 23 F -5.484497 0.543006 -4.240489 0
M  V30 24 F -5.413826 2.785111 -4.013355 0
M  V30 25 F -4.993089 1.403536 -2.242195 0
M  V30 26 C -2.437893 2.156838 -3.191972 0
M  V30 27 C 0.641522 1.857986 1.688795 0
M  V30 28 C 0.956839 1.012703 2.745797 0
M  V30 29 N 1.219454 -2.346095 2.649304 0
M  V30 30 C 0.761562 -3.618073 2.627375 0
M  V30 31 N 1.084181 -4.462314 3.648756 0
M  V30 32 H 0.375821 -5.043410 8.620464 0
M  V30 33 H 0.323626 -6.555063 7.611535 0
M  V30 34 H 1.906554 -5.945223 8.330229 0
M  V30 35 H 2.845762 -5.717683 5.900167 0
M  V30 36 H 2.958045 -2.406978 5.559164 0
M  V30 37 H 3.861191 -0.323334 1.533879 0
M  V30 38 H 3.262694 1.219377 -0.367655 0
M  V30 39 H 1.304542 3.824566 -0.673411 0
M  V30 40 H -0.007824 3.809323 -2.730120 0
M  V30 41 H 0.375956 1.356563 -4.790795 0
M  V30 42 H -1.270174 0.161898 -6.260360 0
M  V30 43 H -3.722466 0.277770 -5.708075 0
M  V30 44 H -2.830177 2.699207 -2.346027 0
M  V30 45 H -0.265225 2.470569 1.735374 0
M  V30 46 H 0.336604 0.929478 3.630181 0
M  V30 47 H 0.164565 -3.806527 1.749219 0
M  V30 END ATOM
M  V30 BEGIN BOND
M  V30 1 1 1 2
M  V30 2 2 2 3
M  V30 3 1 2 4
M  V30 4 1 4 5
M  V30 5 2 5 6
M  V30 6 1 6 7
M  V30 7 1 7 8
M  V30 8 1 8 9
M  V30 9 2 9 10
M  V30 10 1 10 11
M  V30 11 2 11 12
M  V30 12 1 12 13
M  V30 13 1 13 14
M  V30 14 2 14 15
M  V30 15 1 14 16
M  V30 16 1 16 17
M  V30 17 2 17 18
M  V30 18 1 18 19
M  V30 19 2 19 20
M  V30 20 1 20 21
M  V30 21 1 21 22
M  V30 22 1 22 23
M  V30 23 1 22 24
M  V30 24 1 22 25
M  V30 25 2 21 26
M  V30 26 1 12 27
M  V30 27 2 27 28
M  V30 28 2 7 29
M  V30 29 1 29 30
M  V30 30 2 30 31
M  V30 31 1 31 5
M  V30 32 1 28 9
M  V30 33 1 26 17
M  V30 34 1 1 32
M  V30 35 1 1 33
M  V30 36 1 1 34
M  V30 37 1 4 35
M  V30 38 1 6 36
M  V30 39 1 10 37
M  V30 40 1 11 38
M  V30 41 1 13 39
M  V30 42 1 16 40
M  V30 43 1 18 41
M  V30 44 1 19 42
M  V30 45 1 20 43
M  V30 46 1 26 44
M  V30 47 1 27 45
M  V30 48 1 28 46
M  V30 49 1 30 47
M  V30 END BOND
M  V30 END CTAB
M  END
>  <Dataset>  (844) 
ChEMBL_Kinases

>  <Ligand_Instance>  (844) 
nan

>  <PDB_ID>  (844) 
nan

>  <Standardized_SMILES>  (844) 
CC(=O)Nc1cc(Oc2ccc(NC(=O)Nc3cccc(C(F)(F)F)c3)cc2)ncn1

>  <Name>  (844) 
nan

>  <Pocket>  (844) 
nan

>  <ATP_Site>  (844) 
nan

>  <Peripheral>  (844) 
nan

>  <Num_H_Atoms_ProtBoundConf>  (844) 
nan

>  <Num_Resolved_Atoms>  (844) 
nan

>  <Num_Not_Resolved_Atoms>  (844) 
nan

$$$$
CHEMBL4845935
     RDKit          3D

  0  0  0  0  0  0  0  0  0  0999 V3000
M  V30 BEGIN CTAB
M  V30 COUNTS 49 51 0 0 0
M  V30 BEGIN ATOM
M  V30 1 C 1.253358 -4.016915 2.449472 0
M  V30 2 C 1.828411 -2.858027 3.221028 0
M  V30 3 C 1.069608 -2.753467 4.538097 0
M  V30 4 C 1.656636 -1.565212 2.454069 0
M  V30 5 C 2.234789 -0.400739 3.225305 0
M  V30 6 C 3.742363 -0.459908 3.268597 0
M  V30 7 C 4.335169 -1.151780 2.089439 0
M  V30 8 N 3.526792 -1.158811 0.909384 0
M  V30 9 C 2.185023 -1.644490 1.056789 0
M  V30 10 C 1.266887 -0.796525 0.195152 0
M  V30 11 O 0.088823 -1.294554 0.388426 0
M  V30 12 N 1.429603 0.326422 -0.696028 0
M  V30 13 C 0.067335 0.485600 -1.069968 0
M  V30 14 C -0.651782 1.328131 -0.242229 0
M  V30 15 C -1.999676 1.536840 -0.565470 0
M  V30 16 C -2.463337 0.874796 -1.680508 0
M  V30 17 C -3.872117 1.128490 -1.968374 0
M  V30 18 C -4.580907 0.105387 -2.571484 0
M  V30 19 C -5.924954 0.412315 -2.818702 0
M  V30 20 N -6.502613 1.572643 -2.513838 0
M  V30 21 C -5.835169 2.563548 -1.935165 0
M  V30 22 C -4.488562 2.320437 -1.662494 0
M  V30 23 C -1.735263 0.036451 -2.498550 0
M  V30 24 C -0.409981 -0.171163 -2.184101 0
M  V30 25 H 0.821904 -4.731968 3.185886 0
M  V30 26 H 0.424687 -3.683118 1.822081 0
M  V30 27 H 2.042654 -4.584278 1.902788 0
M  V30 28 H 2.861410 -3.097952 3.491585 0
M  V30 29 H 1.685038 -2.166246 5.269095 0
M  V30 30 H 0.967728 -3.783651 4.921215 0
M  V30 31 H 0.089646 -2.257181 4.418950 0
M  V30 32 H 0.566087 -1.402573 2.395685 0
M  V30 33 H 1.962855 0.544148 2.711920 0
M  V30 34 H 1.832888 -0.404355 4.241120 0
M  V30 35 H 4.052432 -0.996925 4.193183 0
M  V30 36 H 4.182562 0.550882 3.353201 0
M  V30 37 H 5.269945 -0.597367 1.806573 0
M  V30 38 H 4.737961 -2.186066 2.322750 0
M  V30 39 H 4.074741 -1.637868 0.160713 0
M  V30 40 H 2.163639 -2.700270 0.730961 0
M  V30 41 H 2.458061 0.399503 -0.579306 0
M  V30 42 H -0.230984 1.814434 0.614035 0
M  V30 43 H -2.585837 2.178952 0.046914 0
M  V30 44 H -4.215281 -0.864848 -2.856546 0
M  V30 45 H -6.629465 -0.289493 -3.292650 0
M  V30 46 H -6.293673 3.515514 -1.681608 0
M  V30 47 H -3.914704 3.110707 -1.191395 0
M  V30 48 H -2.183222 -0.446074 -3.361752 0
M  V30 49 H 0.231393 -0.810826 -2.768647 0
M  V30 END ATOM
M  V30 BEGIN BOND
M  V30 1 1 1 2
M  V30 2 1 2 3
M  V30 3 1 2 4
M  V30 4 1 4 5
M  V30 5 1 5 6
M  V30 6 1 6 7
M  V30 7 1 7 8
M  V30 8 1 8 9
M  V30 9 1 9 10
M  V30 10 2 10 11
M  V30 11 1 10 12
M  V30 12 1 12 13
M  V30 13 2 13 14
M  V30 14 1 14 15
M  V30 15 2 15 16
M  V30 16 1 16 17
M  V30 17 2 17 18
M  V30 18 1 18 19
M  V30 19 2 19 20
M  V30 20 1 20 21
M  V30 21 2 21 22
M  V30 22 1 16 23
M  V30 23 2 23 24
M  V30 24 1 9 4
M  V30 25 1 24 13
M  V30 26 1 22 17
M  V30 27 1 1 25
M  V30 28 1 1 26
M  V30 29 1 1 27
M  V30 30 1 2 28
M  V30 31 1 3 29
M  V30 32 1 3 30
M  V30 33 1 3 31
M  V30 34 1 4 32
M  V30 35 1 5 33
M  V30 36 1 5 34
M  V30 37 1 6 35
M  V30 38 1 6 36
M  V30 39 1 7 37
M  V30 40 1 7 38
M  V30 41 1 8 39
M  V30 42 1 9 40
M  V30 43 1 12 41
M  V30 44 1 14 42
M  V30 45 1 15 43
M  V30 46 1 18 44
M  V30 47 1 19 45
M  V30 48 1 21 46
M  V30 49 1 22 47
M  V30 50 1 23 48
M  V30 51 1 24 49
M  V30 END BOND
M  V30 END CTAB
M  END
>  <Dataset>  (845) 
ChEMBL_Kinases

>  <Ligand_Instance>  (845) 
nan

>  <PDB_ID>  (845) 
nan

>  <Standardized_SMILES>  (845) 
CC(C)C1CCCNC1C(=O)Nc1ccc(-c2ccncc2)cc1

>  <Name>  (845) 
nan

>  <Pocket>  (845) 
nan

>  <ATP_Site>  (845) 
nan

>  <Peripheral>  (845) 
nan

>  <Num_H_Atoms_ProtBoundConf>  (845) 
nan

>  <Num_Resolved_Atoms>  (845) 
nan

>  <Num_Not_Resolved_Atoms>  (845) 
nan

$$$$
CHEMBL4845737
     RDKit          3D

  0  0  0  0  0  0  0  0  0  0999 V3000
M  V30 BEGIN CTAB
M  V30 COUNTS 50 52 0 0 0
M  V30 BEGIN ATOM
M  V30 1 C -1.329337 -3.148167 -0.905190 0
M  V30 2 N -0.179959 -3.976403 -0.725850 0
M  V30 3 C 1.170733 -3.676466 -0.469509 0
M  V30 4 N 1.602309 -2.406581 -0.352344 0
M  V30 5 C 2.890000 -2.099207 -0.116647 0
M  V30 6 N 3.358021 -0.762733 -0.008439 0
M  V30 7 C 2.628379 0.430389 -0.023606 0
M  V30 8 C 2.973698 1.179596 -1.156544 0
M  V30 9 N 2.426045 2.381468 -1.408078 0
M  V30 10 C 1.521082 2.952817 -0.612114 0
M  V30 11 C 0.917623 4.230579 -0.863203 0
M  V30 12 N 0.420012 5.255570 -1.073558 0
M  V30 13 C 1.124144 2.264680 0.544420 0
M  V30 14 N 0.212845 2.729473 1.524650 0
M  V30 15 C -0.525742 2.628963 2.708108 0
M  V30 16 C -1.666437 1.711369 2.837341 0
M  V30 17 C -1.319191 0.281195 2.662361 0
M  V30 18 C -1.580710 -0.095092 1.222922 0
M  V30 19 C -3.091511 -0.220303 1.025628 0
M  V30 20 C -3.696431 0.950305 1.763757 0
M  V30 21 N -2.810259 2.023642 2.030320 0
M  V30 22 C 1.693549 1.021806 0.799189 0
M  V30 23 N 3.746254 -3.120495 0.001654 0
M  V30 24 C 3.393765 -4.405860 -0.101711 0
M  V30 25 C 2.075563 -4.726719 -0.344747 0
M  V30 26 C 1.628007 -6.139162 -0.477753 0
M  V30 27 F 2.741581 -6.952110 -0.303267 0
M  V30 28 F 1.112559 -6.389784 -1.735095 0
M  V30 29 F 0.736041 -6.422562 0.530185 0
M  V30 30 H -1.898089 -3.123087 0.046512 0
M  V30 31 H -0.982600 -2.093863 -1.105115 0
M  V30 32 H -1.966805 -3.401371 -1.765156 0
M  V30 33 H -0.506307 -4.972449 -0.823071 0
M  V30 34 H 4.407397 -0.617391 0.106304 0
M  V30 35 H 3.672781 0.928153 -1.933593 0
M  V30 36 H -0.096298 3.691158 1.162248 0
M  V30 37 H 0.215334 2.281238 3.537524 0
M  V30 38 H -0.871400 3.635928 3.098309 0
M  V30 39 H -2.036697 1.813065 3.906150 0
M  V30 40 H -2.022602 -0.388626 3.262806 0
M  V30 41 H -0.291365 0.043312 2.948847 0
M  V30 42 H -1.260807 0.649164 0.488521 0
M  V30 43 H -1.036463 -1.025574 1.044054 0
M  V30 44 H -3.447590 -1.163140 1.489475 0
M  V30 45 H -3.356034 -0.197189 -0.049087 0
M  V30 46 H -4.209394 0.591068 2.703863 0
M  V30 47 H -4.528003 1.348990 1.146493 0
M  V30 48 H -2.710542 2.739828 1.321768 0
M  V30 49 H 1.545911 0.337298 1.608549 0
M  V30 50 H 4.108463 -5.218156 0.000988 0
M  V30 END ATOM
M  V30 BEGIN BOND
M  V30 1 1 1 2
M  V30 2 1 2 3
M  V30 3 2 3 4
M  V30 4 1 4 5
M  V30 5 1 5 6
M  V30 6 1 6 7
M  V30 7 2 7 8
M  V30 8 1 8 9
M  V30 9 2 9 10
M  V30 10 1 10 11
M  V30 11 3 11 12
M  V30 12 1 10 13
M  V30 13 1 13 14
M  V30 14 1 14 15
M  V30 15 1 15 16
M  V30 16 1 16 17
M  V30 17 1 17 18
M  V30 18 1 18 19
M  V30 19 1 19 20
M  V30 20 1 20 21
M  V30 21 2 13 22
M  V30 22 2 5 23
M  V30 23 1 23 24
M  V30 24 2 24 25
M  V30 25 1 25 26
M  V30 26 1 26 27
M  V30 27 1 26 28
M  V30 28 1 26 29
M  V30 29 1 25 3
M  V30 30 1 22 7
M  V30 31 1 21 16
M  V30 32 1 1 30
M  V30 33 1 1 31
M  V30 34 1 1 32
M  V30 35 1 2 33
M  V30 36 1 6 34
M  V30 37 1 8 35
M  V30 38 1 14 36
M  V30 39 1 15 37
M  V30 40 1 15 38
M  V30 41 1 16 39
M  V30 42 1 17 40
M  V30 43 1 17 41
M  V30 44 1 18 42
M  V30 45 1 18 43
M  V30 46 1 19 44
M  V30 47 1 19 45
M  V30 48 1 20 46
M  V30 49 1 20 47
M  V30 50 1 21 48
M  V30 51 1 22 49
M  V30 52 1 24 50
M  V30 END BOND
M  V30 END CTAB
M  END
>  <Dataset>  (846) 
ChEMBL_Kinases

>  <Ligand_Instance>  (846) 
nan

>  <PDB_ID>  (846) 
nan

>  <Standardized_SMILES>  (846) 
CNc1nc(Nc2cnc(C#N)c(NCC3CCCCN3)c2)ncc1C(F)(F)F

>  <Name>  (846) 
nan

>  <Pocket>  (846) 
nan

>  <ATP_Site>  (846) 
nan

>  <Peripheral>  (846) 
nan

>  <Num_H_Atoms_ProtBoundConf>  (846) 
nan

>  <Num_Resolved_Atoms>  (846) 
nan

>  <Num_Not_Resolved_Atoms>  (846) 
nan

$$$$
CHEMBL481248
     RDKit          3D

  0  0  0  0  0  0  0  0  0  0999 V3000
M  V30 BEGIN CTAB
M  V30 COUNTS 44 47 0 0 0
M  V30 BEGIN ATOM
M  V30 1 C -2.690050 -2.660656 2.792300 0
M  V30 2 C -2.420926 -2.308847 1.337783 0 CFG=1
M  V30 3 N -2.290825 -0.886838 1.120075 0
M  V30 4 C -2.037043 -0.124663 -0.030988 0
M  V30 5 C -1.189465 0.507745 -0.924906 0
M  V30 6 N 0.199245 0.451452 -0.684343 0
M  V30 7 C 0.754471 1.478228 0.091651 0
M  V30 8 C -0.048338 2.495692 0.583872 0
M  V30 9 C 0.629667 3.436601 1.330236 0
M  V30 10 N 1.946971 3.410583 1.583590 0
M  V30 11 C 2.735984 2.446205 1.122862 0
M  V30 12 C 4.158335 2.461070 1.424385 0
M  V30 13 C 4.925041 1.450717 0.929342 0
M  V30 14 C 6.378234 1.572022 1.306194 0
M  V30 15 S 6.468760 3.146847 2.341946 0
M  V30 16 C 4.722702 3.495510 2.208310 0
M  V30 17 C 2.102152 1.494377 0.378421 0
M  V30 18 C -2.295303 0.906346 -1.669673 0
M  V30 19 O -2.045712 1.582889 -2.699034 0
M  V30 20 C -3.150778 0.275237 -0.778207 0
M  V30 21 O -4.382335 0.358356 -1.043582 0
M  V30 22 C -1.343296 -3.128899 0.773221 0
M  V30 23 C -0.754915 -4.084775 1.588866 0
M  V30 24 C 0.261021 -4.942821 1.223451 0
M  V30 25 C 0.719079 -4.818833 -0.084778 0
M  V30 26 C 0.180801 -3.888486 -0.956139 0
M  V30 27 C -0.832582 -3.073310 -0.500921 0
M  V30 28 H -3.026800 -3.686612 2.919147 0
M  V30 29 H -1.787577 -2.464520 3.385140 0
M  V30 30 H -3.553450 -2.022609 3.138953 0
M  V30 31 H -3.393715 -2.575823 0.818633 0
M  V30 32 H -2.409572 -0.306524 2.007486 0
M  V30 33 H 0.806675 -0.315436 -1.059741 0
M  V30 34 H -1.110827 2.533891 0.390779 0
M  V30 35 H 0.084239 4.278830 1.762383 0
M  V30 36 H 4.660263 0.607429 0.330451 0
M  V30 37 H 7.105893 0.726422 0.909661 0
M  V30 38 H 4.255896 4.298441 2.631119 0
M  V30 39 H 2.678884 0.677412 -0.030524 0
M  V30 40 H -1.081157 -4.219923 2.624801 0
M  V30 41 H 0.684511 -5.670225 1.898002 0
M  V30 42 H 1.511583 -5.441582 -0.473644 0
M  V30 43 H 0.537554 -3.794279 -1.969473 0
M  V30 44 H -1.265407 -2.347466 -1.169521 0
M  V30 END ATOM
M  V30 BEGIN BOND
M  V30 1 1 1 2
M  V30 2 1 2 3
M  V30 3 1 3 4
M  V30 4 2 4 5
M  V30 5 1 5 6
M  V30 6 1 6 7
M  V30 7 2 7 8
M  V30 8 1 8 9
M  V30 9 2 9 10
M  V30 10 1 10 11
M  V30 11 1 11 12
M  V30 12 1 12 13
M  V30 13 2 13 14
M  V30 14 1 14 15
M  V30 15 1 15 16
M  V30 16 2 11 17
M  V30 17 1 5 18
M  V30 18 2 18 19
M  V30 19 1 18 20
M  V30 20 2 20 21
M  V30 21 1 2 22
M  V30 22 2 22 23
M  V30 23 1 23 24
M  V30 24 2 24 25
M  V30 25 1 25 26
M  V30 26 2 26 27
M  V30 27 1 20 4
M  V30 28 1 27 22
M  V30 29 1 17 7
M  V30 30 2 16 12
M  V30 31 1 1 28
M  V30 32 1 1 29
M  V30 33 1 1 30
M  V30 34 1 2 31 CFG=3
M  V30 35 1 3 32
M  V30 36 1 6 33
M  V30 37 1 8 34
M  V30 38 1 9 35
M  V30 39 1 13 36
M  V30 40 1 14 37
M  V30 41 1 16 38
M  V30 42 1 17 39
M  V30 43 1 23 40
M  V30 44 1 24 41
M  V30 45 1 25 42
M  V30 46 1 26 43
M  V30 47 1 27 44
M  V30 END BOND
M  V30 END CTAB
M  END
>  <Dataset>  (847) 
ChEMBL_Kinases

>  <Ligand_Instance>  (847) 
nan

>  <PDB_ID>  (847) 
nan

>  <Standardized_SMILES>  (847) 
C[C@@H](Nc1c(Nc2ccnc(-c3ccsc3)c2)c(=O)c1=O)c1ccccc1

>  <Name>  (847) 
nan

>  <Pocket>  (847) 
nan

>  <ATP_Site>  (847) 
nan

>  <Peripheral>  (847) 
nan

>  <Num_H_Atoms_ProtBoundConf>  (847) 
nan

>  <Num_Resolved_Atoms>  (847) 
nan

>  <Num_Not_Resolved_Atoms>  (847) 
nan

$$$$
CHEMBL481249
     RDKit          3D

  0  0  0  0  0  0  0  0  0  0999 V3000
M  V30 BEGIN CTAB
M  V30 COUNTS 49 52 0 0 0
M  V30 BEGIN ATOM
M  V30 1 C -1.410881 -2.786725 3.196725 0
M  V30 2 C -1.851685 -2.280421 1.845479 0 CFG=1
M  V30 3 N -0.770056 -2.053067 0.924000 0
M  V30 4 C -0.926484 -1.562134 -0.398996 0
M  V30 5 C -0.061115 -1.277495 -1.430429 0
M  V30 6 N 1.326040 -1.310606 -1.733754 0
M  V30 7 C 2.238381 -0.228485 -1.488881 0
M  V30 8 C 3.569067 -0.323249 -1.871024 0
M  V30 9 C 4.453727 0.700807 -1.642837 0
M  V30 10 N 3.995681 1.801224 -1.037569 0
M  V30 11 C 2.730660 1.936630 -0.654185 0
M  V30 12 N 2.168760 3.091346 0.002475 0
M  V30 13 C 2.227030 3.125442 1.441576 0
M  V30 14 C 1.720640 4.143816 2.200906 0
M  V30 15 C 1.777510 4.177802 3.574768 0
M  V30 16 C 2.373498 3.138601 4.248074 0
M  V30 17 C 2.902894 2.082398 3.538928 0
M  V30 18 C 2.826133 2.084660 2.157894 0
M  V30 19 C 1.800716 0.929828 -0.863283 0
M  V30 20 C -1.115760 -0.882019 -2.228312 0
M  V30 21 O -1.274274 -0.439382 -3.408800 0
M  V30 22 C -1.983955 -1.168753 -1.190261 0
M  V30 23 O -3.240239 -1.072799 -1.101746 0
M  V30 24 C -2.869487 -3.210344 1.240103 0
M  V30 25 C -4.240706 -3.025090 1.286401 0
M  V30 26 C -5.048721 -3.986307 0.671481 0
M  V30 27 C -4.515348 -5.087570 0.035943 0
M  V30 28 C -3.133257 -5.262830 -0.003740 0
M  V30 29 C -2.310033 -4.312419 0.605433 0
M  V30 30 H -1.136440 -1.883520 3.799485 0
M  V30 31 H -0.602227 -3.524952 3.158154 0
M  V30 32 H -2.299731 -3.241351 3.683595 0
M  V30 33 H -2.374083 -1.314839 2.005700 0
M  V30 34 H 0.181183 -2.278410 1.296025 0
M  V30 35 H 1.700519 -2.177820 -2.161334 0
M  V30 36 H 3.900984 -1.230320 -2.358657 0
M  V30 37 H 5.481231 0.611699 -1.945044 0
M  V30 38 H 1.714144 3.925371 -0.436821 0
M  V30 39 H 1.254299 4.954752 1.668897 0
M  V30 40 H 1.383415 4.970494 4.169063 0
M  V30 41 H 2.470201 3.069735 5.336654 0
M  V30 42 H 3.392034 1.218013 3.976792 0
M  V30 43 H 3.233998 1.267537 1.579230 0
M  V30 44 H 0.763232 0.984323 -0.573883 0
M  V30 45 H -4.590773 -2.144908 1.798046 0
M  V30 46 H -6.132129 -3.821124 0.718969 0
M  V30 47 H -5.149696 -5.812503 -0.429391 0
M  V30 48 H -2.696136 -6.132565 -0.505025 0
M  V30 49 H -1.259862 -4.489921 0.548776 0
M  V30 END ATOM
M  V30 BEGIN BOND
M  V30 1 1 1 2
M  V30 2 1 2 3
M  V30 3 1 3 4
M  V30 4 2 4 5
M  V30 5 1 5 6
M  V30 6 1 6 7
M  V30 7 2 7 8
M  V30 8 1 8 9
M  V30 9 2 9 10
M  V30 10 1 10 11
M  V30 11 1 11 12
M  V30 12 1 12 13
M  V30 13 2 13 14
M  V30 14 1 14 15
M  V30 15 2 15 16
M  V30 16 1 16 17
M  V30 17 2 17 18
M  V30 18 2 11 19
M  V30 19 1 5 20
M  V30 20 2 20 21
M  V30 21 1 20 22
M  V30 22 2 22 23
M  V30 23 1 2 24
M  V30 24 2 24 25
M  V30 25 1 25 26
M  V30 26 2 26 27
M  V30 27 1 27 28
M  V30 28 2 28 29
M  V30 29 1 22 4
M  V30 30 1 29 24
M  V30 31 1 19 7
M  V30 32 1 18 13
M  V30 33 1 1 30
M  V30 34 1 1 31
M  V30 35 1 1 32
M  V30 36 1 2 33 CFG=1
M  V30 37 1 3 34
M  V30 38 1 6 35
M  V30 39 1 8 36
M  V30 40 1 9 37
M  V30 41 1 12 38
M  V30 42 1 14 39
M  V30 43 1 15 40
M  V30 44 1 16 41
M  V30 45 1 17 42
M  V30 46 1 18 43
M  V30 47 1 19 44
M  V30 48 1 25 45
M  V30 49 1 26 46
M  V30 50 1 27 47
M  V30 51 1 28 48
M  V30 52 1 29 49
M  V30 END BOND
M  V30 END CTAB
M  END
>  <Dataset>  (848) 
ChEMBL_Kinases

>  <Ligand_Instance>  (848) 
nan

>  <PDB_ID>  (848) 
nan

>  <Standardized_SMILES>  (848) 
C[C@@H](Nc1c(Nc2ccnc(Nc3ccccc3)c2)c(=O)c1=O)c1ccccc1

>  <Name>  (848) 
nan

>  <Pocket>  (848) 
nan

>  <ATP_Site>  (848) 
nan

>  <Peripheral>  (848) 
nan

>  <Num_H_Atoms_ProtBoundConf>  (848) 
nan

>  <Num_Resolved_Atoms>  (848) 
nan

>  <Num_Not_Resolved_Atoms>  (848) 
nan

$$$$
CHEMBL4095460
     RDKit          3D

  0  0  0  0  0  0  0  0  0  0999 V3000
M  V30 BEGIN CTAB
M  V30 COUNTS 42 45 0 0 0
M  V30 BEGIN ATOM
M  V30 1 C -0.456337 -6.317604 1.050810 0
M  V30 2 C 0.886654 -5.956678 1.594615 0
M  V30 3 N 1.710214 -6.774105 2.312286 0
M  V30 4 N 2.808683 -6.096387 2.615585 0
M  V30 5 C 2.746828 -4.828500 2.115439 0
M  V30 6 C 1.549764 -4.758946 1.486024 0
M  V30 7 C 1.042130 -3.602045 0.802148 0
M  V30 8 C 1.551309 -2.345964 0.594143 0
M  V30 9 C 0.834266 -1.436287 -0.103888 0
M  V30 10 N 1.148664 -0.165130 -0.415698 0
M  V30 11 C 0.291919 0.585603 -1.125432 0
M  V30 12 C 0.738934 1.972706 -1.418469 0
M  V30 13 N 0.409716 2.947187 -0.449879 0
M  V30 14 C -0.962368 3.155318 -0.155138 0
M  V30 15 C -1.028938 3.536485 1.334256 0
M  V30 16 C 0.174104 2.721251 1.830301 0 CFG=2
M  V30 17 C 0.672618 3.169924 3.162879 0
M  V30 18 C 1.159460 2.993796 0.747989 0
M  V30 19 N -0.914156 0.218656 -1.597865 0
M  V30 20 C -1.284714 -1.041034 -1.318517 0
M  V30 21 O -2.363562 -1.567205 -1.667739 0
M  V30 22 C -0.419411 -1.864464 -0.577503 0
M  V30 23 S -0.537835 -3.553466 -0.012335 0
M  V30 24 H -1.243359 -5.624249 1.374267 0
M  V30 25 H -0.676787 -7.364263 1.330522 0
M  V30 26 H -0.471790 -6.295789 -0.058289 0
M  V30 27 H 3.655229 -6.421852 3.162874 0
M  V30 28 H 3.504495 -4.066123 2.215553 0
M  V30 29 H 2.529583 -2.169045 1.021870 0
M  V30 30 H 0.270387 2.304549 -2.392103 0
M  V30 31 H 1.827107 2.001329 -1.633171 0
M  V30 32 H -1.631656 2.289363 -0.278879 0
M  V30 33 H -1.337425 4.060279 -0.700248 0
M  V30 34 H -0.787719 4.598194 1.470776 0
M  V30 35 H -1.964974 3.198550 1.780793 0
M  V30 36 H -0.156869 1.666644 1.887605 0
M  V30 37 H 0.543164 4.249644 3.273783 0
M  V30 38 H 1.776380 2.955664 3.216155 0
M  V30 39 H 0.240402 2.602739 4.012412 0
M  V30 40 H 1.525475 4.044921 0.920051 0
M  V30 41 H 2.068925 2.375786 0.769849 0
M  V30 42 H -1.563614 0.808002 -2.146119 0
M  V30 END ATOM
M  V30 BEGIN BOND
M  V30 1 1 1 2
M  V30 2 2 2 3
M  V30 3 1 3 4
M  V30 4 1 4 5
M  V30 5 2 5 6
M  V30 6 1 6 7
M  V30 7 2 7 8
M  V30 8 1 8 9
M  V30 9 1 9 10
M  V30 10 2 10 11
M  V30 11 1 11 12
M  V30 12 1 12 13
M  V30 13 1 13 14
M  V30 14 1 14 15
M  V30 15 1 15 16
M  V30 16 1 16 17
M  V30 17 1 16 18
M  V30 18 1 11 19
M  V30 19 1 19 20
M  V30 20 2 20 21
M  V30 21 1 20 22
M  V30 22 1 22 23
M  V30 23 1 6 2
M  V30 24 1 23 7
M  V30 25 2 22 9
M  V30 26 1 18 13
M  V30 27 1 1 24
M  V30 28 1 1 25
M  V30 29 1 1 26
M  V30 30 1 4 27
M  V30 31 1 5 28
M  V30 32 1 8 29
M  V30 33 1 12 30
M  V30 34 1 12 31
M  V30 35 1 14 32
M  V30 36 1 14 33
M  V30 37 1 15 34
M  V30 38 1 15 35
M  V30 39 1 16 36 CFG=1
M  V30 40 1 17 37
M  V30 41 1 17 38
M  V30 42 1 17 39
M  V30 43 1 18 40
M  V30 44 1 18 41
M  V30 45 1 19 42
M  V30 END BOND
M  V30 END CTAB
M  END
>  <Dataset>  (849) 
ChEMBL_Kinases

>  <Ligand_Instance>  (849) 
nan

>  <PDB_ID>  (849) 
nan

>  <Standardized_SMILES>  (849) 
Cc1n[nH]cc1-c1cc2nc(CN3CC[C@H](C)C3)[nH]c(=O)c2s1

>  <Name>  (849) 
nan

>  <Pocket>  (849) 
nan

>  <ATP_Site>  (849) 
nan

>  <Peripheral>  (849) 
nan

>  <Num_H_Atoms_ProtBoundConf>  (849) 
nan

>  <Num_Resolved_Atoms>  (849) 
nan

>  <Num_Not_Resolved_Atoms>  (849) 
nan

$$$$
CHEMBL481338
     RDKit          3D

  0  0  0  0  0  0  0  0  0  0999 V3000
M  V30 BEGIN CTAB
M  V30 COUNTS 45 48 0 0 0
M  V30 BEGIN ATOM
M  V30 1 C -0.933680 -1.999406 4.381050 0
M  V30 2 O 0.459797 -2.072019 4.434707 0
M  V30 3 C 1.302238 -1.692670 3.402311 0
M  V30 4 N 2.655456 -1.793867 3.533320 0
M  V30 5 C 3.445977 -1.408548 2.490876 0
M  V30 6 C 2.851168 -0.931357 1.344012 0
M  V30 7 C 1.462005 -0.830889 1.218037 0
M  V30 8 C 1.078535 -0.294778 -0.076277 0
M  V30 9 C 1.378916 1.014142 -0.435803 0
M  V30 10 C 2.081544 2.024919 0.365568 0
M  V30 11 C 3.267253 2.644806 0.032270 0
M  V30 12 C 3.772647 3.569799 0.916401 0
M  V30 13 C 3.138301 3.892388 2.110621 0
M  V30 14 F 3.674505 4.805849 2.942656 0
M  V30 15 C 1.949561 3.262332 2.431195 0
M  V30 16 C 1.420511 2.325994 1.555418 0
M  V30 17 N 0.925134 1.241968 -1.659422 0
M  V30 18 C 0.347224 0.087230 -2.060444 0
M  V30 19 N 0.437431 -0.851418 -1.101299 0
M  V30 20 C -0.071652 -2.184125 -1.200967 0
M  V30 21 C -1.454669 -2.368065 -0.757422 0
M  V30 22 C -1.910552 -2.755670 0.483485 0
M  V30 23 C -3.249108 -2.891993 0.789653 0
M  V30 24 C -4.183118 -2.622334 -0.212686 0
M  V30 25 C -3.812146 -2.225646 -1.494128 0
M  V30 26 C -4.759873 -1.948404 -2.523063 0
M  V30 27 N -5.531612 -1.742147 -3.346114 0
M  V30 28 C -2.453781 -2.116694 -1.706511 0
M  V30 29 N 0.741046 -1.227015 2.281076 0
M  V30 30 H -1.272611 -1.092192 4.929786 0
M  V30 31 H -1.310492 -1.907476 3.361311 0
M  V30 32 H -1.413318 -2.875096 4.872479 0
M  V30 33 H 4.517890 -1.501160 2.626916 0
M  V30 34 H 3.577106 -0.653862 0.579514 0
M  V30 35 H 3.705528 2.355894 -0.895737 0
M  V30 36 H 4.694882 4.054777 0.661065 0
M  V30 37 H 1.433789 3.488667 3.345762 0
M  V30 38 H 0.476280 1.859971 1.863123 0
M  V30 39 H -0.104754 0.014714 -3.039540 0
M  V30 40 H -0.006232 -2.484331 -2.287485 0
M  V30 41 H 0.644050 -2.872239 -0.695612 0
M  V30 42 H -1.161754 -2.951694 1.210405 0
M  V30 43 H -3.550634 -3.200094 1.782105 0
M  V30 44 H -5.251606 -2.717511 -0.013803 0
M  V30 45 H -2.178348 -1.803756 -2.718664 0
M  V30 END ATOM
M  V30 BEGIN BOND
M  V30 1 1 1 2
M  V30 2 1 2 3
M  V30 3 2 3 4
M  V30 4 1 4 5
M  V30 5 2 5 6
M  V30 6 1 6 7
M  V30 7 1 7 8
M  V30 8 2 8 9
M  V30 9 1 9 10
M  V30 10 2 10 11
M  V30 11 1 11 12
M  V30 12 2 12 13
M  V30 13 1 13 14
M  V30 14 1 13 15
M  V30 15 2 15 16
M  V30 16 1 9 17
M  V30 17 2 17 18
M  V30 18 1 18 19
M  V30 19 1 19 20
M  V30 20 1 20 21
M  V30 21 2 21 22
M  V30 22 1 22 23
M  V30 23 2 23 24
M  V30 24 1 24 25
M  V30 25 1 25 26
M  V30 26 3 26 27
M  V30 27 2 25 28
M  V30 28 2 7 29
M  V30 29 1 29 3
M  V30 30 1 19 8
M  V30 31 1 28 21
M  V30 32 1 16 10
M  V30 33 1 1 30
M  V30 34 1 1 31
M  V30 35 1 1 32
M  V30 36 1 5 33
M  V30 37 1 6 34
M  V30 38 1 11 35
M  V30 39 1 12 36
M  V30 40 1 15 37
M  V30 41 1 16 38
M  V30 42 1 18 39
M  V30 43 1 20 40
M  V30 44 1 20 41
M  V30 45 1 22 42
M  V30 46 1 23 43
M  V30 47 1 24 44
M  V30 48 1 28 45
M  V30 END BOND
M  V30 END CTAB
M  END
>  <Dataset>  (850) 
ChEMBL_Kinases

>  <Ligand_Instance>  (850) 
nan

>  <PDB_ID>  (850) 
nan

>  <Standardized_SMILES>  (850) 
COc1nccc(-c2c(-c3ccc(F)cc3)ncn2Cc2cccc(C#N)c2)n1

>  <Name>  (850) 
nan

>  <Pocket>  (850) 
nan

>  <ATP_Site>  (850) 
nan

>  <Peripheral>  (850) 
nan

>  <Num_H_Atoms_ProtBoundConf>  (850) 
nan

>  <Num_Resolved_Atoms>  (850) 
nan

>  <Num_Not_Resolved_Atoms>  (850) 
nan

$$$$
CHEMBL4095435
     RDKit          3D

  0  0  0  0  0  0  0  0  0  0999 V3000
M  V30 BEGIN CTAB
M  V30 COUNTS 51 54 0 0 0
M  V30 BEGIN ATOM
M  V30 1 C 0.977309 -3.506787 5.150517 0
M  V30 2 C 1.301459 -4.021072 3.798025 0
M  V30 3 C 1.631802 -5.342550 3.582441 0
M  V30 4 C 1.918349 -5.733980 2.294768 0
M  V30 5 C 1.881634 -4.846577 1.238930 0
M  V30 6 F 2.182633 -5.355685 0.029063 0
M  V30 7 C 1.552878 -3.525680 1.445073 0
M  V30 8 C 1.536407 -2.652277 0.278258 0
M  V30 9 C 1.224885 -1.317007 0.350293 0
M  V30 10 C 1.188704 -0.426735 -0.713430 0
M  V30 11 N 0.857217 0.948887 -0.574885 0
M  V30 12 C 0.453004 1.868709 0.411244 0
M  V30 13 C 1.464002 2.804098 0.703360 0
M  V30 14 C 1.341776 3.836984 1.635370 0
M  V30 15 N 0.160015 3.898036 2.267198 0
M  V30 16 C -0.839537 3.047391 2.037859 0
M  V30 17 C -2.118184 2.893634 2.495861 0
M  V30 18 N -2.664557 1.857131 1.863840 0
M  V30 19 N -1.815513 1.291225 0.991224 0
M  V30 20 C -2.142590 0.181707 0.161815 0
M  V30 21 C -2.721498 0.608039 -1.179406 0 CFG=2
M  V30 22 C -3.981407 1.404352 -0.917027 0
M  V30 23 O -3.074695 -0.566575 -1.849058 0
M  V30 24 C -0.712517 2.032765 1.118620 0
M  V30 25 C 1.492559 -0.923392 -1.958608 0
M  V30 26 C 1.483640 -0.055293 -3.166444 0
M  V30 27 C 1.802092 -2.258378 -2.018188 0
M  V30 28 N 1.824662 -3.083340 -0.961524 0
M  V30 29 C 1.268682 -3.150642 2.741405 0
M  V30 30 H 1.902474 -3.277397 5.709452 0
M  V30 31 H 0.369751 -2.572424 5.075997 0
M  V30 32 H 0.405065 -4.261991 5.704637 0
M  V30 33 H 1.649399 -6.013907 4.447206 0
M  V30 34 H 2.170004 -6.799351 2.216072 0
M  V30 35 H 0.976364 -0.866391 1.304037 0
M  V30 36 H 0.900569 1.523091 -1.472360 0
M  V30 37 H 2.437282 2.801453 0.222254 0
M  V30 38 H 2.139078 4.536525 1.834446 0
M  V30 39 H -2.623274 3.503606 3.248643 0
M  V30 40 H -1.444238 -0.616102 0.036921 0
M  V30 41 H -3.034433 -0.318667 0.670408 0
M  V30 42 H -1.972377 1.165080 -1.756036 0
M  V30 43 H -4.455081 1.099520 0.045999 0
M  V30 44 H -4.741787 1.232515 -1.716412 0
M  V30 45 H -3.686402 2.486234 -0.907363 0
M  V30 46 H -3.598041 -0.404592 -2.657195 0
M  V30 47 H 2.101881 0.862650 -3.021852 0
M  V30 48 H 0.446593 0.303859 -3.368010 0
M  V30 49 H 1.774097 -0.633395 -4.047378 0
M  V30 50 H 2.045415 -2.661052 -3.008103 0
M  V30 51 H 1.012154 -2.122962 2.906703 0
M  V30 END ATOM
M  V30 BEGIN BOND
M  V30 1 1 1 2
M  V30 2 2 2 3
M  V30 3 1 3 4
M  V30 4 2 4 5
M  V30 5 1 5 6
M  V30 6 1 5 7
M  V30 7 1 7 8
M  V30 8 2 8 9
M  V30 9 1 9 10
M  V30 10 1 10 11
M  V30 11 1 11 12
M  V30 12 2 12 13
M  V30 13 1 13 14
M  V30 14 2 14 15
M  V30 15 1 15 16
M  V30 16 1 16 17
M  V30 17 2 17 18
M  V30 18 1 18 19
M  V30 19 1 19 20
M  V30 20 1 20 21
M  V30 21 1 21 22
M  V30 22 1 21 23
M  V30 23 1 19 24
M  V30 24 2 10 25
M  V30 25 1 25 26
M  V30 26 1 25 27
M  V30 27 2 27 28
M  V30 28 2 7 29
M  V30 29 1 29 2
M  V30 30 1 28 8
M  V30 31 1 24 12
M  V30 32 2 24 16
M  V30 33 1 1 30
M  V30 34 1 1 31
M  V30 35 1 1 32
M  V30 36 1 3 33
M  V30 37 1 4 34
M  V30 38 1 9 35
M  V30 39 1 11 36
M  V30 40 1 13 37
M  V30 41 1 14 38
M  V30 42 1 17 39
M  V30 43 1 20 40
M  V30 44 1 20 41
M  V30 45 1 21 42 CFG=3
M  V30 46 1 22 43
M  V30 47 1 22 44
M  V30 48 1 22 45
M  V30 49 1 23 46
M  V30 50 1 26 47
M  V30 51 1 26 48
M  V30 52 1 26 49
M  V30 53 1 27 50
M  V30 54 1 29 51
M  V30 END BOND
M  V30 END CTAB
M  END
>  <Dataset>  (851) 
ChEMBL_Kinases

>  <Ligand_Instance>  (851) 
nan

>  <PDB_ID>  (851) 
nan

>  <Standardized_SMILES>  (851) 
Cc1ccc(F)c(-c2cc(Nc3ccnc4cnn(C[C@H](C)O)c34)c(C)cn2)c1

>  <Name>  (851) 
nan

>  <Pocket>  (851) 
nan

>  <ATP_Site>  (851) 
nan

>  <Peripheral>  (851) 
nan

>  <Num_H_Atoms_ProtBoundConf>  (851) 
nan

>  <Num_Resolved_Atoms>  (851) 
nan

>  <Num_Not_Resolved_Atoms>  (851) 
nan

$$$$
CHEMBL4095362
     RDKit          3D

  0  0  0  0  0  0  0  0  0  0999 V3000
M  V30 BEGIN CTAB
M  V30 COUNTS 47 50 0 0 0
M  V30 BEGIN ATOM
M  V30 1 C 0.120856 -4.107105 5.318840 0
M  V30 2 C -0.044517 -3.508913 3.979406 0
M  V30 3 C 0.222212 -3.949823 2.708970 0
M  V30 4 C -0.118852 -3.001161 1.765953 0
M  V30 5 N 0.002440 -3.068726 0.348488 0
M  V30 6 C -0.451655 -1.913680 -0.389282 0
M  V30 7 N 0.427342 -0.904928 -0.643577 0
M  V30 8 C 0.041596 0.193257 -1.329920 0
M  V30 9 C 0.925040 1.313464 -1.636524 0
M  V30 10 O 1.264546 1.836651 -2.728863 0
M  V30 11 N 1.513597 1.930392 -0.476620 0
M  V30 12 C 2.381895 3.040071 -0.797414 0
M  V30 13 C 3.155813 3.416718 0.429760 0
M  V30 14 N 2.350101 3.590934 1.585274 0
M  V30 15 C 1.211138 2.757431 1.724990 0
M  V30 16 C 1.271595 1.499977 0.890542 0 CFG=2
M  V30 17 C 2.255961 0.502581 1.394496 0
M  V30 18 N -1.244705 0.301542 -1.778151 0
M  V30 19 C -2.119488 -0.681845 -1.535373 0
M  V30 20 C -3.419619 -0.596320 -1.974237 0
M  V30 21 C -4.330886 -1.626191 -1.717092 0
M  V30 22 C -3.919258 -2.760103 -1.003926 0
M  V30 23 Cl -5.077570 -4.056466 -0.684808 0
M  V30 24 C -2.598203 -2.869523 -0.545804 0
M  V30 25 C -1.772695 -1.809436 -0.845528 0
M  V30 26 N -0.587340 -2.006415 2.534219 0
M  V30 27 N -0.550149 -2.285092 3.805194 0
M  V30 28 H 0.558859 -5.132703 5.283600 0
M  V30 29 H -0.906547 -4.178157 5.783105 0
M  V30 30 H 0.739812 -3.407200 5.919755 0
M  V30 31 H 0.653410 -4.940607 2.514734 0
M  V30 32 H 0.405296 -3.934715 -0.058973 0
M  V30 33 H 3.075025 2.798716 -1.634053 0
M  V30 34 H 1.724477 3.888181 -1.130486 0
M  V30 35 H 3.733318 4.378252 0.236280 0
M  V30 36 H 3.950808 2.625879 0.571644 0
M  V30 37 H 2.884761 3.750646 2.464790 0
M  V30 38 H 0.299672 3.350158 1.469267 0
M  V30 39 H 1.105953 2.488768 2.793026 0
M  V30 40 H 0.255291 1.055339 0.900259 0
M  V30 41 H 1.728731 -0.284579 2.010613 0
M  V30 42 H 2.808060 -0.054965 0.600047 0
M  V30 43 H 2.962945 0.982633 2.132517 0
M  V30 44 H -3.750413 0.281249 -2.530932 0
M  V30 45 H -5.369573 -1.574152 -2.059285 0
M  V30 46 H -2.269763 -3.742001 0.006874 0
M  V30 47 H -0.909229 -1.532304 4.449799 0
M  V30 END ATOM
M  V30 BEGIN BOND
M  V30 1 1 1 2
M  V30 2 2 2 3
M  V30 3 1 3 4
M  V30 4 1 4 5
M  V30 5 1 5 6
M  V30 6 2 6 7
M  V30 7 1 7 8
M  V30 8 1 8 9
M  V30 9 2 9 10
M  V30 10 1 9 11
M  V30 11 1 11 12
M  V30 12 1 12 13
M  V30 13 1 13 14
M  V30 14 1 14 15
M  V30 15 1 15 16
M  V30 16 1 16 17
M  V30 17 2 8 18
M  V30 18 1 18 19
M  V30 19 2 19 20
M  V30 20 1 20 21
M  V30 21 2 21 22
M  V30 22 1 22 23
M  V30 23 1 22 24
M  V30 24 2 24 25
M  V30 25 2 4 26
M  V30 26 1 26 27
M  V30 27 1 27 2
M  V30 28 1 25 6
M  V30 29 1 16 11
M  V30 30 1 25 19
M  V30 31 1 1 28
M  V30 32 1 1 29
M  V30 33 1 1 30
M  V30 34 1 3 31
M  V30 35 1 5 32
M  V30 36 1 12 33
M  V30 37 1 12 34
M  V30 38 1 13 35
M  V30 39 1 13 36
M  V30 40 1 14 37
M  V30 41 1 15 38
M  V30 42 1 15 39
M  V30 43 1 16 40 CFG=3
M  V30 44 1 17 41
M  V30 45 1 17 42
M  V30 46 1 17 43
M  V30 47 1 20 44
M  V30 48 1 21 45
M  V30 49 1 24 46
M  V30 50 1 27 47
M  V30 END BOND
M  V30 END CTAB
M  END
>  <Dataset>  (852) 
ChEMBL_Kinases

>  <Ligand_Instance>  (852) 
nan

>  <PDB_ID>  (852) 
nan

>  <Standardized_SMILES>  (852) 
Cc1cc(Nc2nc(C(=O)N3CCNC[C@@H]3C)nc3ccc(Cl)cc23)n[nH]1

>  <Name>  (852) 
nan

>  <Pocket>  (852) 
nan

>  <ATP_Site>  (852) 
nan

>  <Peripheral>  (852) 
nan

>  <Num_H_Atoms_ProtBoundConf>  (852) 
nan

>  <Num_Resolved_Atoms>  (852) 
nan

>  <Num_Not_Resolved_Atoms>  (852) 
nan

$$$$
CHEMBL4095283
     RDKit          3D

  0  0  0  0  0  0  0  0  0  0999 V3000
M  V30 BEGIN CTAB
M  V30 COUNTS 60 61 0 0 0
M  V30 BEGIN ATOM
M  V30 1 C 4.287820 1.789769 5.746104 0
M  V30 2 C 4.456742 2.576717 4.464918 0
M  V30 3 C 5.767806 2.281045 3.782380 0
M  V30 4 C 5.927773 3.054906 2.528698 0
M  V30 5 C 4.874061 2.796635 1.489751 0
M  V30 6 C 4.798432 1.387950 1.034107 0
M  V30 7 C 3.745993 1.143439 -0.015293 0
M  V30 8 C 2.370256 1.470617 0.442330 0
M  V30 9 C 1.313349 1.217310 -0.612645 0
M  V30 10 C -0.017438 1.594827 -0.004092 0
M  V30 11 C -1.170895 1.399449 -0.928442 0
M  V30 12 C -1.351497 0.012702 -1.388846 0
M  V30 13 O -0.732235 -1.076764 -1.167236 0
M  V30 14 N -2.423564 -0.258978 -2.273716 0
M  V30 15 N -2.652335 -1.564908 -2.751835 0
M  V30 16 C -3.531281 -2.228976 -1.856100 0
M  V30 17 O -3.861954 -1.479276 -0.891989 0
M  V30 18 C -4.059490 -3.566551 -1.906777 0
M  V30 19 C -4.903538 -3.927390 -0.876325 0
M  V30 20 O -5.256319 -3.070759 0.184429 0
M  V30 21 C -5.469996 -5.196220 -0.826855 0
M  V30 22 C -6.307822 -5.556452 0.195061 0
M  V30 23 C -6.875257 -6.811231 0.254823 0
M  V30 24 C -6.631183 -7.761369 -0.702872 0
M  V30 25 Cl -7.370365 -9.332460 -0.585028 0
M  V30 26 C -5.788634 -7.405304 -1.734310 0
M  V30 27 C -5.214315 -6.155205 -1.807326 0
M  V30 28 N -4.388758 -5.765707 -2.792415 0
M  V30 29 C -3.847496 -4.537071 -2.829451 0
M  V30 30 O -3.088985 -4.265706 -3.788570 0
M  V30 31 H 3.559463 0.948833 5.589946 0
M  V30 32 H 5.256318 1.377264 6.070922 0
M  V30 33 H 3.888816 2.432069 6.557057 0
M  V30 34 H 4.507135 3.651640 4.764079 0
M  V30 35 H 3.571714 2.486460 3.811479 0
M  V30 36 H 5.989525 1.204230 3.700999 0
M  V30 37 H 6.550193 2.664806 4.495947 0
M  V30 38 H 5.916394 4.133910 2.785987 0
M  V30 39 H 6.919504 2.861074 2.072450 0
M  V30 40 H 3.887093 3.117601 1.898792 0
M  V30 41 H 5.043337 3.451008 0.610484 0
M  V30 42 H 5.777055 1.065812 0.606555 0
M  V30 43 H 4.522145 0.758926 1.901549 0
M  V30 44 H 3.834461 0.125703 -0.437814 0
M  V30 45 H 3.989057 1.820836 -0.887489 0
M  V30 46 H 2.129781 0.778485 1.300370 0
M  V30 47 H 2.299406 2.494090 0.842162 0
M  V30 48 H 1.273146 0.159303 -0.904552 0
M  V30 49 H 1.554851 1.815184 -1.499941 0
M  V30 50 H 0.037088 2.679013 0.227846 0
M  V30 51 H -0.183931 1.079478 0.961654 0
M  V30 52 H -2.081077 1.733187 -0.403671 0
M  V30 53 H -1.044839 2.032361 -1.832695 0
M  V30 54 H -3.123740 0.438831 -2.649307 0
M  V30 55 H -2.331011 -2.114934 -3.577419 0
M  V30 56 H -4.579389 -2.809811 0.890779 0
M  V30 57 H -6.543385 -4.862773 0.979396 0
M  V30 58 H -7.534258 -7.047171 1.088497 0
M  V30 59 H -5.560363 -8.124417 -2.523315 0
M  V30 60 H -4.166684 -6.461003 -3.558355 0
M  V30 END ATOM
M  V30 BEGIN BOND
M  V30 1 1 1 2
M  V30 2 1 2 3
M  V30 3 1 3 4
M  V30 4 1 4 5
M  V30 5 1 5 6
M  V30 6 1 6 7
M  V30 7 1 7 8
M  V30 8 1 8 9
M  V30 9 1 9 10
M  V30 10 1 10 11
M  V30 11 1 11 12
M  V30 12 2 12 13
M  V30 13 1 12 14
M  V30 14 1 14 15
M  V30 15 1 15 16
M  V30 16 2 16 17
M  V30 17 1 16 18
M  V30 18 2 18 19
M  V30 19 1 19 20
M  V30 20 1 19 21
M  V30 21 2 21 22
M  V30 22 1 22 23
M  V30 23 2 23 24
M  V30 24 1 24 25
M  V30 25 1 24 26
M  V30 26 2 26 27
M  V30 27 1 27 28
M  V30 28 1 28 29
M  V30 29 2 29 30
M  V30 30 1 29 18
M  V30 31 1 27 21
M  V30 32 1 1 31
M  V30 33 1 1 32
M  V30 34 1 1 33
M  V30 35 1 2 34
M  V30 36 1 2 35
M  V30 37 1 3 36
M  V30 38 1 3 37
M  V30 39 1 4 38
M  V30 40 1 4 39
M  V30 41 1 5 40
M  V30 42 1 5 41
M  V30 43 1 6 42
M  V30 44 1 6 43
M  V30 45 1 7 44
M  V30 46 1 7 45
M  V30 47 1 8 46
M  V30 48 1 8 47
M  V30 49 1 9 48
M  V30 50 1 9 49
M  V30 51 1 10 50
M  V30 52 1 10 51
M  V30 53 1 11 52
M  V30 54 1 11 53
M  V30 55 1 14 54
M  V30 56 1 15 55
M  V30 57 1 20 56
M  V30 58 1 22 57
M  V30 59 1 23 58
M  V30 60 1 26 59
M  V30 61 1 28 60
M  V30 END BOND
M  V30 END CTAB
M  END
>  <Dataset>  (853) 
ChEMBL_Kinases

>  <Ligand_Instance>  (853) 
nan

>  <PDB_ID>  (853) 
nan

>  <Standardized_SMILES>  (853) 
CCCCCCCCCCCC(=O)NNC(=O)c1c(O)c2ccc(Cl)cc2[nH]c1=O

>  <Name>  (853) 
nan

>  <Pocket>  (853) 
nan

>  <ATP_Site>  (853) 
nan

>  <Peripheral>  (853) 
nan

>  <Num_H_Atoms_ProtBoundConf>  (853) 
nan

>  <Num_Resolved_Atoms>  (853) 
nan

>  <Num_Not_Resolved_Atoms>  (853) 
nan

$$$$
CHEMBL4095268
     RDKit          3D

  0  0  0  0  0  0  0  0  0  0999 V3000
M  V30 BEGIN CTAB
M  V30 COUNTS 32 34 0 0 0
M  V30 BEGIN ATOM
M  V30 1 N -1.049334 -3.710888 0.656049 0
M  V30 2 C -0.022768 -3.215999 0.648937 0
M  V30 3 C 1.277573 -2.616918 0.639183 0
M  V30 4 C 2.471165 -3.340675 0.715216 0
M  V30 5 N 3.498483 -2.462463 0.687543 0
M  V30 6 C 3.057800 -1.189740 0.597091 0
M  V30 7 N 3.637805 0.023794 0.541836 0
M  V30 8 C 2.833292 1.124087 0.457251 0
M  V30 9 N 3.390064 2.440257 0.395788 0
M  V30 10 N 1.485069 1.002064 0.429049 0
M  V30 11 C 0.860622 -0.211452 0.482706 0
M  V30 12 N -0.578052 -0.148017 0.418153 0
M  V30 13 C -1.416971 -0.607499 -0.667081 0
M  V30 14 C -2.748525 -1.006877 -0.149259 0
M  V30 15 C -2.948038 -0.918308 1.324553 0
M  V30 16 C -2.516782 0.481967 1.772031 0
M  V30 17 C -0.994675 0.473874 1.660220 0
M  V30 18 C 1.687115 -1.305974 0.568172 0
M  V30 19 H 2.547714 -4.424370 0.784438 0
M  V30 20 H 4.497620 -2.760304 0.732091 0
M  V30 21 H 3.995637 2.770181 -0.397302 0
M  V30 22 H 3.064653 2.944188 1.271082 0
M  V30 23 H -0.908182 -1.341091 -1.314263 0
M  V30 24 H -1.546078 0.295073 -1.328316 0
M  V30 25 H -3.581532 -0.404259 -0.617732 0
M  V30 26 H -2.980397 -2.055493 -0.492291 0
M  V30 27 H -2.354776 -1.606999 1.936920 0
M  V30 28 H -4.037156 -1.004759 1.531021 0
M  V30 29 H -2.746338 0.629926 2.847903 0
M  V30 30 H -2.961226 1.249883 1.118246 0
M  V30 31 H -0.677589 1.535517 1.595802 0
M  V30 32 H -0.538307 0.016975 2.562339 0
M  V30 END ATOM
M  V30 BEGIN BOND
M  V30 1 3 1 2
M  V30 2 1 2 3
M  V30 3 2 3 4
M  V30 4 1 4 5
M  V30 5 1 5 6
M  V30 6 2 6 7
M  V30 7 1 7 8
M  V30 8 1 8 9
M  V30 9 2 8 10
M  V30 10 1 10 11
M  V30 11 1 11 12
M  V30 12 1 12 13
M  V30 13 1 13 14
M  V30 14 1 14 15
M  V30 15 1 15 16
M  V30 16 1 16 17
M  V30 17 2 11 18
M  V30 18 1 18 3
M  V30 19 1 18 6
M  V30 20 1 17 12
M  V30 21 1 4 19
M  V30 22 1 5 20
M  V30 23 1 9 21
M  V30 24 1 9 22
M  V30 25 1 13 23
M  V30 26 1 13 24
M  V30 27 1 14 25
M  V30 28 1 14 26
M  V30 29 1 15 27
M  V30 30 1 15 28
M  V30 31 1 16 29
M  V30 32 1 16 30
M  V30 33 1 17 31
M  V30 34 1 17 32
M  V30 END BOND
M  V30 END CTAB
M  END
>  <Dataset>  (854) 
ChEMBL_Kinases

>  <Ligand_Instance>  (854) 
nan

>  <PDB_ID>  (854) 
nan

>  <Standardized_SMILES>  (854) 
N#Cc1c[nH]c2nc(N)nc(N3CCCCC3)c12

>  <Name>  (854) 
nan

>  <Pocket>  (854) 
nan

>  <ATP_Site>  (854) 
nan

>  <Peripheral>  (854) 
nan

>  <Num_H_Atoms_ProtBoundConf>  (854) 
nan

>  <Num_Resolved_Atoms>  (854) 
nan

>  <Num_Not_Resolved_Atoms>  (854) 
nan

$$$$
CHEMBL4095253
     RDKit          3D

  0  0  0  0  0  0  0  0  0  0999 V3000
M  V30 BEGIN CTAB
M  V30 COUNTS 51 55 0 0 0
M  V30 BEGIN ATOM
M  V30 1 C -0.363382 -1.404529 3.553770 0
M  V30 2 C 0.885801 -1.163887 4.014703 0
M  V30 3 S 2.198716 -1.876108 3.119301 0
M  V30 4 O 1.711017 -2.875540 2.117515 0
M  V30 5 O 2.901541 -2.780654 4.152581 0
M  V30 6 N 3.372496 -0.836240 2.543379 0
M  V30 7 C 3.968598 -0.209670 3.768311 0
M  V30 8 C 2.958335 0.902999 4.088180 0
M  V30 9 C 2.217100 1.177100 2.780123 0
M  V30 10 C 3.081366 0.341376 1.851433 0 CFG=2
M  V30 11 C 2.804934 0.423760 0.432051 0
M  V30 12 N 1.709183 -0.271068 -0.152016 0
M  V30 13 C 0.445197 0.244553 -0.246255 0
M  V30 14 C -0.432862 -0.639079 -0.857926 0
M  V30 15 C -1.836665 -0.328371 -1.050244 0
M  V30 16 C -2.108695 0.883244 -1.691129 0
M  V30 17 C -3.385212 1.357764 -1.949578 0
M  V30 18 C -4.459360 0.591230 -1.551973 0
M  V30 19 C -4.220338 -0.625134 -0.908520 0
M  V30 20 C -2.933289 -1.058981 -0.671228 0
M  V30 21 O -5.469121 -1.167844 -0.630135 0
M  V30 22 C -6.453412 -0.128853 -0.675749 0
M  V30 23 O -5.858094 0.729093 -1.633825 0
M  V30 24 C 0.298260 -1.739270 -1.157656 0
M  V30 25 C -0.037229 -2.925960 -1.772216 0
M  V30 26 N -1.363156 -3.159024 -2.227304 0
M  V30 27 N 0.954394 -3.848763 -1.931376 0
M  V30 28 C 2.207055 -3.584341 -1.495060 0
M  V30 29 N 2.524718 -2.416358 -0.894150 0
M  V30 30 C 1.549519 -1.478795 -0.724587 0
M  V30 31 H -1.426682 -1.495511 3.324233 0
M  V30 32 H -0.644768 -1.995589 2.683963 0
M  V30 33 H 0.297581 -0.620925 4.737168 0
M  V30 34 H 4.072664 -0.936532 4.571269 0
M  V30 35 H 4.932728 0.204296 3.425135 0
M  V30 36 H 3.613873 1.787065 4.340813 0
M  V30 37 H 2.309353 0.670451 4.927070 0
M  V30 38 H 2.307706 2.262820 2.546561 0
M  V30 39 H 1.168156 0.938236 2.787960 0
M  V30 40 H 4.071914 0.934822 1.949813 0
M  V30 41 H 3.785352 0.171352 -0.097864 0
M  V30 42 H 2.735017 1.533382 0.189151 0
M  V30 43 H 0.174780 1.244245 0.124741 0
M  V30 44 H -1.315562 1.534475 -2.029966 0
M  V30 45 H -3.548857 2.300879 -2.448179 0
M  V30 46 H -2.739790 -1.986745 -0.167907 0
M  V30 47 H -6.486239 0.289240 0.330973 0
M  V30 48 H -7.430889 -0.503785 -1.004288 0
M  V30 49 H -1.980131 -2.782256 -2.999186 0
M  V30 50 H -1.520909 -2.513952 -3.058598 0
M  V30 51 H 3.004992 -4.295324 -1.608621 0
M  V30 END ATOM
M  V30 BEGIN BOND
M  V30 1 2 1 2
M  V30 2 1 2 3
M  V30 3 2 3 4
M  V30 4 2 3 5
M  V30 5 1 3 6
M  V30 6 1 6 7
M  V30 7 1 7 8
M  V30 8 1 8 9
M  V30 9 1 9 10
M  V30 10 1 10 11
M  V30 11 1 11 12
M  V30 12 1 12 13
M  V30 13 2 13 14
M  V30 14 1 14 15
M  V30 15 2 15 16
M  V30 16 1 16 17
M  V30 17 2 17 18
M  V30 18 1 18 19
M  V30 19 2 19 20
M  V30 20 1 19 21
M  V30 21 1 21 22
M  V30 22 1 22 23
M  V30 23 1 14 24
M  V30 24 2 24 25
M  V30 25 1 25 26
M  V30 26 1 25 27
M  V30 27 2 27 28
M  V30 28 1 28 29
M  V30 29 2 29 30
M  V30 30 1 10 6
M  V30 31 1 30 12
M  V30 32 1 20 15
M  V30 33 1 30 24
M  V30 34 1 23 18
M  V30 35 1 1 31
M  V30 36 1 1 32
M  V30 37 1 2 33
M  V30 38 1 7 34
M  V30 39 1 7 35
M  V30 40 1 8 36
M  V30 41 1 8 37
M  V30 42 1 9 38
M  V30 43 1 9 39
M  V30 44 1 10 40 CFG=3
M  V30 45 1 11 41
M  V30 46 1 11 42
M  V30 47 1 13 43
M  V30 48 1 16 44
M  V30 49 1 17 45
M  V30 50 1 20 46
M  V30 51 1 22 47
M  V30 52 1 22 48
M  V30 53 1 26 49
M  V30 54 1 26 50
M  V30 55 1 28 51
M  V30 END BOND
M  V30 END CTAB
M  END
>  <Dataset>  (855) 
ChEMBL_Kinases

>  <Ligand_Instance>  (855) 
nan

>  <PDB_ID>  (855) 
nan

>  <Standardized_SMILES>  (855) 
C=CS(=O)(=O)N1CCC[C@@H]1Cn1cc(-c2ccc3c(c2)OCO3)c2c(N)ncnc21

>  <Name>  (855) 
nan

>  <Pocket>  (855) 
nan

>  <ATP_Site>  (855) 
nan

>  <Peripheral>  (855) 
nan

>  <Num_H_Atoms_ProtBoundConf>  (855) 
nan

>  <Num_Resolved_Atoms>  (855) 
nan

>  <Num_Not_Resolved_Atoms>  (855) 
nan

$$$$
CHEMBL481339
     RDKit          3D

  0  0  0  0  0  0  0  0  0  0999 V3000
M  V30 BEGIN CTAB
M  V30 COUNTS 59 63 0 0 0
M  V30 BEGIN ATOM
M  V30 1 C 1.994418 -0.515098 4.360356 0
M  V30 2 C 1.735890 -0.205723 2.898006 0 CFG=2
M  V30 3 N 1.442449 -1.433710 2.187194 0
M  V30 4 C 1.189066 -1.159478 0.793972 0
M  V30 5 N 2.184347 -1.149504 -0.124306 0
M  V30 6 C 1.907622 -0.890665 -1.414292 0
M  V30 7 C 0.635192 -0.630389 -1.853527 0
M  V30 8 C -0.388791 -0.640692 -0.909563 0
M  V30 9 C -1.831284 -0.404966 -1.086861 0
M  V30 10 C -2.592967 0.622648 -0.564011 0
M  V30 11 C -2.016021 1.668150 0.280742 0
M  V30 12 C -1.060279 2.412013 -0.407420 0
M  V30 13 C -0.393051 3.451148 0.207598 0
M  V30 14 C -0.669840 3.770712 1.534127 0
M  V30 15 F -0.034357 4.792261 2.187950 0
M  V30 16 C -1.613112 3.023412 2.185759 0
M  V30 17 C -2.280571 1.995953 1.595911 0
M  V30 18 N -3.864328 0.456369 -0.971699 0
M  V30 19 C -3.868427 -0.653570 -1.728044 0
M  V30 20 N -2.641669 -1.217577 -1.827626 0
M  V30 21 C -2.253955 -2.402026 -2.541988 0
M  V30 22 C -2.358379 -3.628161 -1.708861 0
M  V30 23 C -3.520492 -4.370327 -1.658247 0
M  V30 24 C -3.590645 -5.503902 -0.876529 0
M  V30 25 C -2.510848 -5.941436 -0.117398 0
M  V30 26 C -2.555598 -7.115296 0.703491 0
M  V30 27 N -2.576932 -8.066595 1.364225 0
M  V30 28 C -1.331548 -5.217270 -0.147987 0
M  V30 29 C -1.304062 -4.091900 -0.941532 0
M  V30 30 N -0.078447 -0.906240 0.391986 0
M  V30 31 C 2.930077 0.478360 2.298525 0
M  V30 32 C 3.127943 1.807193 1.988817 0
M  V30 33 C 4.329532 2.180797 1.438964 0
M  V30 34 C 5.328819 1.263306 1.194052 0
M  V30 35 C 5.146187 -0.066371 1.497821 0
M  V30 36 C 3.932066 -0.460916 2.056419 0
M  V30 37 H 1.544714 -1.503367 4.580769 0
M  V30 38 H 1.515194 0.226187 5.028376 0
M  V30 39 H 3.076265 -0.592246 4.598812 0
M  V30 40 H 0.839254 0.442485 2.825216 0
M  V30 41 H 1.400015 -2.412736 2.552582 0
M  V30 42 H 2.658830 -0.871206 -2.176186 0
M  V30 43 H 0.274766 -0.411624 -2.827812 0
M  V30 44 H -0.740851 2.284472 -1.430883 0
M  V30 45 H 0.364507 4.075011 -0.265639 0
M  V30 46 H -1.863057 3.225884 3.203000 0
M  V30 47 H -3.042548 1.342609 2.016378 0
M  V30 48 H -4.774400 -1.034729 -2.197421 0
M  V30 49 H -2.977407 -2.490369 -3.405275 0
M  V30 50 H -1.259242 -2.242135 -2.983652 0
M  V30 51 H -4.379592 -4.065468 -2.231445 0
M  V30 52 H -4.469809 -6.128162 -0.793624 0
M  V30 53 H -0.480893 -5.531980 0.428673 0
M  V30 54 H -0.379624 -3.547551 -0.948135 0
M  V30 55 H 2.266779 2.402675 2.233630 0
M  V30 56 H 4.417568 3.242660 1.219945 0
M  V30 57 H 6.260074 1.610535 0.757626 0
M  V30 58 H 5.964991 -0.758184 1.286824 0
M  V30 59 H 3.905331 -1.528207 2.251766 0
M  V30 END ATOM
M  V30 BEGIN BOND
M  V30 1 1 1 2
M  V30 2 1 2 3
M  V30 3 1 3 4
M  V30 4 2 4 5
M  V30 5 1 5 6
M  V30 6 2 6 7
M  V30 7 1 7 8
M  V30 8 1 8 9
M  V30 9 2 9 10
M  V30 10 1 10 11
M  V30 11 2 11 12
M  V30 12 1 12 13
M  V30 13 2 13 14
M  V30 14 1 14 15
M  V30 15 1 14 16
M  V30 16 2 16 17
M  V30 17 1 10 18
M  V30 18 2 18 19
M  V30 19 1 19 20
M  V30 20 1 20 21
M  V30 21 1 21 22
M  V30 22 2 22 23
M  V30 23 1 23 24
M  V30 24 2 24 25
M  V30 25 1 25 26
M  V30 26 3 26 27
M  V30 27 1 25 28
M  V30 28 2 28 29
M  V30 29 2 8 30
M  V30 30 1 2 31
M  V30 31 2 31 32
M  V30 32 1 32 33
M  V30 33 2 33 34
M  V30 34 1 34 35
M  V30 35 2 35 36
M  V30 36 1 30 4
M  V30 37 1 36 31
M  V30 38 1 20 9
M  V30 39 1 29 22
M  V30 40 1 17 11
M  V30 41 1 1 37
M  V30 42 1 1 38
M  V30 43 1 1 39
M  V30 44 1 2 40 CFG=1
M  V30 45 1 3 41
M  V30 46 1 6 42
M  V30 47 1 7 43
M  V30 48 1 12 44
M  V30 49 1 13 45
M  V30 50 1 16 46
M  V30 51 1 17 47
M  V30 52 1 19 48
M  V30 53 1 21 49
M  V30 54 1 21 50
M  V30 55 1 23 51
M  V30 56 1 24 52
M  V30 57 1 28 53
M  V30 58 1 29 54
M  V30 59 1 32 55
M  V30 60 1 33 56
M  V30 61 1 34 57
M  V30 62 1 35 58
M  V30 63 1 36 59
M  V30 END BOND
M  V30 END CTAB
M  END
>  <Dataset>  (856) 
ChEMBL_Kinases

>  <Ligand_Instance>  (856) 
nan

>  <PDB_ID>  (856) 
nan

>  <Standardized_SMILES>  (856) 
C[C@H](Nc1nccc(-c2c(-c3ccc(F)cc3)ncn2Cc2ccc(C#N)cc2)n1)c1ccccc1

>  <Name>  (856) 
nan

>  <Pocket>  (856) 
nan

>  <ATP_Site>  (856) 
nan

>  <Peripheral>  (856) 
nan

>  <Num_H_Atoms_ProtBoundConf>  (856) 
nan

>  <Num_Resolved_Atoms>  (856) 
nan

>  <Num_Not_Resolved_Atoms>  (856) 
nan

$$$$
CHEMBL4095172
     RDKit          3D

  0  0  0  0  0  0  0  0  0  0999 V3000
M  V30 BEGIN CTAB
M  V30 COUNTS 47 50 0 0 0
M  V30 BEGIN ATOM
M  V30 1 C 0.740153 -4.275019 1.680249 0
M  V30 2 N -0.379617 -3.512123 1.187920 0
M  V30 3 C -0.069935 -2.302139 0.692170 0
M  V30 4 N 1.221929 -1.666334 0.594901 0
M  V30 5 C 2.094801 -1.899601 -0.552541 0
M  V30 6 C 2.738055 -0.634070 -1.007760 0
M  V30 7 N 2.153085 0.481695 -0.259610 0
M  V30 8 C 2.435156 0.329905 1.161177 0
M  V30 9 C 2.386209 1.568334 1.906448 0
M  V30 10 C 3.316608 1.736782 2.938867 0
M  V30 11 C 3.424472 2.834501 3.750389 0
M  V30 12 C 2.550700 3.880209 3.553287 0
M  V30 13 C 1.607144 3.786164 2.555515 0
M  V30 14 C 1.566821 2.644639 1.783028 0
M  V30 15 Br 0.232172 2.597387 0.431244 0
M  V30 16 C 1.559770 -0.790417 1.703869 0
M  V30 17 N -1.060693 -1.505198 0.198155 0
M  V30 18 C -2.358439 -1.859998 0.174366 0
M  V30 19 C -3.346017 -0.935761 -0.375047 0
M  V30 20 C -2.877860 0.267448 -0.843124 0
M  V30 21 C -3.774893 1.186010 -1.377709 0
M  V30 22 N -5.095083 0.904719 -1.439167 0
M  V30 23 C -5.570605 -0.288522 -0.976472 0
M  V30 24 C -4.676595 -1.200680 -0.445254 0
M  V30 25 C -2.682094 -3.100753 0.681957 0
M  V30 26 C -1.670360 -3.888834 1.175033 0
M  V30 27 O -1.906352 -5.038820 1.654449 0
M  V30 28 H 0.377772 -5.013069 2.456713 0
M  V30 29 H 1.441428 -3.632474 2.238478 0
M  V30 30 H 1.208117 -4.907881 0.900680 0
M  V30 31 H 1.413437 -2.274159 -1.351877 0
M  V30 32 H 2.823841 -2.699764 -0.316369 0
M  V30 33 H 3.840197 -0.667650 -0.896252 0
M  V30 34 H 2.522789 -0.486972 -2.083682 0
M  V30 35 H 1.105054 0.337606 -0.416819 0
M  V30 36 H 3.496171 -0.066368 1.202348 0
M  V30 37 H 4.038693 0.954521 3.154148 0
M  V30 38 H 4.155624 2.914991 4.528243 0
M  V30 39 H 2.577787 4.776358 4.155566 0
M  V30 40 H 0.923988 4.606142 2.403203 0
M  V30 41 H 0.697234 -0.394670 2.223855 0
M  V30 42 H 2.173921 -1.371084 2.412362 0
M  V30 43 H -1.844428 0.570333 -0.831549 0
M  V30 44 H -3.520828 2.160165 -1.774255 0
M  V30 45 H -6.618349 -0.517378 -1.022755 0
M  V30 46 H -5.068740 -2.123239 -0.090637 0
M  V30 47 H -3.712156 -3.429200 0.683858 0
M  V30 END ATOM
M  V30 BEGIN BOND
M  V30 1 1 1 2
M  V30 2 1 2 3
M  V30 3 1 3 4
M  V30 4 1 4 5
M  V30 5 1 5 6
M  V30 6 1 6 7
M  V30 7 1 7 8
M  V30 8 1 8 9
M  V30 9 2 9 10
M  V30 10 1 10 11
M  V30 11 2 11 12
M  V30 12 1 12 13
M  V30 13 2 13 14
M  V30 14 1 14 15
M  V30 15 1 8 16
M  V30 16 2 3 17
M  V30 17 1 17 18
M  V30 18 1 18 19
M  V30 19 2 19 20
M  V30 20 1 20 21
M  V30 21 2 21 22
M  V30 22 1 22 23
M  V30 23 2 23 24
M  V30 24 2 18 25
M  V30 25 1 25 26
M  V30 26 2 26 27
M  V30 27 1 26 2
M  V30 28 1 16 4
M  V30 29 1 24 19
M  V30 30 1 14 9
M  V30 31 1 1 28
M  V30 32 1 1 29
M  V30 33 1 1 30
M  V30 34 1 5 31
M  V30 35 1 5 32
M  V30 36 1 6 33
M  V30 37 1 6 34
M  V30 38 1 7 35
M  V30 39 1 8 36
M  V30 40 1 10 37
M  V30 41 1 11 38
M  V30 42 1 12 39
M  V30 43 1 13 40
M  V30 44 1 16 41
M  V30 45 1 16 42
M  V30 46 1 20 43
M  V30 47 1 21 44
M  V30 48 1 23 45
M  V30 49 1 24 46
M  V30 50 1 25 47
M  V30 END BOND
M  V30 END CTAB
M  END
>  <Dataset>  (857) 
ChEMBL_Kinases

>  <Ligand_Instance>  (857) 
nan

>  <PDB_ID>  (857) 
nan

>  <Standardized_SMILES>  (857) 
Cn1c(N2CCNC(c3ccccc3Br)C2)nc(-c2ccncc2)cc1=O

>  <Name>  (857) 
nan

>  <Pocket>  (857) 
nan

>  <ATP_Site>  (857) 
nan

>  <Peripheral>  (857) 
nan

>  <Num_H_Atoms_ProtBoundConf>  (857) 
nan

>  <Num_Resolved_Atoms>  (857) 
nan

>  <Num_Not_Resolved_Atoms>  (857) 
nan

$$$$
CHEMBL482769
     RDKit          3D

  0  0  0  0  0  0  0  0  0  0999 V3000
M  V30 BEGIN CTAB
M  V30 COUNTS 51 54 0 0 0
M  V30 BEGIN ATOM
M  V30 1 N 1.022822 -5.322015 2.620822 0
M  V30 2 S 2.742006 -5.187814 2.594142 0
M  V30 3 O 3.223424 -5.474695 1.221983 0
M  V30 4 O 3.283655 -6.231031 3.543205 0
M  V30 5 C 3.275811 -3.610760 3.192511 0
M  V30 6 C 2.759631 -2.480453 2.405507 0
M  V30 7 C 1.541367 -1.925413 2.791737 0
M  V30 8 C 1.064257 -0.857089 2.039341 0
M  V30 9 C 1.743309 -0.341950 0.948480 0
M  V30 10 C 1.090514 0.780633 0.279237 0
M  V30 11 C 1.983568 1.817041 -0.013862 0
M  V30 12 C 1.526975 2.953696 -0.647143 0
M  V30 13 C 2.392693 4.004233 -0.952825 0
M  V30 14 C 1.894686 5.123175 -1.586784 0
M  V30 15 N 0.578443 5.196698 -1.907157 0
M  V30 16 C -0.259876 4.176172 -1.609628 0
M  V30 17 C 0.196575 3.040094 -0.976635 0
M  V30 18 C -0.695169 2.017299 -0.689648 0
M  V30 19 C -0.245467 0.875263 -0.055335 0
M  V30 20 O -1.027462 -0.193372 0.277026 0
M  V30 21 C -2.394742 -0.356732 0.056889 0
M  V30 22 C -3.079857 -0.615904 1.357666 0
M  V30 23 C -4.394236 -1.314433 1.266348 0
M  V30 24 N -4.409241 -2.414120 0.353673 0
M  V30 25 C -3.967520 -2.013097 -0.966879 0
M  V30 26 C -2.536480 -1.524430 -0.912765 0
M  V30 27 C 2.949047 -0.899609 0.575060 0
M  V30 28 C 3.437646 -1.964337 1.314438 0
M  V30 29 H 0.599507 -5.007377 3.515789 0
M  V30 30 H 0.583077 -4.909813 1.776326 0
M  V30 31 H 2.911087 -3.540237 4.251781 0
M  V30 32 H 4.387854 -3.605457 3.163952 0
M  V30 33 H 1.002065 -2.323706 3.646616 0
M  V30 34 H 0.099070 -0.464901 2.395842 0
M  V30 35 H 3.039695 1.807567 0.219927 0
M  V30 36 H 3.434033 3.903283 -0.679236 0
M  V30 37 H 2.589047 5.926035 -1.813291 0
M  V30 38 H -1.273182 4.324493 -1.899378 0
M  V30 39 H -1.721690 2.094761 -0.948966 0
M  V30 40 H -2.890032 0.497753 -0.452150 0
M  V30 41 H -3.199727 0.341826 1.895775 0
M  V30 42 H -2.391802 -1.252313 1.969122 0
M  V30 43 H -4.585777 -1.757981 2.286894 0
M  V30 44 H -5.256329 -0.656413 1.085834 0
M  V30 45 H -3.847606 -3.227667 0.659862 0
M  V30 46 H -4.641751 -1.280668 -1.416449 0
M  V30 47 H -3.975928 -2.917939 -1.606258 0
M  V30 48 H -1.881234 -2.357462 -0.652168 0
M  V30 49 H -2.277311 -1.110754 -1.916587 0
M  V30 50 H 3.449475 -0.469023 -0.282947 0
M  V30 51 H 4.398782 -2.397766 1.004966 0
M  V30 END ATOM
M  V30 BEGIN BOND
M  V30 1 1 1 2
M  V30 2 2 2 3
M  V30 3 2 2 4
M  V30 4 1 2 5
M  V30 5 1 5 6
M  V30 6 2 6 7
M  V30 7 1 7 8
M  V30 8 2 8 9
M  V30 9 1 9 10
M  V30 10 2 10 11
M  V30 11 1 11 12
M  V30 12 2 12 13
M  V30 13 1 13 14
M  V30 14 2 14 15
M  V30 15 1 15 16
M  V30 16 2 16 17
M  V30 17 1 17 18
M  V30 18 2 18 19
M  V30 19 1 19 20
M  V30 20 1 20 21
M  V30 21 1 21 22
M  V30 22 1 22 23
M  V30 23 1 23 24
M  V30 24 1 24 25
M  V30 25 1 25 26
M  V30 26 1 9 27
M  V30 27 2 27 28
M  V30 28 1 28 6
M  V30 29 1 19 10
M  V30 30 1 26 21
M  V30 31 1 17 12
M  V30 32 1 1 29
M  V30 33 1 1 30
M  V30 34 1 5 31
M  V30 35 1 5 32
M  V30 36 1 7 33
M  V30 37 1 8 34
M  V30 38 1 11 35
M  V30 39 1 13 36
M  V30 40 1 14 37
M  V30 41 1 16 38
M  V30 42 1 18 39
M  V30 43 1 21 40
M  V30 44 1 22 41
M  V30 45 1 22 42
M  V30 46 1 23 43
M  V30 47 1 23 44
M  V30 48 1 24 45
M  V30 49 1 25 46
M  V30 50 1 25 47
M  V30 51 1 26 48
M  V30 52 1 26 49
M  V30 53 1 27 50
M  V30 54 1 28 51
M  V30 END BOND
M  V30 END CTAB
M  END
>  <Dataset>  (858) 
ChEMBL_Kinases

>  <Ligand_Instance>  (858) 
nan

>  <PDB_ID>  (858) 
nan

>  <Standardized_SMILES>  (858) 
NS(=O)(=O)Cc1ccc(-c2cc3ccncc3cc2OC2CCNCC2)cc1

>  <Name>  (858) 
nan

>  <Pocket>  (858) 
nan

>  <ATP_Site>  (858) 
nan

>  <Peripheral>  (858) 
nan

>  <Num_H_Atoms_ProtBoundConf>  (858) 
nan

>  <Num_Resolved_Atoms>  (858) 
nan

>  <Num_Not_Resolved_Atoms>  (858) 
nan

$$$$
CHEMBL4095156
     RDKit          3D

  0  0  0  0  0  0  0  0  0  0999 V3000
M  V30 BEGIN CTAB
M  V30 COUNTS 28 30 0 0 0
M  V30 BEGIN ATOM
M  V30 1 C -3.062907 -3.108574 3.340216 0
M  V30 2 O -2.242756 -2.674371 2.275315 0
M  V30 3 C -1.136741 -1.874142 2.561655 0
M  V30 4 C -0.397610 -1.502453 1.444728 0
M  V30 5 C 0.727863 -0.710274 1.558459 0
M  V30 6 C 1.554836 -0.278709 0.434350 0
M  V30 7 C 2.943876 -0.267915 0.317702 0
M  V30 8 N 3.280678 0.216580 -0.906098 0
M  V30 9 C 2.168245 0.520184 -1.587346 0
M  V30 10 C 2.004825 1.043585 -2.875287 0
M  V30 11 N 0.733290 1.249341 -3.303469 0
M  V30 12 C -0.355203 0.978209 -2.560377 0
M  V30 13 C -0.147912 0.465613 -1.302074 0
M  V30 14 C 1.097616 0.218852 -0.770486 0
M  V30 15 C 1.142756 -0.266252 2.819610 0
M  V30 16 C 0.355754 -0.678716 3.874922 0
M  V30 17 N -0.760554 -1.459730 3.799936 0
M  V30 18 H -3.363180 -4.176154 3.250049 0
M  V30 19 H -2.551729 -2.991558 4.322381 0
M  V30 20 H -4.034979 -2.549591 3.363956 0
M  V30 21 H -0.663709 -1.811280 0.443289 0
M  V30 22 H 3.599449 -0.605233 1.112182 0
M  V30 23 H 4.245667 0.331673 -1.254076 0
M  V30 24 H 2.838360 1.283038 -3.523290 0
M  V30 25 H -1.355187 1.158413 -2.942733 0
M  V30 26 H -1.031536 0.254604 -0.721327 0
M  V30 27 H 2.005671 0.356813 3.032652 0
M  V30 28 H 0.610721 -0.374940 4.897770 0
M  V30 END ATOM
M  V30 BEGIN BOND
M  V30 1 1 1 2
M  V30 2 1 2 3
M  V30 3 2 3 4
M  V30 4 1 4 5
M  V30 5 1 5 6
M  V30 6 2 6 7
M  V30 7 1 7 8
M  V30 8 1 8 9
M  V30 9 2 9 10
M  V30 10 1 10 11
M  V30 11 2 11 12
M  V30 12 1 12 13
M  V30 13 2 13 14
M  V30 14 2 5 15
M  V30 15 1 15 16
M  V30 16 2 16 17
M  V30 17 1 17 3
M  V30 18 1 14 6
M  V30 19 1 14 9
M  V30 20 1 1 18
M  V30 21 1 1 19
M  V30 22 1 1 20
M  V30 23 1 4 21
M  V30 24 1 7 22
M  V30 25 1 8 23
M  V30 26 1 10 24
M  V30 27 1 12 25
M  V30 28 1 13 26
M  V30 29 1 15 27
M  V30 30 1 16 28
M  V30 END BOND
M  V30 END CTAB
M  END
>  <Dataset>  (859) 
ChEMBL_Kinases

>  <Ligand_Instance>  (859) 
nan

>  <PDB_ID>  (859) 
nan

>  <Standardized_SMILES>  (859) 
COc1cc(-c2c[nH]c3cnccc23)ccn1

>  <Name>  (859) 
nan

>  <Pocket>  (859) 
nan

>  <ATP_Site>  (859) 
nan

>  <Peripheral>  (859) 
nan

>  <Num_H_Atoms_ProtBoundConf>  (859) 
nan

>  <Num_Resolved_Atoms>  (859) 
nan

>  <Num_Not_Resolved_Atoms>  (859) 
nan

$$$$
CHEMBL4095155
     RDKit          3D

  0  0  0  0  0  0  0  0  0  0999 V3000
M  V30 BEGIN CTAB
M  V30 COUNTS 43 46 0 0 0
M  V30 BEGIN ATOM
M  V30 1 C -1.325347 -2.607004 4.628853 0
M  V30 2 C -0.365177 -3.226788 3.680002 0
M  V30 3 C -0.030751 -2.682942 2.451048 0
M  V30 4 C 0.884373 -3.483689 1.791238 0
M  V30 5 N 1.423674 -3.217776 0.511532 0
M  V30 6 C 1.025948 -2.043482 -0.171381 0
M  V30 7 N 1.739594 -0.911028 -0.183772 0
M  V30 8 C 1.211004 0.131385 -0.884881 0
M  V30 9 C 1.795946 1.453883 -1.049024 0
M  V30 10 O 2.544482 1.984119 -1.880267 0
M  V30 11 N 1.490366 2.459923 -0.057994 0
M  V30 12 C 2.030500 3.801347 -0.147777 0
M  V30 13 C 2.931924 4.042000 1.022661 0
M  V30 14 N 2.601048 3.260813 2.189416 0
M  V30 15 C 1.446712 2.429276 2.300315 0
M  V30 16 O 1.250580 2.002996 3.479669 0
M  V30 17 C 0.626547 2.159752 1.072603 0
M  V30 18 N 0.029969 0.017152 -1.528748 0
M  V30 19 C -0.714934 -1.101632 -1.539760 0
M  V30 20 C -1.921591 -1.233494 -2.188047 0
M  V30 21 C -2.642595 -2.411930 -2.158522 0
M  V30 22 C -2.139871 -3.502356 -1.453685 0
M  V30 23 Cl -3.040594 -5.013634 -1.399548 0
M  V30 24 C -0.929730 -3.328184 -0.819351 0
M  V30 25 C -0.191748 -2.163440 -0.834326 0
M  V30 26 N 1.082526 -4.500310 2.645504 0
M  V30 27 N 0.363929 -4.358297 3.738406 0
M  V30 28 H -2.294612 -2.344865 4.131911 0
M  V30 29 H -0.915688 -1.735211 5.165365 0
M  V30 30 H -1.598717 -3.362675 5.417158 0
M  V30 31 H -0.436199 -1.755582 2.068253 0
M  V30 32 H 2.107239 -3.939760 0.148905 0
M  V30 33 H 1.175990 4.527160 -0.076502 0
M  V30 34 H 2.587054 3.969971 -1.093375 0
M  V30 35 H 2.943837 5.130631 1.281214 0
M  V30 36 H 3.993268 3.822132 0.716018 0
M  V30 37 H 3.309280 3.365311 2.976085 0
M  V30 38 H -0.230378 2.875305 1.015697 0
M  V30 39 H 0.267097 1.112105 1.055557 0
M  V30 40 H -2.258897 -0.333787 -2.724121 0
M  V30 41 H -3.604076 -2.471075 -2.691572 0
M  V30 42 H -0.569450 -4.198450 -0.282258 0
M  V30 43 H 0.322436 -4.997251 4.566293 0
M  V30 END ATOM
M  V30 BEGIN BOND
M  V30 1 1 1 2
M  V30 2 2 2 3
M  V30 3 1 3 4
M  V30 4 1 4 5
M  V30 5 1 5 6
M  V30 6 2 6 7
M  V30 7 1 7 8
M  V30 8 1 8 9
M  V30 9 2 9 10
M  V30 10 1 9 11
M  V30 11 1 11 12
M  V30 12 1 12 13
M  V30 13 1 13 14
M  V30 14 1 14 15
M  V30 15 2 15 16
M  V30 16 1 15 17
M  V30 17 2 8 18
M  V30 18 1 18 19
M  V30 19 2 19 20
M  V30 20 1 20 21
M  V30 21 2 21 22
M  V30 22 1 22 23
M  V30 23 1 22 24
M  V30 24 2 24 25
M  V30 25 2 4 26
M  V30 26 1 26 27
M  V30 27 1 27 2
M  V30 28 1 25 6
M  V30 29 1 17 11
M  V30 30 1 25 19
M  V30 31 1 1 28
M  V30 32 1 1 29
M  V30 33 1 1 30
M  V30 34 1 3 31
M  V30 35 1 5 32
M  V30 36 1 12 33
M  V30 37 1 12 34
M  V30 38 1 13 35
M  V30 39 1 13 36
M  V30 40 1 14 37
M  V30 41 1 17 38
M  V30 42 1 17 39
M  V30 43 1 20 40
M  V30 44 1 21 41
M  V30 45 1 24 42
M  V30 46 1 27 43
M  V30 END BOND
M  V30 END CTAB
M  END
>  <Dataset>  (860) 
ChEMBL_Kinases

>  <Ligand_Instance>  (860) 
nan

>  <PDB_ID>  (860) 
nan

>  <Standardized_SMILES>  (860) 
Cc1cc(Nc2nc(C(=O)N3CCNC(=O)C3)nc3ccc(Cl)cc23)n[nH]1

>  <Name>  (860) 
nan

>  <Pocket>  (860) 
nan

>  <ATP_Site>  (860) 
nan

>  <Peripheral>  (860) 
nan

>  <Num_H_Atoms_ProtBoundConf>  (860) 
nan

>  <Num_Resolved_Atoms>  (860) 
nan

>  <Num_Not_Resolved_Atoms>  (860) 
nan

$$$$
CHEMBL4095142
     RDKit          3D

  0  0  0  0  0  0  0  0  0  0999 V3000
M  V30 BEGIN CTAB
M  V30 COUNTS 56 61 0 0 0
M  V30 BEGIN ATOM
M  V30 1 C -2.533518 -2.768057 3.737845 0
M  V30 2 C -1.729551 -1.558577 4.039791 0
M  V30 3 C -0.520163 -1.300922 3.440052 0
M  V30 4 C 0.314156 -0.205245 3.646383 0
M  V30 5 N 1.557789 -0.007359 2.992245 0
M  V30 6 C 1.913256 -1.032368 2.067337 0
M  V30 7 N 1.634286 -0.955780 0.777283 0
M  V30 8 C 1.929757 -1.880932 -0.146082 0
M  V30 9 N 1.566720 -1.665042 -1.503642 0
M  V30 10 C 0.885606 -0.436802 -1.868691 0
M  V30 11 C 0.574716 -0.348076 -3.343935 0
M  V30 12 C -0.106794 0.923209 -3.689843 0
M  V30 13 C 0.500801 1.998967 -4.306262 0
M  V30 14 N -0.335185 3.030437 -4.506850 0
M  V30 15 C -1.512388 2.618032 -4.010630 0
M  V30 16 C -2.768768 3.167746 -3.892996 0
M  V30 17 C -3.869820 2.560855 -3.335209 0
M  V30 18 C -3.715578 1.261036 -2.834906 0
M  V30 19 C -2.483750 0.658902 -2.923925 0
M  V30 20 C -1.423818 1.320189 -3.493120 0
M  V30 21 C 2.581016 -3.008358 0.293539 0
M  V30 22 C 2.919495 -4.006697 -0.592289 0
M  V30 23 C 3.571748 -5.109470 -0.081965 0
M  V30 24 Cl 3.993261 -6.366327 -1.220716 0
M  V30 25 C 3.924879 -5.317380 1.245742 0
M  V30 26 C 3.544371 -4.256969 2.077250 0
M  V30 27 C 2.893708 -3.133545 1.629986 0
M  V30 28 N 2.562810 -2.152220 2.512480 0
M  V30 29 C -0.212717 0.689448 4.587818 0
M  V30 30 C -1.407147 0.549289 5.257252 0
M  V30 31 C -2.095834 1.283936 6.193260 0
M  V30 32 N -3.246649 0.602644 6.469205 0
M  V30 33 N -3.225526 -0.493975 5.715208 0
M  V30 34 C -2.107579 -0.588975 4.936515 0
M  V30 35 H -1.936272 -3.366686 2.991563 0
M  V30 36 H -3.512766 -2.554407 3.271582 0
M  V30 37 H -2.610143 -3.433190 4.636030 0
M  V30 38 H -0.141088 -2.028021 2.705868 0
M  V30 39 H 2.068541 0.841037 3.246287 0
M  V30 40 H 1.736453 -2.307169 -2.303465 0
M  V30 41 H -0.080107 -0.355624 -1.287001 0
M  V30 42 H 1.515062 0.415613 -1.553082 0
M  V30 43 H 1.508421 -0.424850 -3.932035 0
M  V30 44 H -0.066405 -1.192964 -3.669302 0
M  V30 45 H 1.559897 2.006842 -4.600995 0
M  V30 46 H -0.127255 3.951653 -4.949793 0
M  V30 47 H -2.873937 4.187481 -4.290118 0
M  V30 48 H -4.843729 3.002676 -3.248810 0
M  V30 49 H -4.482762 0.666679 -2.373905 0
M  V30 50 H -2.310858 -0.341062 -2.554303 0
M  V30 51 H 2.686318 -3.933421 -1.639973 0
M  V30 52 H 4.435299 -6.209671 1.571776 0
M  V30 53 H 3.818596 -4.407098 3.132844 0
M  V30 54 H 0.393384 1.572748 4.796536 0
M  V30 55 H -1.666726 2.223376 6.552681 0
M  V30 56 H -4.020008 -1.191423 5.752330 0
M  V30 END ATOM
M  V30 BEGIN BOND
M  V30 1 1 1 2
M  V30 2 2 2 3
M  V30 3 1 3 4
M  V30 4 1 4 5
M  V30 5 1 5 6
M  V30 6 2 6 7
M  V30 7 1 7 8
M  V30 8 1 8 9
M  V30 9 1 9 10
M  V30 10 1 10 11
M  V30 11 1 11 12
M  V30 12 2 12 13
M  V30 13 1 13 14
M  V30 14 1 14 15
M  V30 15 2 15 16
M  V30 16 1 16 17
M  V30 17 2 17 18
M  V30 18 1 18 19
M  V30 19 2 19 20
M  V30 20 2 8 21
M  V30 21 1 21 22
M  V30 22 2 22 23
M  V30 23 1 23 24
M  V30 24 1 23 25
M  V30 25 2 25 26
M  V30 26 1 26 27
M  V30 27 2 27 28
M  V30 28 2 4 29
M  V30 29 1 29 30
M  V30 30 1 30 31
M  V30 31 2 31 32
M  V30 32 1 32 33
M  V30 33 1 33 34
M  V30 34 1 34 2
M  V30 35 1 28 6
M  V30 36 2 34 30
M  V30 37 1 20 12
M  V30 38 1 27 21
M  V30 39 1 20 15
M  V30 40 1 1 35
M  V30 41 1 1 36
M  V30 42 1 1 37
M  V30 43 1 3 38
M  V30 44 1 5 39
M  V30 45 1 9 40
M  V30 46 1 10 41
M  V30 47 1 10 42
M  V30 48 1 11 43
M  V30 49 1 11 44
M  V30 50 1 13 45
M  V30 51 1 14 46
M  V30 52 1 16 47
M  V30 53 1 17 48
M  V30 54 1 18 49
M  V30 55 1 19 50
M  V30 56 1 22 51
M  V30 57 1 25 52
M  V30 58 1 26 53
M  V30 59 1 29 54
M  V30 60 1 31 55
M  V30 61 1 33 56
M  V30 END BOND
M  V30 END CTAB
M  END
>  <Dataset>  (861) 
ChEMBL_Kinases

>  <Ligand_Instance>  (861) 
nan

>  <PDB_ID>  (861) 
nan

>  <Standardized_SMILES>  (861) 
Cc1cc(Nc2nc(NCCc3c[nH]c4ccccc34)c3cc(Cl)ccc3n2)cc2cn[nH]c12

>  <Name>  (861) 
nan

>  <Pocket>  (861) 
nan

>  <ATP_Site>  (861) 
nan

>  <Peripheral>  (861) 
nan

>  <Num_H_Atoms_ProtBoundConf>  (861) 
nan

>  <Num_Resolved_Atoms>  (861) 
nan

>  <Num_Not_Resolved_Atoms>  (861) 
nan

$$$$
CHEMBL4095093
     RDKit          3D

  0  0  0  0  0  0  0  0  0  0999 V3000
M  V30 BEGIN CTAB
M  V30 COUNTS 75 80 0 0 0
M  V30 BEGIN ATOM
M  V30 1 O -1.776251 -3.765096 6.652736 0
M  V30 2 C -1.829972 -2.892209 5.725754 0
M  V30 3 N -3.066056 -2.693951 5.082555 0
M  V30 4 C -4.315181 -3.388603 5.359283 0
M  V30 5 C -5.430680 -2.907060 4.472202 0
M  V30 6 N -5.155746 -3.087562 3.080597 0
M  V30 7 C -6.279212 -2.605943 2.306140 0
M  V30 8 C -5.993444 -2.710972 0.845732 0
M  V30 9 O -4.859709 -3.393669 0.492397 0
M  V30 10 C -4.566578 -4.514297 1.221872 0
M  V30 11 C -4.833704 -4.430191 2.691174 0
M  V30 12 C -0.608978 -2.169076 5.404874 0
M  V30 13 C 0.525423 -2.470411 6.171409 0
M  V30 14 C 1.705956 -1.814440 5.885918 0
M  V30 15 C 1.823909 -0.875751 4.882819 0
M  V30 16 C 0.666465 -0.607788 4.145121 0
M  V30 17 C -0.556446 -1.241785 4.389350 0
M  V30 18 C 0.543889 0.347989 3.018655 0
M  V30 19 O -0.610204 0.836155 2.855234 0
M  V30 20 C 1.656835 0.734891 2.124672 0
M  V30 21 C 1.153890 1.453408 1.066493 0
M  V30 22 C 2.092840 1.862907 0.150776 0
M  V30 23 C 3.444546 1.631853 0.184831 0
M  V30 24 N 4.461358 1.973629 -0.726482 0
M  V30 25 C 4.569435 2.145798 -2.121805 0
M  V30 26 C 5.829918 2.333919 -2.695823 0
M  V30 27 C 6.019265 2.506033 -4.038707 0
M  V30 28 C 4.952448 2.502534 -4.896316 0
M  V30 29 F 5.191939 2.673276 -6.213669 0
M  V30 30 C 3.675524 2.325703 -4.419814 0
M  V30 31 N 2.550159 2.327174 -5.282962 0
M  V30 32 C 2.289179 0.996274 -5.727463 0
M  V30 33 O 3.148021 0.192651 -5.215084 0
M  V30 34 C 1.192186 0.626832 -6.638475 0
M  V30 35 C 0.291291 1.504349 -7.191069 0
M  V30 36 C -0.680099 0.993224 -8.036591 0
M  V30 37 C -0.768398 -0.356754 -8.335459 0
M  V30 38 C 0.152880 -1.215878 -7.763853 0
M  V30 39 C 1.123386 -0.730283 -6.924517 0
M  V30 40 C 3.547358 2.152945 -3.040439 0
M  V30 41 C 3.837678 0.891633 1.309915 0
M  V30 42 C 2.989202 0.433810 2.283991 0
M  V30 43 O 3.560176 -0.286829 3.333321 0
M  V30 44 C 3.173037 -0.282779 4.724192 0
M  V30 45 H -3.099132 -1.971759 4.325349 0
M  V30 46 H -4.117081 -4.472609 5.299811 0
M  V30 47 H -4.592936 -3.160341 6.416496 0
M  V30 48 H -5.550997 -1.827376 4.666011 0
M  V30 49 H -6.359830 -3.446174 4.822090 0
M  V30 50 H -6.441643 -1.538459 2.574141 0
M  V30 51 H -7.187370 -3.213532 2.525829 0
M  V30 52 H -5.901965 -1.676090 0.398132 0
M  V30 53 H -6.861207 -3.155136 0.298136 0
M  V30 54 H -5.048252 -5.429810 0.819492 0
M  V30 55 H -3.458244 -4.688528 1.071179 0
M  V30 56 H -5.647539 -5.157268 2.999323 0
M  V30 57 H -3.922712 -4.732531 3.264352 0
M  V30 58 H 0.555920 -3.179399 6.979587 0
M  V30 59 H 2.609724 -2.036904 6.472413 0
M  V30 60 H -1.411500 -0.987318 3.783830 0
M  V30 61 H 0.109208 1.679600 0.962865 0
M  V30 62 H 1.710323 2.439625 -0.665964 0
M  V30 63 H 5.371787 2.163396 -0.221822 0
M  V30 64 H 6.738546 2.353646 -2.069611 0
M  V30 65 H 7.026676 2.642970 -4.425142 0
M  V30 66 H 1.894883 3.086554 -5.648674 0
M  V30 67 H 0.400874 2.538132 -6.930796 0
M  V30 68 H -1.386722 1.687386 -8.467746 0
M  V30 69 H -1.518656 -0.777255 -8.989137 0
M  V30 70 H 0.095916 -2.290308 -7.989762 0
M  V30 71 H 1.819967 -1.462211 -6.517637 0
M  V30 72 H 2.537563 2.008868 -2.716857 0
M  V30 73 H 4.884351 0.626235 1.480069 0
M  V30 74 H 3.141634 0.745647 5.130869 0
M  V30 75 H 3.926997 -0.855828 5.260538 0
M  V30 END ATOM
M  V30 BEGIN BOND
M  V30 1 2 1 2
M  V30 2 1 2 3
M  V30 3 1 3 4
M  V30 4 1 4 5
M  V30 5 1 5 6
M  V30 6 1 6 7
M  V30 7 1 7 8
M  V30 8 1 8 9
M  V30 9 1 9 10
M  V30 10 1 10 11
M  V30 11 1 2 12
M  V30 12 2 12 13
M  V30 13 1 13 14
M  V30 14 2 14 15
M  V30 15 1 15 16
M  V30 16 2 16 17
M  V30 17 1 16 18
M  V30 18 2 18 19
M  V30 19 1 18 20
M  V30 20 2 20 21
M  V30 21 1 21 22
M  V30 22 2 22 23
M  V30 23 1 23 24
M  V30 24 1 24 25
M  V30 25 2 25 26
M  V30 26 1 26 27
M  V30 27 2 27 28
M  V30 28 1 28 29
M  V30 29 1 28 30
M  V30 30 1 30 31
M  V30 31 1 31 32
M  V30 32 2 32 33
M  V30 33 1 32 34
M  V30 34 2 34 35
M  V30 35 1 35 36
M  V30 36 2 36 37
M  V30 37 1 37 38
M  V30 38 2 38 39
M  V30 39 2 30 40
M  V30 40 1 23 41
M  V30 41 2 41 42
M  V30 42 1 42 43
M  V30 43 1 43 44
M  V30 44 1 11 6
M  V30 45 1 17 12
M  V30 46 1 42 20
M  V30 47 1 44 15
M  V30 48 1 40 25
M  V30 49 1 39 34
M  V30 50 1 3 45
M  V30 51 1 4 46
M  V30 52 1 4 47
M  V30 53 1 5 48
M  V30 54 1 5 49
M  V30 55 1 7 50
M  V30 56 1 7 51
M  V30 57 1 8 52
M  V30 58 1 8 53
M  V30 59 1 10 54
M  V30 60 1 10 55
M  V30 61 1 11 56
M  V30 62 1 11 57
M  V30 63 1 13 58
M  V30 64 1 14 59
M  V30 65 1 17 60
M  V30 66 1 21 61
M  V30 67 1 22 62
M  V30 68 1 24 63
M  V30 69 1 26 64
M  V30 70 1 27 65
M  V30 71 1 31 66
M  V30 72 1 35 67
M  V30 73 1 36 68
M  V30 74 1 37 69
M  V30 75 1 38 70
M  V30 76 1 39 71
M  V30 77 1 40 72
M  V30 78 1 41 73
M  V30 79 1 44 74
M  V30 80 1 44 75
M  V30 END BOND
M  V30 END CTAB
M  END
>  <Dataset>  (862) 
ChEMBL_Kinases

>  <Ligand_Instance>  (862) 
nan

>  <PDB_ID>  (862) 
nan

>  <Standardized_SMILES>  (862) 
O=C(NCCN1CCOCC1)c1ccc2c(c1)C(=O)c1ccc(Nc3ccc(F)c(NC(=O)c4ccccc4)c3)cc1OC2

>  <Name>  (862) 
nan

>  <Pocket>  (862) 
nan

>  <ATP_Site>  (862) 
nan

>  <Peripheral>  (862) 
nan

>  <Num_H_Atoms_ProtBoundConf>  (862) 
nan

>  <Num_Resolved_Atoms>  (862) 
nan

>  <Num_Not_Resolved_Atoms>  (862) 
nan

$$$$
CHEMBL4095080
     RDKit          3D

  0  0  0  0  0  0  0  0  0  0999 V3000
M  V30 BEGIN CTAB
M  V30 COUNTS 45 49 0 0 0
M  V30 BEGIN ATOM
M  V30 1 N 4.299764 -1.552563 4.151622 0
M  V30 2 C 3.237444 -1.468585 3.690906 0
M  V30 3 C 1.925847 -1.343552 3.119396 0
M  V30 4 C 1.742177 -1.151595 1.764782 0
M  V30 5 C 2.922237 -1.075903 0.903905 0
M  V30 6 C 3.436191 -2.236584 0.334103 0
M  V30 7 C 4.565913 -2.140631 -0.486202 0
M  V30 8 C 5.159761 -0.926380 -0.727403 0
M  V30 9 C 4.649837 0.222346 -0.162533 0
M  V30 10 C 5.280901 1.431428 -0.432125 0
M  V30 11 C 4.747958 2.578295 0.149466 0
M  V30 12 C 3.630106 2.551384 0.972258 0
M  V30 13 C 3.054409 1.318923 1.197062 0
M  V30 14 C 3.526457 0.143986 0.655948 0
M  V30 15 C 0.470630 -1.037709 1.264342 0
M  V30 16 C -0.669376 -1.101989 2.031307 0
M  V30 17 C -2.010398 -0.978001 1.475183 0
M  V30 18 C -3.140755 -1.044309 2.254690 0
M  V30 19 C -4.428788 -0.931290 1.764724 0
M  V30 20 C -4.615997 -0.739539 0.412140 0
M  V30 21 C -5.904836 -0.626306 -0.079215 0
M  V30 22 C -6.085607 -0.434580 -1.433306 0
M  V30 23 C -4.989175 -0.359592 -2.267383 0
M  V30 24 C -3.698570 -0.475526 -1.756741 0
M  V30 25 C -3.505838 -0.667562 -0.403504 0
M  V30 26 C -2.239354 -0.786156 0.132837 0
M  V30 27 N -0.431889 -1.289254 3.337586 0
M  V30 28 C 0.786607 -1.408989 3.894631 0
M  V30 29 O 0.955379 -1.582697 5.119744 0
M  V30 30 H 2.926270 -3.172230 0.558679 0
M  V30 31 H 4.860769 -3.110990 -0.862809 0
M  V30 32 H 6.013653 -0.927500 -1.359437 0
M  V30 33 H 6.147682 1.503059 -1.061829 0
M  V30 34 H 5.211266 3.542149 -0.036033 0
M  V30 35 H 3.244846 3.464236 1.406356 0
M  V30 36 H 2.171688 1.238221 1.837079 0
M  V30 37 H 0.419938 -0.890022 0.198594 0
M  V30 38 H -3.097274 -1.191197 3.316842 0
M  V30 39 H -5.304471 -0.986016 2.393175 0
M  V30 40 H -6.739180 -0.690442 0.607163 0
M  V30 41 H -7.102531 -0.344410 -1.826987 0
M  V30 42 H -5.084197 -0.210822 -3.329893 0
M  V30 43 H -2.862464 -0.411489 -2.442861 0
M  V30 44 H -1.435560 -0.717290 -0.580156 0
M  V30 45 H -1.212636 -1.355330 4.024041 0
M  V30 END ATOM
M  V30 BEGIN BOND
M  V30 1 3 1 2
M  V30 2 1 2 3
M  V30 3 2 3 4
M  V30 4 1 4 5
M  V30 5 2 5 6
M  V30 6 1 6 7
M  V30 7 2 7 8
M  V30 8 1 8 9
M  V30 9 2 9 10
M  V30 10 1 10 11
M  V30 11 2 11 12
M  V30 12 1 12 13
M  V30 13 2 13 14
M  V30 14 1 4 15
M  V30 15 2 15 16
M  V30 16 1 16 17
M  V30 17 2 17 18
M  V30 18 1 18 19
M  V30 19 2 19 20
M  V30 20 1 20 21
M  V30 21 2 21 22
M  V30 22 1 22 23
M  V30 23 2 23 24
M  V30 24 1 24 25
M  V30 25 2 25 26
M  V30 26 1 16 27
M  V30 27 1 27 28
M  V30 28 2 28 29
M  V30 29 1 28 3
M  V30 30 1 14 5
M  V30 31 1 26 17
M  V30 32 1 14 9
M  V30 33 1 25 20
M  V30 34 1 6 30
M  V30 35 1 7 31
M  V30 36 1 8 32
M  V30 37 1 10 33
M  V30 38 1 11 34
M  V30 39 1 12 35
M  V30 40 1 13 36
M  V30 41 1 15 37
M  V30 42 1 18 38
M  V30 43 1 19 39
M  V30 44 1 21 40
M  V30 45 1 22 41
M  V30 46 1 23 42
M  V30 47 1 24 43
M  V30 48 1 26 44
M  V30 49 1 27 45
M  V30 END BOND
M  V30 END CTAB
M  END
>  <Dataset>  (863) 
ChEMBL_Kinases

>  <Ligand_Instance>  (863) 
nan

>  <PDB_ID>  (863) 
nan

>  <Standardized_SMILES>  (863) 
N#Cc1c(-c2cccc3ccccc23)cc(-c2ccc3ccccc3c2)[nH]c1=O

>  <Name>  (863) 
nan

>  <Pocket>  (863) 
nan

>  <ATP_Site>  (863) 
nan

>  <Peripheral>  (863) 
nan

>  <Num_H_Atoms_ProtBoundConf>  (863) 
nan

>  <Num_Resolved_Atoms>  (863) 
nan

>  <Num_Not_Resolved_Atoms>  (863) 
nan

$$$$
CHEMBL4095019
     RDKit          3D

  0  0  0  0  0  0  0  0  0  0999 V3000
M  V30 BEGIN CTAB
M  V30 COUNTS 39 41 0 0 0
M  V30 BEGIN ATOM
M  V30 1 C -0.326404 -5.644220 0.616868 0
M  V30 2 C -0.256595 -5.953745 2.110580 0
M  V30 3 O -1.075967 -5.055813 2.784100 0
M  V30 4 C -0.869896 -3.713824 2.767819 0
M  V30 5 C 0.125912 -2.947941 2.158814 0
M  V30 6 C 0.165945 -1.585202 2.254912 0
M  V30 7 C 1.276019 -0.933094 1.569406 0
M  V30 8 C 1.067539 0.170517 0.872019 0
M  V30 9 O -0.173869 0.786662 0.733631 0
M  V30 10 C -0.103906 1.921163 -0.050557 0
M  V30 11 C -1.103459 2.820485 -0.438934 0
M  V30 12 C -0.740434 3.883329 -1.244062 0
M  V30 13 C 0.578171 4.081442 -1.673410 0
M  V30 14 C 1.552000 3.172365 -1.272560 0
M  V30 15 O 2.902590 3.261589 -1.635755 0
M  V30 16 C 3.265501 4.352463 -2.459516 0
M  V30 17 C 1.204774 2.090271 -0.458344 0
M  V30 18 C 2.009998 1.006734 0.094892 0
M  V30 19 O 3.237571 0.769660 -0.019858 0
M  V30 20 C -0.770286 -0.867923 2.958741 0
M  V30 21 C -1.781562 -1.584806 3.583144 0
M  V30 22 C -1.817141 -2.970144 3.481887 0
M  V30 23 O -2.880369 -3.595962 4.151426 0
M  V30 24 H -0.788708 -6.523687 0.094758 0
M  V30 25 H -0.999139 -4.790500 0.406875 0
M  V30 26 H 0.666799 -5.409319 0.234618 0
M  V30 27 H 0.791856 -5.812272 2.464246 0
M  V30 28 H -0.575046 -7.001083 2.277263 0
M  V30 29 H 0.846068 -3.510865 1.621748 0
M  V30 30 H 2.313160 -1.304416 1.588907 0
M  V30 31 H -2.139000 2.680197 -0.110402 0
M  V30 32 H -1.511260 4.597693 -1.559237 0
M  V30 33 H 0.880510 4.905482 -2.303735 0
M  V30 34 H 2.601485 4.471346 -3.332776 0
M  V30 35 H 4.341733 4.265640 -2.783416 0
M  V30 36 H 3.264294 5.320513 -1.874793 0
M  V30 37 H -0.752307 0.204658 3.045143 0
M  V30 38 H -2.531390 -1.047478 4.142917 0
M  V30 39 H -3.308223 -3.150721 4.948753 0
M  V30 END ATOM
M  V30 BEGIN BOND
M  V30 1 1 1 2
M  V30 2 1 2 3
M  V30 3 1 3 4
M  V30 4 2 4 5
M  V30 5 1 5 6
M  V30 6 1 6 7
M  V30 7 2 7 8
M  V30 8 1 8 9
M  V30 9 1 9 10
M  V30 10 2 10 11
M  V30 11 1 11 12
M  V30 12 2 12 13
M  V30 13 1 13 14
M  V30 14 1 14 15
M  V30 15 1 15 16
M  V30 16 2 14 17
M  V30 17 1 17 18
M  V30 18 2 18 19
M  V30 19 2 6 20
M  V30 20 1 20 21
M  V30 21 2 21 22
M  V30 22 1 22 23
M  V30 23 1 22 4
M  V30 24 1 18 8
M  V30 25 1 17 10
M  V30 26 1 1 24
M  V30 27 1 1 25
M  V30 28 1 1 26
M  V30 29 1 2 27
M  V30 30 1 2 28
M  V30 31 1 5 29
M  V30 32 1 7 30
M  V30 33 1 11 31
M  V30 34 1 12 32
M  V30 35 1 13 33
M  V30 36 1 16 34
M  V30 37 1 16 35
M  V30 38 1 16 36
M  V30 39 1 20 37
M  V30 40 1 21 38
M  V30 41 1 23 39
M  V30 END BOND
M  V30 END CTAB
M  END
>  <Dataset>  (864) 
ChEMBL_Kinases

>  <Ligand_Instance>  (864) 
nan

>  <PDB_ID>  (864) 
nan

>  <Standardized_SMILES>  (864) 
CCOc1cc(/C=C2\Oc3cccc(OC)c3C2=O)ccc1O

>  <Name>  (864) 
nan

>  <Pocket>  (864) 
nan

>  <ATP_Site>  (864) 
nan

>  <Peripheral>  (864) 
nan

>  <Num_H_Atoms_ProtBoundConf>  (864) 
nan

>  <Num_Resolved_Atoms>  (864) 
nan

>  <Num_Not_Resolved_Atoms>  (864) 
nan

$$$$
CHEMBL481347
     RDKit          3D

  0  0  0  0  0  0  0  0  0  0999 V3000
M  V30 BEGIN CTAB
M  V30 COUNTS 46 49 0 0 0
M  V30 BEGIN ATOM
M  V30 1 N 2.148644 -4.235174 2.286339 0
M  V30 2 C 3.318169 -3.494258 2.580766 0
M  V30 3 O 4.043366 -3.962866 3.469236 0
M  V30 4 C 3.606869 -2.263885 1.856568 0
M  V30 5 C 4.761602 -1.614445 2.204473 0
M  V30 6 C 5.075379 -0.441362 1.541984 0
M  V30 7 C 4.226105 0.031570 0.563975 0
M  V30 8 C 3.058079 -0.650894 0.231508 0
M  V30 9 C 2.209607 -0.043130 -0.848524 0
M  V30 10 N 1.225013 0.882374 -0.315336 0
M  V30 11 C 1.338982 2.225919 -0.098140 0
M  V30 12 N 0.168067 2.682361 0.412077 0
M  V30 13 C -0.699722 1.653919 0.527526 0
M  V30 14 C -2.047266 1.854564 1.052503 0
M  V30 15 C -2.304395 2.322346 2.327294 0
M  V30 16 C -3.578275 2.513868 2.828746 0
M  V30 17 C -4.671895 2.220034 2.006027 0
M  V30 18 F -5.952124 2.380780 2.423507 0
M  V30 19 C -4.380471 1.752881 0.733664 0
M  V30 20 C -3.113326 1.558158 0.223259 0
M  V30 21 C -0.019461 0.542314 0.068367 0
M  V30 22 C -0.684835 -0.751551 0.059474 0
M  V30 23 C -1.149532 -1.434423 1.170923 0
M  V30 24 C -1.755717 -2.654706 0.950389 0
M  V30 25 N -1.882199 -3.148517 -0.307494 0
M  V30 26 C -1.425120 -2.474368 -1.387881 0
M  V30 27 N -1.566466 -3.007266 -2.698836 0
M  V30 28 N -0.834603 -1.287507 -1.183238 0
M  V30 29 C 2.733783 -1.821735 0.884682 0
M  V30 30 H 1.109692 -4.352868 2.284965 0
M  V30 31 H 1.319087 -4.791359 2.062685 0
M  V30 32 H 5.371409 -2.044517 2.975377 0
M  V30 33 H 5.993034 0.076641 1.816942 0
M  V30 34 H 4.497880 0.951002 0.063634 0
M  V30 35 H 2.862288 0.552972 -1.532082 0
M  V30 36 H 1.712400 -0.804779 -1.451665 0
M  V30 37 H 2.276136 2.720202 -0.341066 0
M  V30 38 H -1.438929 2.541826 2.942974 0
M  V30 39 H -3.779278 2.876173 3.815886 0
M  V30 40 H -5.254659 1.532655 0.116832 0
M  V30 41 H -3.029566 1.189118 -0.784335 0
M  V30 42 H -0.997122 -0.950271 2.123886 0
M  V30 43 H -2.117066 -3.184063 1.822854 0
M  V30 44 H -0.738255 -3.072801 -3.328765 0
M  V30 45 H -2.574683 -3.289646 -2.876234 0
M  V30 46 H 1.827670 -2.331753 0.612177 0
M  V30 END ATOM
M  V30 BEGIN BOND
M  V30 1 1 1 2
M  V30 2 2 2 3
M  V30 3 1 2 4
M  V30 4 2 4 5
M  V30 5 1 5 6
M  V30 6 2 6 7
M  V30 7 1 7 8
M  V30 8 1 8 9
M  V30 9 1 9 10
M  V30 10 1 10 11
M  V30 11 2 11 12
M  V30 12 1 12 13
M  V30 13 1 13 14
M  V30 14 2 14 15
M  V30 15 1 15 16
M  V30 16 2 16 17
M  V30 17 1 17 18
M  V30 18 1 17 19
M  V30 19 2 19 20
M  V30 20 2 13 21
M  V30 21 1 21 22
M  V30 22 2 22 23
M  V30 23 1 23 24
M  V30 24 2 24 25
M  V30 25 1 25 26
M  V30 26 1 26 27
M  V30 27 2 26 28
M  V30 28 2 8 29
M  V30 29 1 29 4
M  V30 30 1 21 10
M  V30 31 1 28 22
M  V30 32 1 20 14
M  V30 33 1 1 30
M  V30 34 1 1 31
M  V30 35 1 5 32
M  V30 36 1 6 33
M  V30 37 1 7 34
M  V30 38 1 9 35
M  V30 39 1 9 36
M  V30 40 1 11 37
M  V30 41 1 15 38
M  V30 42 1 16 39
M  V30 43 1 19 40
M  V30 44 1 20 41
M  V30 45 1 23 42
M  V30 46 1 24 43
M  V30 47 1 27 44
M  V30 48 1 27 45
M  V30 49 1 29 46
M  V30 END BOND
M  V30 END CTAB
M  END
>  <Dataset>  (865) 
ChEMBL_Kinases

>  <Ligand_Instance>  (865) 
nan

>  <PDB_ID>  (865) 
nan

>  <Standardized_SMILES>  (865) 
NC(=O)c1cccc(Cn2cnc(-c3ccc(F)cc3)c2-c2ccnc(N)n2)c1

>  <Name>  (865) 
nan

>  <Pocket>  (865) 
nan

>  <ATP_Site>  (865) 
nan

>  <Peripheral>  (865) 
nan

>  <Num_H_Atoms_ProtBoundConf>  (865) 
nan

>  <Num_Resolved_Atoms>  (865) 
nan

>  <Num_Not_Resolved_Atoms>  (865) 
nan

$$$$
CHEMBL4094958
     RDKit          3D

  0  0  0  0  0  0  0  0  0  0999 V3000
M  V30 BEGIN CTAB
M  V30 COUNTS 47 50 0 0 0
M  V30 BEGIN ATOM
M  V30 1 C 0.194323 -3.467448 1.095926 0
M  V30 2 O 0.936693 -2.308893 1.420915 0
M  V30 3 C 2.045967 -2.023350 0.648773 0
M  V30 4 C 2.424489 -2.844907 -0.406399 0
M  V30 5 C 3.512489 -2.632679 -1.213105 0
M  V30 6 C 4.284011 -1.508078 -0.941899 0
M  V30 7 C 3.955914 -0.658092 0.091374 0
M  V30 8 N 4.737024 0.386145 0.318160 0
M  V30 9 C 4.491115 1.244502 1.318460 0
M  V30 10 C 3.364037 0.966780 2.097919 0
M  V30 11 C 2.507863 -0.109396 1.908657 0
M  V30 12 N 1.422699 -0.204941 2.811556 0
M  V30 13 C 0.009820 -0.076974 2.722363 0
M  V30 14 C -0.744923 0.263974 1.616404 0
M  V30 15 C -2.113241 0.381053 1.552891 0
M  V30 16 C -2.743825 0.753148 0.290784 0
M  V30 17 N -2.313864 0.134636 -0.830490 0
M  V30 18 C -2.827652 0.403910 -2.042903 0
M  V30 19 C -2.375751 -0.260041 -3.296670 0
M  V30 20 C -3.837842 1.356992 -2.125281 0
M  V30 21 C -4.287771 1.999833 -0.975822 0
M  V30 22 C -3.752833 1.716055 0.267931 0
M  V30 23 F -4.153428 2.311714 1.417982 0
M  V30 24 N -2.743961 0.128004 2.713297 0
M  V30 25 C -2.068402 -0.208472 3.824531 0
M  V30 26 C -0.700566 -0.322867 3.877801 0
M  V30 27 C -0.007466 -0.702299 5.150288 0
M  V30 28 C 2.848866 -0.927341 0.863649 0
M  V30 29 H 0.915840 -4.330706 1.069680 0
M  V30 30 H -0.575035 -3.698844 1.849065 0
M  V30 31 H -0.225032 -3.314740 0.077865 0
M  V30 32 H 1.845824 -3.742237 -0.655892 0
M  V30 33 H 3.776562 -3.286951 -2.019878 0
M  V30 34 H 5.164810 -1.290948 -1.554767 0
M  V30 35 H 5.104480 2.099134 1.529853 0
M  V30 36 H 3.185287 1.686450 2.911254 0
M  V30 37 H 1.868618 -0.425740 3.715661 0
M  V30 38 H -0.168039 0.453691 0.716760 0
M  V30 39 H -3.186505 -0.194112 -4.046364 0
M  V30 40 H -1.400738 0.129014 -3.642656 0
M  V30 41 H -2.214041 -1.336110 -3.069744 0
M  V30 42 H -4.272151 1.597141 -3.082077 0
M  V30 43 H -5.079276 2.751648 -1.012890 0
M  V30 44 H -2.623732 -0.407091 4.752546 0
M  V30 45 H 0.343547 -1.767829 5.040083 0
M  V30 46 H 0.816746 -0.006323 5.411604 0
M  V30 47 H -0.750864 -0.650688 5.954401 0
M  V30 END ATOM
M  V30 BEGIN BOND
M  V30 1 1 1 2
M  V30 2 1 2 3
M  V30 3 2 3 4
M  V30 4 1 4 5
M  V30 5 2 5 6
M  V30 6 1 6 7
M  V30 7 2 7 8
M  V30 8 1 8 9
M  V30 9 2 9 10
M  V30 10 1 10 11
M  V30 11 1 11 12
M  V30 12 1 12 13
M  V30 13 2 13 14
M  V30 14 1 14 15
M  V30 15 1 15 16
M  V30 16 2 16 17
M  V30 17 1 17 18
M  V30 18 1 18 19
M  V30 19 2 18 20
M  V30 20 1 20 21
M  V30 21 2 21 22
M  V30 22 1 22 23
M  V30 23 2 15 24
M  V30 24 1 24 25
M  V30 25 2 25 26
M  V30 26 1 26 27
M  V30 27 2 11 28
M  V30 28 1 28 3
M  V30 29 1 28 7
M  V30 30 1 26 13
M  V30 31 1 22 16
M  V30 32 1 1 29
M  V30 33 1 1 30
M  V30 34 1 1 31
M  V30 35 1 4 32
M  V30 36 1 5 33
M  V30 37 1 6 34
M  V30 38 1 9 35
M  V30 39 1 10 36
M  V30 40 1 12 37
M  V30 41 1 14 38
M  V30 42 1 19 39
M  V30 43 1 19 40
M  V30 44 1 19 41
M  V30 45 1 20 42
M  V30 46 1 21 43
M  V30 47 1 25 44
M  V30 48 1 27 45
M  V30 49 1 27 46
M  V30 50 1 27 47
M  V30 END BOND
M  V30 END CTAB
M  END
>  <Dataset>  (866) 
ChEMBL_Kinases

>  <Ligand_Instance>  (866) 
nan

>  <PDB_ID>  (866) 
nan

>  <Standardized_SMILES>  (866) 
COc1cccc2nccc(Nc3cc(-c4nc(C)ccc4F)ncc3C)c12

>  <Name>  (866) 
nan

>  <Pocket>  (866) 
nan

>  <ATP_Site>  (866) 
nan

>  <Peripheral>  (866) 
nan

>  <Num_H_Atoms_ProtBoundConf>  (866) 
nan

>  <Num_Resolved_Atoms>  (866) 
nan

>  <Num_Not_Resolved_Atoms>  (866) 
nan

$$$$
CHEMBL4094902
     RDKit          3D

  0  0  0  0  0  0  0  0  0  0999 V3000
M  V30 BEGIN CTAB
M  V30 COUNTS 51 54 0 0 0
M  V30 BEGIN ATOM
M  V30 1 O 0.991597 -1.378305 -0.486450 0
M  V30 2 C 1.657537 -0.724814 0.378228 0
M  V30 3 C 3.023308 -0.290005 0.102266 0
M  V30 4 C 3.732372 -0.476226 -0.968885 0
M  V30 5 C 5.022569 -0.167868 -1.461284 0
M  V30 6 C 5.415815 -0.557497 -2.724437 0
M  V30 7 N 6.613678 -0.280582 -3.245755 0
M  V30 8 C 7.536575 0.409597 -2.564099 0
M  V30 9 C 7.217510 0.842189 -1.272878 0
M  V30 10 C 5.970977 0.536246 -0.769654 0
M  V30 11 C 5.856545 1.044253 0.575156 0
M  V30 12 C 5.468917 2.354321 0.726355 0
M  V30 13 N 5.293999 3.126045 1.849334 0
M  V30 14 S 5.760505 1.792881 3.082570 0
M  V30 15 C 6.086441 0.524565 1.986521 0
M  V30 16 N 1.082975 -0.405101 1.630535 0
M  V30 17 C -0.243825 -0.789566 1.970240 0
M  V30 18 C -0.710012 -1.945088 2.563159 0
M  V30 19 C -2.057012 -2.088384 2.799743 0
M  V30 20 C -2.975151 -1.114050 2.466778 0
M  V30 21 C -4.425354 -1.263168 2.724263 0
M  V30 22 N -5.160255 -1.899514 1.662589 0
M  V30 23 C -6.579242 -2.007756 1.974274 0
M  V30 24 C -7.287242 -2.503485 0.742417 0
M  V30 25 O -6.430223 -3.149348 -0.143834 0
M  V30 26 C -5.463222 -2.294550 -0.650878 0
M  V30 27 C -5.061610 -1.236604 0.385914 0
M  V30 28 C -2.510949 0.059681 1.866755 0
M  V30 29 C -1.137144 0.226374 1.614813 0
M  V30 30 H 3.562280 0.253493 0.826879 0
M  V30 31 H 3.091510 -1.049496 -1.668105 0
M  V30 32 H 4.736610 -1.131534 -3.376085 0
M  V30 33 H 8.463575 0.580056 -3.071069 0
M  V30 34 H 8.023635 1.382408 -0.819438 0
M  V30 35 H 5.197016 3.120437 -0.016572 0
M  V30 36 H 6.395848 -0.508322 1.945882 0
M  V30 37 H 1.588690 0.123870 2.375566 0
M  V30 38 H 0.073648 -2.634878 2.781302 0
M  V30 39 H -2.375960 -2.993952 3.258673 0
M  V30 40 H -4.510881 -1.827691 3.683750 0
M  V30 41 H -4.917424 -0.275530 2.952420 0
M  V30 42 H -6.949700 -0.951380 2.121561 0
M  V30 43 H -6.770735 -2.616171 2.882780 0
M  V30 44 H -8.037354 -3.262312 1.075597 0
M  V30 45 H -7.816199 -1.706603 0.176882 0
M  V30 46 H -5.704943 -1.845700 -1.624643 0
M  V30 47 H -4.538579 -2.898039 -0.791052 0
M  V30 48 H -5.795046 -0.428819 0.307216 0
M  V30 49 H -4.056692 -0.833232 0.152089 0
M  V30 50 H -3.211324 0.855366 1.592590 0
M  V30 51 H -0.890348 1.177080 1.144679 0
M  V30 END ATOM
M  V30 BEGIN BOND
M  V30 1 2 1 2
M  V30 2 1 2 3
M  V30 3 2 3 4
M  V30 4 1 4 5
M  V30 5 2 5 6
M  V30 6 1 6 7
M  V30 7 2 7 8
M  V30 8 1 8 9
M  V30 9 2 9 10
M  V30 10 1 10 11
M  V30 11 1 11 12
M  V30 12 2 12 13
M  V30 13 1 13 14
M  V30 14 1 14 15
M  V30 15 1 2 16
M  V30 16 1 16 17
M  V30 17 2 17 18
M  V30 18 1 18 19
M  V30 19 2 19 20
M  V30 20 1 20 21
M  V30 21 1 21 22
M  V30 22 1 22 23
M  V30 23 1 23 24
M  V30 24 1 24 25
M  V30 25 1 25 26
M  V30 26 1 26 27
M  V30 27 1 20 28
M  V30 28 2 28 29
M  V30 29 1 10 5
M  V30 30 2 15 11
M  V30 31 1 29 17
M  V30 32 1 27 22
M  V30 33 1 3 30
M  V30 34 1 4 31
M  V30 35 1 6 32
M  V30 36 1 8 33
M  V30 37 1 9 34
M  V30 38 1 12 35
M  V30 39 1 15 36
M  V30 40 1 16 37
M  V30 41 1 18 38
M  V30 42 1 19 39
M  V30 43 1 21 40
M  V30 44 1 21 41
M  V30 45 1 23 42
M  V30 46 1 23 43
M  V30 47 1 24 44
M  V30 48 1 24 45
M  V30 49 1 26 46
M  V30 50 1 26 47
M  V30 51 1 27 48
M  V30 52 1 27 49
M  V30 53 1 28 50
M  V30 54 1 29 51
M  V30 END BOND
M  V30 END CTAB
M  END
>  <Dataset>  (867) 
ChEMBL_Kinases

>  <Ligand_Instance>  (867) 
nan

>  <PDB_ID>  (867) 
nan

>  <Standardized_SMILES>  (867) 
O=C(/C=C/c1cnccc1-c1cnsc1)Nc1ccc(CN2CCOCC2)cc1

>  <Name>  (867) 
nan

>  <Pocket>  (867) 
nan

>  <ATP_Site>  (867) 
nan

>  <Peripheral>  (867) 
nan

>  <Num_H_Atoms_ProtBoundConf>  (867) 
nan

>  <Num_Resolved_Atoms>  (867) 
nan

>  <Num_Not_Resolved_Atoms>  (867) 
nan

$$$$
CHEMBL4094782
     RDKit          3D

  0  0  0  0  0  0  0  0  0  0999 V3000
M  V30 BEGIN CTAB
M  V30 COUNTS 37 40 0 0 0
M  V30 BEGIN ATOM
M  V30 1 O -0.335040 -2.504615 3.414338 0
M  V30 2 C -1.224606 -3.288816 2.946734 0
M  V30 3 N -1.009491 -3.771748 1.628278 0
M  V30 4 C 0.220228 -3.221167 1.139038 0
M  V30 5 N 1.470188 -3.742950 1.238807 0
M  V30 6 N 2.335892 -2.915942 0.653374 0
M  V30 7 C 1.668640 -1.834121 0.157988 0
M  V30 8 C 2.127375 -0.719579 -0.522746 0
M  V30 9 C 1.232472 0.273250 -0.933310 0
M  V30 10 C 1.646891 1.478229 -1.656458 0
M  V30 11 C 2.723266 1.471146 -2.531652 0
M  V30 12 C 2.973715 2.709760 -3.128462 0
M  V30 13 C 2.251972 3.853638 -2.902784 0
M  V30 14 C 1.198886 3.777363 -2.020165 0
M  V30 15 O 0.471473 4.950236 -1.799148 0
M  V30 16 C 0.884773 2.595807 -1.389527 0
M  V30 17 C -0.104803 0.055711 -0.613159 0
M  V30 18 C -0.584744 -1.046128 0.063789 0
M  V30 19 C 0.327540 -2.010986 0.456557 0
M  V30 20 C -2.378714 -3.608535 3.824169 0
M  V30 21 C -2.869997 -2.445955 4.743212 0
M  V30 22 C -2.077657 -3.548446 5.338408 0
M  V30 23 H -1.737225 -4.414335 1.250760 0
M  V30 24 H 3.383935 -3.074921 0.583260 0
M  V30 25 H 3.182574 -0.585467 -0.755038 0
M  V30 26 H 3.286341 0.580812 -2.708387 0
M  V30 27 H 3.810165 2.745439 -3.821740 0
M  V30 28 H 2.495832 4.783676 -3.396506 0
M  V30 29 H -0.204807 4.933556 -1.025752 0
M  V30 30 H 0.045929 2.603831 -0.708386 0
M  V30 31 H -0.836353 0.774960 -0.898240 0
M  V30 32 H -1.631484 -1.170253 0.289498 0
M  V30 33 H -3.179455 -4.278464 3.481684 0
M  V30 34 H -3.952360 -2.354212 4.863227 0
M  V30 35 H -2.358372 -1.475332 4.552776 0
M  V30 36 H -2.627486 -4.213757 6.016283 0
M  V30 37 H -1.027846 -3.318110 5.612253 0
M  V30 END ATOM
M  V30 BEGIN BOND
M  V30 1 2 1 2
M  V30 2 1 2 3
M  V30 3 1 3 4
M  V30 4 2 4 5
M  V30 5 1 5 6
M  V30 6 1 6 7
M  V30 7 2 7 8
M  V30 8 1 8 9
M  V30 9 1 9 10
M  V30 10 2 10 11
M  V30 11 1 11 12
M  V30 12 2 12 13
M  V30 13 1 13 14
M  V30 14 1 14 15
M  V30 15 2 14 16
M  V30 16 2 9 17
M  V30 17 1 17 18
M  V30 18 2 18 19
M  V30 19 1 2 20
M  V30 20 1 20 21
M  V30 21 1 21 22
M  V30 22 1 19 4
M  V30 23 1 22 20
M  V30 24 1 19 7
M  V30 25 1 16 10
M  V30 26 1 3 23
M  V30 27 1 6 24
M  V30 28 1 8 25
M  V30 29 1 11 26
M  V30 30 1 12 27
M  V30 31 1 13 28
M  V30 32 1 15 29
M  V30 33 1 16 30
M  V30 34 1 17 31
M  V30 35 1 18 32
M  V30 36 1 20 33
M  V30 37 1 21 34
M  V30 38 1 21 35
M  V30 39 1 22 36
M  V30 40 1 22 37
M  V30 END BOND
M  V30 END CTAB
M  END
>  <Dataset>  (868) 
ChEMBL_Kinases

>  <Ligand_Instance>  (868) 
nan

>  <PDB_ID>  (868) 
nan

>  <Standardized_SMILES>  (868) 
O=C(Nc1n[nH]c2cc(-c3cccc(O)c3)ccc12)C1CC1

>  <Name>  (868) 
nan

>  <Pocket>  (868) 
nan

>  <ATP_Site>  (868) 
nan

>  <Peripheral>  (868) 
nan

>  <Num_H_Atoms_ProtBoundConf>  (868) 
nan

>  <Num_Resolved_Atoms>  (868) 
nan

>  <Num_Not_Resolved_Atoms>  (868) 
nan

$$$$
CHEMBL481354
     RDKit          3D

  0  0  0  0  0  0  0  0  0  0999 V3000
M  V30 BEGIN CTAB
M  V30 COUNTS 62 66 0 0 0
M  V30 BEGIN ATOM
M  V30 1 C 2.228082 -0.106678 3.958928 0
M  V30 2 C 1.480601 -1.355055 3.520527 0 CFG=2
M  V30 3 N 2.082396 -1.826212 2.289223 0
M  V30 4 C 2.012555 -0.837799 1.271311 0
M  V30 5 N 3.098096 -0.031412 1.296297 0
M  V30 6 C 3.188629 0.977009 0.379777 0
M  V30 7 C 2.144070 1.089268 -0.512178 0
M  V30 8 C 1.027144 0.280698 -0.558773 0
M  V30 9 C -0.054467 0.442881 -1.513351 0
M  V30 10 C -0.948628 1.490615 -1.505865 0
M  V30 11 C -1.089862 2.645943 -0.630955 0
M  V30 12 C -2.286561 2.620183 0.080868 0
M  V30 13 C -2.629910 3.617323 0.967064 0
M  V30 14 C -1.769588 4.687912 1.168832 0
M  V30 15 F -1.931402 5.750072 1.988108 0
M  V30 16 C -0.581124 4.715769 0.463277 0
M  V30 17 C -0.246447 3.715519 -0.419189 0
M  V30 18 N -1.759435 1.226344 -2.573532 0
M  V30 19 C -1.354123 0.096026 -3.157470 0
M  V30 20 N -0.275105 -0.416404 -2.501187 0
M  V30 21 C 0.327718 -1.629684 -2.952353 0
M  V30 22 C -0.222454 -2.865737 -2.390191 0
M  V30 23 C -1.326509 -3.326634 -3.117238 0
M  V30 24 C -2.005088 -4.482684 -2.770361 0
M  V30 25 C -1.608800 -5.229583 -1.679933 0
M  V30 26 C -0.520773 -4.744243 -0.991777 0
M  V30 27 C -0.083966 -5.517322 0.163773 0
M  V30 28 N 1.006417 -5.221058 1.025924 0
M  V30 29 O -0.669527 -6.573241 0.515136 0
M  V30 30 C 0.169005 -3.615542 -1.301888 0
M  V30 31 N 1.021437 -0.682458 0.377750 0
M  V30 32 C 0.034019 -1.139115 3.409279 0
M  V30 33 C -0.617727 -0.028626 3.896253 0
M  V30 34 C -2.000227 0.147451 3.774812 0
M  V30 35 C -2.747469 -0.844650 3.133334 0
M  V30 36 C -2.090318 -1.972541 2.637554 0
M  V30 37 C -0.726690 -2.100834 2.781474 0
M  V30 38 H 3.316462 -0.360592 3.805905 0
M  V30 39 H 2.028540 0.079445 5.027320 0
M  V30 40 H 2.030714 0.758826 3.304124 0
M  V30 41 H 1.654677 -2.112057 4.313558 0
M  V30 42 H 2.510772 -2.769784 2.169908 0
M  V30 43 H 4.037177 1.645596 0.363730 0
M  V30 44 H 2.245591 1.894040 -1.227111 0
M  V30 45 H -3.059591 1.852584 0.029962 0
M  V30 46 H -3.527908 3.676395 1.554799 0
M  V30 47 H 0.184028 5.494625 0.525927 0
M  V30 48 H 0.652961 3.654378 -1.010840 0
M  V30 49 H -1.927317 -0.229567 -4.034235 0
M  V30 50 H 1.431255 -1.646919 -2.687079 0
M  V30 51 H 0.335124 -1.650609 -4.067523 0
M  V30 52 H -1.750962 -2.833934 -4.007201 0
M  V30 53 H -2.865894 -4.846530 -3.332746 0
M  V30 54 H -2.116611 -6.136414 -1.383617 0
M  V30 55 H 1.226343 -4.792982 1.949047 0
M  V30 56 H 1.898326 -5.551368 0.568846 0
M  V30 57 H 1.020139 -3.205876 -0.793601 0
M  V30 58 H -0.037732 0.733124 4.390166 0
M  V30 59 H -2.484165 1.031011 4.168498 0
M  V30 60 H -3.818749 -0.721936 3.032531 0
M  V30 61 H -2.720002 -2.720885 2.144492 0
M  V30 62 H -0.338327 -3.018309 2.355584 0
M  V30 END ATOM
M  V30 BEGIN BOND
M  V30 1 1 1 2
M  V30 2 1 2 3
M  V30 3 1 3 4
M  V30 4 2 4 5
M  V30 5 1 5 6
M  V30 6 2 6 7
M  V30 7 1 7 8
M  V30 8 1 8 9
M  V30 9 2 9 10
M  V30 10 1 10 11
M  V30 11 2 11 12
M  V30 12 1 12 13
M  V30 13 2 13 14
M  V30 14 1 14 15
M  V30 15 1 14 16
M  V30 16 2 16 17
M  V30 17 1 10 18
M  V30 18 2 18 19
M  V30 19 1 19 20
M  V30 20 1 20 21
M  V30 21 1 21 22
M  V30 22 2 22 23
M  V30 23 1 23 24
M  V30 24 2 24 25
M  V30 25 1 25 26
M  V30 26 1 26 27
M  V30 27 1 27 28
M  V30 28 2 27 29
M  V30 29 2 26 30
M  V30 30 2 8 31
M  V30 31 1 2 32
M  V30 32 2 32 33
M  V30 33 1 33 34
M  V30 34 2 34 35
M  V30 35 1 35 36
M  V30 36 2 36 37
M  V30 37 1 31 4
M  V30 38 1 37 32
M  V30 39 1 20 9
M  V30 40 1 30 22
M  V30 41 1 17 11
M  V30 42 1 1 38
M  V30 43 1 1 39
M  V30 44 1 1 40
M  V30 45 1 2 41 CFG=1
M  V30 46 1 3 42
M  V30 47 1 6 43
M  V30 48 1 7 44
M  V30 49 1 12 45
M  V30 50 1 13 46
M  V30 51 1 16 47
M  V30 52 1 17 48
M  V30 53 1 19 49
M  V30 54 1 21 50
M  V30 55 1 21 51
M  V30 56 1 23 52
M  V30 57 1 24 53
M  V30 58 1 25 54
M  V30 59 1 28 55
M  V30 60 1 28 56
M  V30 61 1 30 57
M  V30 62 1 33 58
M  V30 63 1 34 59
M  V30 64 1 35 60
M  V30 65 1 36 61
M  V30 66 1 37 62
M  V30 END BOND
M  V30 END CTAB
M  END
>  <Dataset>  (869) 
ChEMBL_Kinases

>  <Ligand_Instance>  (869) 
nan

>  <PDB_ID>  (869) 
nan

>  <Standardized_SMILES>  (869) 
C[C@H](Nc1nccc(-c2c(-c3ccc(F)cc3)ncn2Cc2cccc(C(N)=O)c2)n1)c1ccccc1

>  <Name>  (869) 
nan

>  <Pocket>  (869) 
nan

>  <ATP_Site>  (869) 
nan

>  <Peripheral>  (869) 
nan

>  <Num_H_Atoms_ProtBoundConf>  (869) 
nan

>  <Num_Resolved_Atoms>  (869) 
nan

>  <Num_Not_Resolved_Atoms>  (869) 
nan

$$$$
CHEMBL4095163
     RDKit          3D

  0  0  0  0  0  0  0  0  0  0999 V3000
M  V30 BEGIN CTAB
M  V30 COUNTS 47 50 0 0 0
M  V30 BEGIN ATOM
M  V30 1 C 1.506785 -1.659302 -0.047690 0
M  V30 2 C 0.813350 -0.412873 -0.599130 0 CFG=2
M  V30 3 C 1.821178 0.686417 -0.854551 0
M  V30 4 N 2.495593 1.049392 0.377219 0
M  V30 5 C 3.843299 1.527177 0.444931 0
M  V30 6 C 4.507540 1.866975 1.609179 0
M  V30 7 N 5.765484 2.309409 1.618507 0
M  V30 8 C 6.437844 2.439301 0.459183 0
M  V30 9 N 5.836253 2.122320 -0.696168 0
M  V30 10 C 4.577891 1.676808 -0.735834 0
M  V30 11 C 1.759420 0.919647 1.600441 0
M  V30 12 C 0.271659 0.986278 1.318305 0
M  V30 13 N -0.181239 0.024444 0.363077 0
M  V30 14 C -1.538643 -0.387941 0.470318 0
M  V30 15 N -1.714769 -1.502127 1.215082 0
M  V30 16 C -2.917567 -2.059263 1.445258 0
M  V30 17 C -3.091204 -3.259179 2.243982 0
M  V30 18 C -2.053881 -3.941661 2.839867 0
M  V30 19 C -2.205572 -5.089032 3.603292 0
M  V30 20 N -3.475150 -5.525311 3.741274 0
M  V30 21 C -4.513546 -4.885482 3.174373 0
M  V30 22 N -4.316467 -3.774672 2.441520 0
M  V30 23 C -4.020131 -1.449598 0.885287 0
M  V30 24 C -3.846393 -0.303920 0.118450 0
M  V30 25 O -4.828250 0.306359 -0.426836 0
M  V30 26 N -2.613865 0.207422 -0.076927 0
M  V30 27 C -2.349471 1.400777 -0.864686 0
M  V30 28 H 2.601965 -1.501448 0.015506 0
M  V30 29 H 1.076173 -1.921376 0.950677 0
M  V30 30 H 1.313122 -2.503684 -0.738972 0
M  V30 31 H 0.299630 -0.634574 -1.549818 0
M  V30 32 H 1.268022 1.516585 -1.310476 0
M  V30 33 H 2.563598 0.233989 -1.566770 0
M  V30 34 H 3.968959 1.762608 2.540752 0
M  V30 35 H 7.446790 2.799913 0.521791 0
M  V30 36 H 4.186245 1.451231 -1.707760 0
M  V30 37 H 2.029373 0.032310 2.194922 0
M  V30 38 H 1.953142 1.801043 2.281790 0
M  V30 39 H -0.228805 0.928905 2.298695 0
M  V30 40 H 0.126285 2.000979 0.840560 0
M  V30 41 H -1.037647 -3.575465 2.718274 0
M  V30 42 H -1.368465 -5.586303 4.047517 0
M  V30 43 H -5.534168 -5.260106 3.301779 0
M  V30 44 H -5.026271 -1.850956 1.033509 0
M  V30 45 H -2.615012 2.337741 -0.348108 0
M  V30 46 H -3.053992 1.366656 -1.748053 0
M  V30 47 H -1.349008 1.385315 -1.321939 0
M  V30 END ATOM
M  V30 BEGIN BOND
M  V30 1 1 1 2
M  V30 2 1 2 3
M  V30 3 1 3 4
M  V30 4 1 4 5
M  V30 5 2 5 6
M  V30 6 1 6 7
M  V30 7 2 7 8
M  V30 8 1 8 9
M  V30 9 2 9 10
M  V30 10 1 4 11
M  V30 11 1 11 12
M  V30 12 1 12 13
M  V30 13 1 13 14
M  V30 14 2 14 15
M  V30 15 1 15 16
M  V30 16 1 16 17
M  V30 17 2 17 18
M  V30 18 1 18 19
M  V30 19 2 19 20
M  V30 20 1 20 21
M  V30 21 2 21 22
M  V30 22 2 16 23
M  V30 23 1 23 24
M  V30 24 2 24 25
M  V30 25 1 24 26
M  V30 26 1 26 27
M  V30 27 1 13 2
M  V30 28 1 26 14
M  V30 29 1 10 5
M  V30 30 1 22 17
M  V30 31 1 1 28
M  V30 32 1 1 29
M  V30 33 1 1 30
M  V30 34 1 2 31 CFG=3
M  V30 35 1 3 32
M  V30 36 1 3 33
M  V30 37 1 6 34
M  V30 38 1 8 35
M  V30 39 1 10 36
M  V30 40 1 11 37
M  V30 41 1 11 38
M  V30 42 1 12 39
M  V30 43 1 12 40
M  V30 44 1 18 41
M  V30 45 1 19 42
M  V30 46 1 21 43
M  V30 47 1 23 44
M  V30 48 1 27 45
M  V30 49 1 27 46
M  V30 50 1 27 47
M  V30 END BOND
M  V30 END CTAB
M  END
>  <Dataset>  (870) 
ChEMBL_Kinases

>  <Ligand_Instance>  (870) 
nan

>  <PDB_ID>  (870) 
nan

>  <Standardized_SMILES>  (870) 
C[C@@H]1CN(c2cncnc2)CCN1c1nc(-c2ccncn2)cc(=O)n1C

>  <Name>  (870) 
nan

>  <Pocket>  (870) 
nan

>  <ATP_Site>  (870) 
nan

>  <Peripheral>  (870) 
nan

>  <Num_H_Atoms_ProtBoundConf>  (870) 
nan

>  <Num_Resolved_Atoms>  (870) 
nan

>  <Num_Not_Resolved_Atoms>  (870) 
nan

$$$$
CHEMBL4096522
     RDKit          3D

  0  0  0  0  0  0  0  0  0  0999 V3000
M  V30 BEGIN CTAB
M  V30 COUNTS 59 63 0 0 0
M  V30 BEGIN ATOM
M  V30 1 O 0.436568 -5.150675 -0.350810 0
M  V30 2 C -0.308446 -4.139400 -0.474032 0
M  V30 3 C 0.178226 -2.822887 -0.086883 0
M  V30 4 C 1.347479 -2.315074 0.427755 0
M  V30 5 C 1.106867 -0.950657 0.547295 0
M  V30 6 C 2.078496 0.014692 1.057503 0
M  V30 7 C 3.332129 -0.384367 1.465034 0
M  V30 8 C 4.179634 0.595148 1.931279 0
M  V30 9 N 3.796188 1.881624 1.984406 0
M  V30 10 C 2.575143 2.283591 1.589456 0
M  V30 11 N 2.169504 3.648101 1.646003 0
M  V30 12 C 3.122584 4.619619 2.150852 0
M  V30 13 C 4.338728 4.584003 1.261095 0
M  V30 14 C 4.924346 5.994938 1.273320 0
M  V30 15 O 4.090071 6.869003 0.599533 0
M  V30 16 C 2.753481 6.622019 0.814558 0
M  V30 17 C 2.557957 6.008546 2.187870 0
M  V30 18 N 1.771211 1.314615 1.141113 0
M  V30 19 N -0.133874 -0.680095 0.125519 0
M  V30 20 C -0.750356 -1.826655 -0.280615 0
M  V30 21 C -2.129008 -1.965437 -0.813357 0
M  V30 22 C -2.266261 -3.209167 -1.640261 0
M  V30 23 N -1.617107 -4.298230 -0.990536 0
M  V30 24 C -2.325889 -5.559178 -0.883198 0 CFG=2
M  V30 25 C -2.489700 -6.115301 -2.262309 0
M  V30 26 O -3.135824 -7.324880 -2.341050 0
M  V30 27 C -3.562613 -5.449234 -0.110936 0
M  V30 28 C -3.315886 -4.740668 1.072230 0
M  V30 29 C -4.324005 -4.485129 2.001546 0
M  V30 30 C -5.606648 -4.932493 1.770790 0
M  V30 31 F -6.611167 -4.701322 2.653934 0
M  V30 32 C -5.847491 -5.629360 0.606267 0
M  V30 33 Cl -7.438705 -6.244800 0.209625 0
M  V30 34 C -4.856257 -5.881248 -0.308755 0
M  V30 35 H 2.221100 -2.907357 0.663110 0
M  V30 36 H 3.572929 -1.433868 1.394709 0
M  V30 37 H 5.168151 0.318260 2.258402 0
M  V30 38 H 1.204071 3.875030 1.319371 0
M  V30 39 H 3.409581 4.383084 3.216349 0
M  V30 40 H 3.975661 4.352582 0.228212 0
M  V30 41 H 5.074452 3.851455 1.607098 0
M  V30 42 H 5.872365 5.944337 0.687505 0
M  V30 43 H 5.073731 6.267621 2.334407 0
M  V30 44 H 2.402461 5.854072 0.070795 0
M  V30 45 H 2.103583 7.492325 0.710334 0
M  V30 46 H 1.466549 5.966872 2.440700 0
M  V30 47 H 3.076057 6.595666 2.945042 0
M  V30 48 H -0.524897 0.292438 0.128792 0
M  V30 49 H -2.831851 -2.074232 0.059260 0
M  V30 50 H -2.436151 -1.049425 -1.365596 0
M  V30 51 H -1.760080 -2.978274 -2.622139 0
M  V30 52 H -3.315052 -3.402279 -1.909960 0
M  V30 53 H -1.624734 -6.266461 -0.349993 0
M  V30 54 H -1.451539 -6.213880 -2.683972 0
M  V30 55 H -3.013257 -5.413013 -2.953270 0
M  V30 56 H -3.535999 -7.426943 -3.242358 0
M  V30 57 H -2.362530 -4.311431 1.420740 0
M  V30 58 H -4.192703 -3.948629 2.922926 0
M  V30 59 H -4.942409 -6.412529 -1.245154 0
M  V30 END ATOM
M  V30 BEGIN BOND
M  V30 1 2 1 2
M  V30 2 1 2 3
M  V30 3 1 3 4
M  V30 4 2 4 5
M  V30 5 1 5 6
M  V30 6 2 6 7
M  V30 7 1 7 8
M  V30 8 2 8 9
M  V30 9 1 9 10
M  V30 10 1 10 11
M  V30 11 1 11 12
M  V30 12 1 12 13
M  V30 13 1 13 14
M  V30 14 1 14 15
M  V30 15 1 15 16
M  V30 16 1 16 17
M  V30 17 2 10 18
M  V30 18 1 5 19
M  V30 19 1 19 20
M  V30 20 1 20 21
M  V30 21 1 21 22
M  V30 22 1 22 23
M  V30 23 1 23 24
M  V30 24 1 24 25
M  V30 25 1 25 26
M  V30 26 1 24 27
M  V30 27 2 27 28
M  V30 28 1 28 29
M  V30 29 2 29 30
M  V30 30 1 30 31
M  V30 31 1 30 32
M  V30 32 1 32 33
M  V30 33 2 32 34
M  V30 34 1 23 2
M  V30 35 1 34 27
M  V30 36 2 20 3
M  V30 37 1 18 6
M  V30 38 1 17 12
M  V30 39 1 4 35
M  V30 40 1 7 36
M  V30 41 1 8 37
M  V30 42 1 11 38
M  V30 43 1 12 39
M  V30 44 1 13 40
M  V30 45 1 13 41
M  V30 46 1 14 42
M  V30 47 1 14 43
M  V30 48 1 16 44
M  V30 49 1 16 45
M  V30 50 1 17 46
M  V30 51 1 17 47
M  V30 52 1 19 48
M  V30 53 1 21 49
M  V30 54 1 21 50
M  V30 55 1 22 51
M  V30 56 1 22 52
M  V30 57 1 24 53 CFG=1
M  V30 58 1 25 54
M  V30 59 1 25 55
M  V30 60 1 26 56
M  V30 61 1 28 57
M  V30 62 1 29 58
M  V30 63 1 34 59
M  V30 END BOND
M  V30 END CTAB
M  END
>  <Dataset>  (871) 
ChEMBL_Kinases

>  <Ligand_Instance>  (871) 
nan

>  <PDB_ID>  (871) 
nan

>  <Standardized_SMILES>  (871) 
O=C1c2cc(-c3ccnc(NC4CCOCC4)n3)[nH]c2CCN1[C@H](CO)c1ccc(F)c(Cl)c1

>  <Name>  (871) 
nan

>  <Pocket>  (871) 
nan

>  <ATP_Site>  (871) 
nan

>  <Peripheral>  (871) 
nan

>  <Num_H_Atoms_ProtBoundConf>  (871) 
nan

>  <Num_Resolved_Atoms>  (871) 
nan

>  <Num_Not_Resolved_Atoms>  (871) 
nan

$$$$
CHEMBL4096476
     RDKit          3D

  0  0  0  0  0  0  0  0  0  0999 V3000
M  V30 BEGIN CTAB
M  V30 COUNTS 46 49 0 0 0
M  V30 BEGIN ATOM
M  V30 1 O 0.078456 -6.398091 2.150146 0
M  V30 2 C 0.343528 -5.204386 1.972869 0
M  V30 3 N 1.271608 -4.485351 2.760766 0
M  V30 4 C 1.285530 -3.161955 2.242175 0
M  V30 5 C 1.992023 -2.019832 2.603245 0
M  V30 6 C 1.873726 -0.798630 1.973309 0
M  V30 7 C 0.988417 -0.736313 0.918544 0
M  V30 8 C 0.743480 0.499309 0.136564 0
M  V30 9 O -0.054735 0.572772 -0.848320 0
M  V30 10 N 1.396367 1.734807 0.430314 0
M  V30 11 C 1.110041 2.909370 -0.378151 0 CFG=2
M  V30 12 C 2.347768 3.527960 -0.982033 0
M  V30 13 O 2.039388 4.666465 -1.763808 0
M  V30 14 C 0.541048 3.914473 0.593649 0
M  V30 15 C 1.137131 4.142638 1.814486 0
M  V30 16 C 0.609933 5.073617 2.717153 0
M  V30 17 C -0.538473 5.783149 2.376111 0
M  V30 18 C -1.144581 5.558316 1.146869 0
M  V30 19 C -0.603174 4.630517 0.269488 0
M  V30 20 C 0.248226 -1.830739 0.499206 0
M  V30 21 C 0.418455 -3.024863 1.178819 0
M  V30 22 C -0.207816 -4.330053 0.977828 0
M  V30 23 C -1.100286 -4.702279 0.075806 0
M  V30 24 C -1.704126 -6.008029 -0.122229 0
M  V30 25 N -3.064692 -6.014828 -0.270170 0
M  V30 26 C -3.520174 -7.258389 -0.466870 0
M  V30 27 C -2.438487 -8.083510 -0.447647 0
M  V30 28 N -1.379831 -7.305082 -0.241424 0
M  V30 29 H 1.824717 -4.870195 3.558775 0
M  V30 30 H 2.693429 -2.053418 3.433424 0
M  V30 31 H 2.417586 0.074875 2.253935 0
M  V30 32 H 2.070317 1.791042 1.214224 0
M  V30 33 H 0.400757 2.706560 -1.180746 0
M  V30 34 H 2.989184 3.958427 -0.157181 0
M  V30 35 H 2.958990 2.826163 -1.560369 0
M  V30 36 H 1.051023 4.779140 -1.855347 0
M  V30 37 H 2.030547 3.615046 2.117396 0
M  V30 38 H 1.094856 5.238893 3.673168 0
M  V30 39 H -0.962809 6.515848 3.075742 0
M  V30 40 H -2.035638 6.135694 0.933946 0
M  V30 41 H -1.109914 4.495920 -0.662219 0
M  V30 42 H -0.453176 -1.815509 -0.323820 0
M  V30 43 H -1.383192 -3.864865 -0.588932 0
M  V30 44 H -4.568747 -7.523073 -0.611960 0
M  V30 45 H -2.423560 -9.138088 -0.570517 0
M  V30 46 H -0.374825 -7.569990 -0.178316 0
M  V30 END ATOM
M  V30 BEGIN BOND
M  V30 1 2 1 2
M  V30 2 1 2 3
M  V30 3 1 3 4
M  V30 4 2 4 5
M  V30 5 1 5 6
M  V30 6 2 6 7
M  V30 7 1 7 8
M  V30 8 2 8 9
M  V30 9 1 8 10
M  V30 10 1 10 11
M  V30 11 1 11 12
M  V30 12 1 12 13
M  V30 13 1 11 14
M  V30 14 2 14 15
M  V30 15 1 15 16
M  V30 16 2 16 17
M  V30 17 1 17 18
M  V30 18 2 18 19
M  V30 19 1 7 20
M  V30 20 2 20 21
M  V30 21 1 21 22
M  V30 22 2 22 23
M  V30 23 1 23 24
M  V30 24 2 24 25
M  V30 25 1 25 26
M  V30 26 2 26 27
M  V30 27 1 27 28
M  V30 28 1 22 2
M  V30 29 1 28 24
M  V30 30 1 21 4
M  V30 31 1 19 14
M  V30 32 1 3 29
M  V30 33 1 5 30
M  V30 34 1 6 31
M  V30 35 1 10 32
M  V30 36 1 11 33 CFG=3
M  V30 37 1 12 34
M  V30 38 1 12 35
M  V30 39 1 13 36
M  V30 40 1 15 37
M  V30 41 1 16 38
M  V30 42 1 17 39
M  V30 43 1 18 40
M  V30 44 1 19 41
M  V30 45 1 20 42
M  V30 46 1 23 43
M  V30 47 1 26 44
M  V30 48 1 27 45
M  V30 49 1 28 46
M  V30 END BOND
M  V30 END CTAB
M  END
>  <Dataset>  (872) 
ChEMBL_Kinases

>  <Ligand_Instance>  (872) 
nan

>  <PDB_ID>  (872) 
nan

>  <Standardized_SMILES>  (872) 
O=C1Nc2ccc(C(=O)N[C@H](CO)c3ccccc3)cc2/C1=C/c1ncc[nH]1

>  <Name>  (872) 
nan

>  <Pocket>  (872) 
nan

>  <ATP_Site>  (872) 
nan

>  <Peripheral>  (872) 
nan

>  <Num_H_Atoms_ProtBoundConf>  (872) 
nan

>  <Num_Resolved_Atoms>  (872) 
nan

>  <Num_Not_Resolved_Atoms>  (872) 
nan

$$$$
CHEMBL4096472
     RDKit          3D

  0  0  0  0  0  0  0  0  0  0999 V3000
M  V30 BEGIN CTAB
M  V30 COUNTS 50 53 0 0 0
M  V30 BEGIN ATOM
M  V30 1 C 0.087484 -3.991229 4.836006 0
M  V30 2 O 0.233760 -4.723448 3.655934 0
M  V30 3 C 0.508102 -4.064040 2.452309 0
M  V30 4 C 0.626206 -2.696035 2.469599 0
M  V30 5 C 0.893718 -2.087143 1.277281 0
M  V30 6 C 1.056022 -2.706515 0.063242 0
M  V30 7 C 1.325071 -2.200429 -1.278882 0
M  V30 8 C 1.132958 -0.731820 -1.429906 0
M  V30 9 N -0.298912 -0.392071 -1.481888 0
M  V30 10 C -0.761018 0.575846 -0.565347 0
M  V30 11 N 0.190313 1.314415 0.030836 0
M  V30 12 C -0.067997 2.272568 0.938110 0
M  V30 13 C 1.058931 3.029803 1.526737 0
M  V30 14 C 0.883322 4.026693 2.462149 0
M  V30 15 C 2.060548 4.644980 2.910667 0
M  V30 16 N 3.304575 4.334309 2.497904 0
M  V30 17 C 3.416639 3.341354 1.573217 0
M  V30 18 N 2.314714 2.725504 1.118712 0
M  V30 19 C -1.369577 2.533794 1.296868 0
M  V30 20 C -2.366126 1.793154 0.703847 0
M  V30 21 O -3.572522 1.984825 0.989917 0
M  V30 22 N -2.014885 0.857410 -0.191271 0
M  V30 23 C -3.086710 0.086736 -0.772253 0
M  V30 24 C -0.939311 -1.130658 -2.539986 0
M  V30 25 C -0.882382 -2.587934 -2.136304 0
M  V30 26 N 0.533599 -2.943866 -2.243086 0
M  V30 27 C 0.925028 -4.101853 0.107411 0
M  V30 28 C 0.652732 -4.802448 1.282097 0
M  V30 29 H 1.081851 -3.673035 5.242880 0
M  V30 30 H -0.561183 -3.092132 4.720787 0
M  V30 31 H -0.398451 -4.646500 5.598564 0
M  V30 32 H 0.526514 -2.065156 3.341496 0
M  V30 33 H 1.004556 -1.018253 1.219989 0
M  V30 34 H 2.385624 -2.435453 -1.536459 0
M  V30 35 H 1.636761 -0.139825 -0.674538 0
M  V30 36 H 1.522595 -0.392679 -2.417943 0
M  V30 37 H -0.091747 4.283404 2.798151 0
M  V30 38 H 1.937451 5.444177 3.658855 0
M  V30 39 H 4.332058 2.954547 1.123247 0
M  V30 40 H -1.640959 3.279069 2.008493 0
M  V30 41 H -2.871470 -0.981172 -0.780871 0
M  V30 42 H -4.021025 0.157777 -0.118511 0
M  V30 43 H -3.437031 0.531860 -1.724510 0
M  V30 44 H -0.255554 -1.062182 -3.444936 0
M  V30 45 H -1.899998 -0.774260 -2.883506 0
M  V30 46 H -1.172295 -2.744410 -1.077223 0
M  V30 47 H -1.446307 -3.265008 -2.774478 0
M  V30 48 H 0.851559 -2.740151 -3.223807 0
M  V30 49 H 1.021257 -4.751426 -0.752039 0
M  V30 50 H 0.553035 -5.872531 1.311705 0
M  V30 END ATOM
M  V30 BEGIN BOND
M  V30 1 1 1 2
M  V30 2 1 2 3
M  V30 3 2 3 4
M  V30 4 1 4 5
M  V30 5 2 5 6
M  V30 6 1 6 7
M  V30 7 1 7 8
M  V30 8 1 8 9
M  V30 9 1 9 10
M  V30 10 2 10 11
M  V30 11 1 11 12
M  V30 12 1 12 13
M  V30 13 2 13 14
M  V30 14 1 14 15
M  V30 15 2 15 16
M  V30 16 1 16 17
M  V30 17 2 17 18
M  V30 18 2 12 19
M  V30 19 1 19 20
M  V30 20 2 20 21
M  V30 21 1 20 22
M  V30 22 1 22 23
M  V30 23 1 9 24
M  V30 24 1 24 25
M  V30 25 1 25 26
M  V30 26 1 6 27
M  V30 27 2 27 28
M  V30 28 1 28 3
M  V30 29 1 26 7
M  V30 30 1 22 10
M  V30 31 1 18 13
M  V30 32 1 1 29
M  V30 33 1 1 30
M  V30 34 1 1 31
M  V30 35 1 4 32
M  V30 36 1 5 33
M  V30 37 1 7 34
M  V30 38 1 8 35
M  V30 39 1 8 36
M  V30 40 1 14 37
M  V30 41 1 15 38
M  V30 42 1 17 39
M  V30 43 1 19 40
M  V30 44 1 23 41
M  V30 45 1 23 42
M  V30 46 1 23 43
M  V30 47 1 24 44
M  V30 48 1 24 45
M  V30 49 1 25 46
M  V30 50 1 25 47
M  V30 51 1 26 48
M  V30 52 1 27 49
M  V30 53 1 28 50
M  V30 END BOND
M  V30 END CTAB
M  END
>  <Dataset>  (873) 
ChEMBL_Kinases

>  <Ligand_Instance>  (873) 
nan

>  <PDB_ID>  (873) 
nan

>  <Standardized_SMILES>  (873) 
COc1ccc(C2CN(c3nc(-c4ccncn4)cc(=O)n3C)CCN2)cc1

>  <Name>  (873) 
nan

>  <Pocket>  (873) 
nan

>  <ATP_Site>  (873) 
nan

>  <Peripheral>  (873) 
nan

>  <Num_H_Atoms_ProtBoundConf>  (873) 
nan

>  <Num_Resolved_Atoms>  (873) 
nan

>  <Num_Not_Resolved_Atoms>  (873) 
nan

$$$$
CHEMBL480940
     RDKit          3D

  0  0  0  0  0  0  0  0  0  0999 V3000
M  V30 BEGIN CTAB
M  V30 COUNTS 60 64 0 0 0
M  V30 BEGIN ATOM
M  V30 1 C 1.623860 -3.197534 4.532521 0
M  V30 2 O 2.762679 -2.830758 3.773453 0
M  V30 3 C 2.895283 -1.502467 3.378239 0
M  V30 4 C 4.028605 -1.219891 2.642531 0
M  V30 5 C 4.304890 0.059690 2.174252 0
M  V30 6 C 3.419558 1.102705 2.447343 0
M  V30 7 C 3.587000 2.506822 2.013382 0
M  V30 8 N 3.002231 2.803270 0.735830 0
M  V30 9 C 1.606801 2.632309 0.508169 0
M  V30 10 N 0.670657 3.594061 0.713062 0
M  V30 11 C -0.635092 3.368212 0.478121 0
M  V30 12 C -1.035858 2.132199 0.018369 0
M  V30 13 C -0.094008 1.147921 -0.193296 0
M  V30 14 C -0.368234 -0.220076 -0.681351 0
M  V30 15 N -0.115257 -1.332344 0.049203 0
M  V30 16 C -0.477603 -2.407299 -0.682333 0
M  V30 17 C -0.346223 -3.799815 -0.206166 0
M  V30 18 C -1.577104 -4.210436 0.491548 0
M  V30 19 C -1.846604 -4.073628 1.836914 0
M  V30 20 C -3.024640 -4.483465 2.416313 0
M  V30 21 C -4.009327 -5.070248 1.615958 0
M  V30 22 C -3.780531 -5.226046 0.265212 0
M  V30 23 C -4.757534 -5.825790 -0.621190 0
M  V30 24 N -5.535572 -6.317067 -1.339366 0
M  V30 25 C -2.586025 -4.801554 -0.275303 0
M  V30 26 N -0.956616 -1.984510 -1.866972 0
M  V30 27 C -0.903371 -0.639224 -1.899585 0
M  V30 28 C -1.269414 0.379327 -2.886591 0
M  V30 29 C -2.607699 0.446109 -3.270079 0
M  V30 30 C -2.959588 1.404984 -4.201102 0
M  V30 31 C -2.027385 2.287977 -4.753742 0
M  V30 32 F -2.462326 3.205199 -5.668015 0
M  V30 33 C -0.697846 2.191192 -4.345913 0
M  V30 34 C -0.312048 1.239500 -3.413004 0
M  V30 35 N 1.213037 1.424092 0.058527 0
M  V30 36 C 2.295079 0.795501 3.183707 0
M  V30 37 C 2.014220 -0.470476 3.651459 0
M  V30 38 H 0.741529 -3.011762 3.886865 0
M  V30 39 H 1.501828 -2.560024 5.437244 0
M  V30 40 H 1.697916 -4.249184 4.860615 0
M  V30 41 H 4.768755 -1.978232 2.387061 0
M  V30 42 H 5.182733 0.316226 1.595469 0
M  V30 43 H 3.243439 3.179437 2.816697 0
M  V30 44 H 4.694301 2.686660 1.903611 0
M  V30 45 H 3.492994 3.159667 -0.135379 0
M  V30 46 H -1.380173 4.134272 0.641358 0
M  V30 47 H -2.064492 1.858443 -0.198541 0
M  V30 48 H 0.296530 -1.337647 1.025516 0
M  V30 49 H 0.543899 -3.934116 0.452456 0
M  V30 50 H -0.191417 -4.463854 -1.083287 0
M  V30 51 H -1.070101 -3.617411 2.434014 0
M  V30 52 H -3.219189 -4.370467 3.462717 0
M  V30 53 H -4.960082 -5.418956 1.989180 0
M  V30 54 H -2.426665 -4.933253 -1.337779 0
M  V30 55 H -3.330325 -0.240110 -2.840147 0
M  V30 56 H -4.015099 1.460332 -4.506018 0
M  V30 57 H 0.030136 2.888790 -4.784623 0
M  V30 58 H 0.708284 1.173704 -3.107470 0
M  V30 59 H 1.532390 1.541291 3.455383 0
M  V30 60 H 1.141493 -0.737212 4.229821 0
M  V30 END ATOM
M  V30 BEGIN BOND
M  V30 1 1 1 2
M  V30 2 1 2 3
M  V30 3 2 3 4
M  V30 4 1 4 5
M  V30 5 2 5 6
M  V30 6 1 6 7
M  V30 7 1 7 8
M  V30 8 1 8 9
M  V30 9 2 9 10
M  V30 10 1 10 11
M  V30 11 2 11 12
M  V30 12 1 12 13
M  V30 13 1 13 14
M  V30 14 1 14 15
M  V30 15 1 15 16
M  V30 16 1 16 17
M  V30 17 1 17 18
M  V30 18 2 18 19
M  V30 19 1 19 20
M  V30 20 2 20 21
M  V30 21 1 21 22
M  V30 22 1 22 23
M  V30 23 3 23 24
M  V30 24 2 22 25
M  V30 25 2 16 26
M  V30 26 1 26 27
M  V30 27 1 27 28
M  V30 28 2 28 29
M  V30 29 1 29 30
M  V30 30 2 30 31
M  V30 31 1 31 32
M  V30 32 1 31 33
M  V30 33 2 33 34
M  V30 34 2 13 35
M  V30 35 1 6 36
M  V30 36 2 36 37
M  V30 37 1 37 3
M  V30 38 1 35 9
M  V30 39 2 27 14
M  V30 40 1 34 28
M  V30 41 1 25 18
M  V30 42 1 1 38
M  V30 43 1 1 39
M  V30 44 1 1 40
M  V30 45 1 4 41
M  V30 46 1 5 42
M  V30 47 1 7 43
M  V30 48 1 7 44
M  V30 49 1 8 45
M  V30 50 1 11 46
M  V30 51 1 12 47
M  V30 52 1 15 48
M  V30 53 1 17 49
M  V30 54 1 17 50
M  V30 55 1 19 51
M  V30 56 1 20 52
M  V30 57 1 21 53
M  V30 58 1 25 54
M  V30 59 1 29 55
M  V30 60 1 30 56
M  V30 61 1 33 57
M  V30 62 1 34 58
M  V30 63 1 36 59
M  V30 64 1 37 60
M  V30 END BOND
M  V30 END CTAB
M  END
>  <Dataset>  (874) 
ChEMBL_Kinases

>  <Ligand_Instance>  (874) 
nan

>  <PDB_ID>  (874) 
nan

>  <Standardized_SMILES>  (874) 
COc1ccc(CNc2nccc(-c3[nH]c(Cc4cccc(C#N)c4)nc3-c3ccc(F)cc3)n2)cc1

>  <Name>  (874) 
nan

>  <Pocket>  (874) 
nan

>  <ATP_Site>  (874) 
nan

>  <Peripheral>  (874) 
nan

>  <Num_H_Atoms_ProtBoundConf>  (874) 
nan

>  <Num_Resolved_Atoms>  (874) 
nan

>  <Num_Not_Resolved_Atoms>  (874) 
nan

$$$$
CHEMBL4096368
     RDKit          3D

  0  0  0  0  0  0  0  0  0  0999 V3000
M  V30 BEGIN CTAB
M  V30 COUNTS 45 47 0 0 0
M  V30 BEGIN ATOM
M  V30 1 C -1.874957 -2.802644 1.764122 0
M  V30 2 N -2.323501 -4.051358 1.216271 0
M  V30 3 C -1.813676 -4.490372 -0.021863 0
M  V30 4 C -0.888551 -3.769303 -0.748862 0
M  V30 5 C -0.359191 -4.164650 -1.973879 0
M  V30 6 O 0.560826 -3.320591 -2.569737 0
M  V30 7 C 0.967358 -2.121534 -2.005770 0
M  V30 8 C 0.225697 -1.004101 -2.344855 0
M  V30 9 C 0.589001 0.220125 -1.808994 0
M  V30 10 C 1.679757 0.258786 -0.959234 0
M  V30 11 N 1.958223 1.589930 -0.466497 0
M  V30 12 C 1.283921 1.905331 0.745838 0
M  V30 13 O 0.527513 1.046448 1.281448 0
M  V30 14 N 1.366002 3.134514 1.459913 0
M  V30 15 C 0.606908 3.279961 2.682198 0
M  V30 16 C 1.275448 2.889369 3.846204 0
M  V30 17 C 0.629144 2.992469 5.063999 0
M  V30 18 C -0.661029 3.472965 5.150345 0
M  V30 19 Cl -1.480743 3.602400 6.706266 0
M  V30 20 C -1.306405 3.854649 3.987176 0
M  V30 21 C -0.684567 3.763327 2.748261 0
M  V30 22 C 2.413215 -0.868416 -0.628520 0
M  V30 23 C 3.562495 -0.673643 0.298965 0
M  V30 24 C 2.060265 -2.094297 -1.156736 0
M  V30 25 N -0.788715 -5.348067 -2.486112 0
M  V30 26 C -1.703891 -6.068723 -1.774283 0
M  V30 27 N -2.201398 -5.661709 -0.587477 0
M  V30 28 H -0.813012 -2.904203 2.062345 0
M  V30 29 H -2.424792 -2.511204 2.680937 0
M  V30 30 H -1.914356 -2.017185 0.980790 0
M  V30 31 H -3.020892 -4.658456 1.700682 0
M  V30 32 H -0.566912 -2.833226 -0.315325 0
M  V30 33 H -0.616897 -1.076006 -3.010067 0
M  V30 34 H -0.000366 1.082974 -2.083698 0
M  V30 35 H 2.557352 2.365981 -0.825698 0
M  V30 36 H 1.996233 3.876706 1.031697 0
M  V30 37 H 2.289925 2.509526 3.795535 0
M  V30 38 H 1.149072 2.688528 5.970687 0
M  V30 39 H -2.327768 4.237203 4.037061 0
M  V30 40 H -1.156283 4.051749 1.817464 0
M  V30 41 H 3.176693 -0.443845 1.314162 0
M  V30 42 H 4.208403 -1.564247 0.244840 0
M  V30 43 H 4.108692 0.223616 -0.055500 0
M  V30 44 H 2.631830 -2.962396 -0.896869 0
M  V30 45 H -2.067237 -7.009386 -2.147084 0
M  V30 END ATOM
M  V30 BEGIN BOND
M  V30 1 1 1 2
M  V30 2 1 2 3
M  V30 3 2 3 4
M  V30 4 1 4 5
M  V30 5 1 5 6
M  V30 6 1 6 7
M  V30 7 2 7 8
M  V30 8 1 8 9
M  V30 9 2 9 10
M  V30 10 1 10 11
M  V30 11 1 11 12
M  V30 12 2 12 13
M  V30 13 1 12 14
M  V30 14 1 14 15
M  V30 15 2 15 16
M  V30 16 1 16 17
M  V30 17 2 17 18
M  V30 18 1 18 19
M  V30 19 1 18 20
M  V30 20 2 20 21
M  V30 21 1 10 22
M  V30 22 1 22 23
M  V30 23 2 22 24
M  V30 24 2 5 25
M  V30 25 1 25 26
M  V30 26 2 26 27
M  V30 27 1 27 3
M  V30 28 1 24 7
M  V30 29 1 21 15
M  V30 30 1 1 28
M  V30 31 1 1 29
M  V30 32 1 1 30
M  V30 33 1 2 31
M  V30 34 1 4 32
M  V30 35 1 8 33
M  V30 36 1 9 34
M  V30 37 1 11 35
M  V30 38 1 14 36
M  V30 39 1 16 37
M  V30 40 1 17 38
M  V30 41 1 20 39
M  V30 42 1 21 40
M  V30 43 1 23 41
M  V30 44 1 23 42
M  V30 45 1 23 43
M  V30 46 1 24 44
M  V30 47 1 26 45
M  V30 END BOND
M  V30 END CTAB
M  END
>  <Dataset>  (875) 
ChEMBL_Kinases

>  <Ligand_Instance>  (875) 
nan

>  <PDB_ID>  (875) 
nan

>  <Standardized_SMILES>  (875) 
CNc1cc(Oc2ccc(NC(=O)Nc3ccc(Cl)cc3)c(C)c2)ncn1

>  <Name>  (875) 
nan

>  <Pocket>  (875) 
nan

>  <ATP_Site>  (875) 
nan

>  <Peripheral>  (875) 
nan

>  <Num_H_Atoms_ProtBoundConf>  (875) 
nan

>  <Num_Resolved_Atoms>  (875) 
nan

>  <Num_Not_Resolved_Atoms>  (875) 
nan

$$$$
CHEMBL4096361
     RDKit          3D

  0  0  0  0  0  0  0  0  0  0999 V3000
M  V30 BEGIN CTAB
M  V30 COUNTS 53 57 0 0 0
M  V30 BEGIN ATOM
M  V30 1 F 4.603506 -0.967931 4.676862 0
M  V30 2 C 5.482640 -1.158453 3.642262 0
M  V30 3 C 6.703748 -1.729208 3.892347 0
M  V30 4 C 7.567364 -1.909562 2.838369 0
M  V30 5 C 7.205539 -1.523113 1.566420 0
M  V30 6 Cl 8.321827 -1.761068 0.231115 0
M  V30 7 C 5.957601 -0.950872 1.371811 0
M  V30 8 C 5.053533 -0.744419 2.377862 0
M  V30 9 C 3.743778 -0.152056 2.219254 0
M  V30 10 C 3.296325 0.261900 1.001518 0
M  V30 11 C 2.040687 0.822286 0.891064 0
M  V30 12 N 1.563559 1.258114 -0.376126 0
M  V30 13 C 0.312602 1.851872 -0.702086 0
M  V30 14 C 0.232632 3.121486 -1.266559 0
M  V30 15 C -1.032364 3.642542 -1.561296 0
M  V30 16 N -2.152175 2.936303 -1.306890 0
M  V30 17 C -2.063525 1.720386 -0.765670 0
M  V30 18 C -3.091509 0.854252 -0.436046 0
M  V30 19 N -2.475145 -0.243349 0.079907 0
M  V30 20 C -3.071248 -1.460833 0.586865 0
M  V30 21 C -3.244857 -2.509053 -0.482020 0
M  V30 22 C -4.116345 -2.078848 -1.609578 0
M  V30 23 C -5.595008 -2.121012 -1.314271 0
M  V30 24 N -5.959567 -2.570860 -0.033411 0
M  V30 25 C -5.239713 -3.645526 0.532989 0
M  V30 26 C -3.808582 -3.747239 0.132178 0
M  V30 27 N -1.164086 -0.056911 0.064736 0
M  V30 28 C -0.844632 1.126517 -0.441171 0
M  V30 29 C 1.251053 0.957973 2.013644 0
M  V30 30 C 1.710364 0.539905 3.225923 0
M  V30 31 N 2.942695 0.002909 3.262897 0
M  V30 32 H 6.971003 -2.029165 4.911593 0
M  V30 33 H 8.528983 -2.364214 3.063730 0
M  V30 34 H 5.700889 -0.660454 0.380414 0
M  V30 35 H 3.867399 0.180445 0.097904 0
M  V30 36 H 2.165521 1.155947 -1.221308 0
M  V30 37 H 1.141625 3.666709 -1.460700 0
M  V30 38 H -1.046224 4.633415 -1.999340 0
M  V30 39 H -4.167563 0.901368 -0.511912 0
M  V30 40 H -2.428709 -1.913464 1.371365 0
M  V30 41 H -4.016338 -1.178694 1.062070 0
M  V30 42 H -2.247549 -2.738518 -0.898091 0
M  V30 43 H -3.827980 -1.066055 -2.017475 0
M  V30 44 H -3.932909 -2.778132 -2.458462 0
M  V30 45 H -6.022540 -1.088615 -1.456276 0
M  V30 46 H -6.152656 -2.733299 -2.063122 0
M  V30 47 H -6.557239 -2.001251 0.557223 0
M  V30 48 H -5.777746 -4.599876 0.287480 0
M  V30 49 H -5.254904 -3.572709 1.656155 0
M  V30 50 H -3.124516 -4.063602 0.973004 0
M  V30 51 H -3.717491 -4.558129 -0.646615 0
M  V30 52 H 0.258927 1.388792 1.993100 0
M  V30 53 H 1.095384 0.639385 4.133967 0
M  V30 END ATOM
M  V30 BEGIN BOND
M  V30 1 1 1 2
M  V30 2 2 2 3
M  V30 3 1 3 4
M  V30 4 2 4 5
M  V30 5 1 5 6
M  V30 6 1 5 7
M  V30 7 2 7 8
M  V30 8 1 8 9
M  V30 9 2 9 10
M  V30 10 1 10 11
M  V30 11 1 11 12
M  V30 12 1 12 13
M  V30 13 2 13 14
M  V30 14 1 14 15
M  V30 15 2 15 16
M  V30 16 1 16 17
M  V30 17 2 17 18
M  V30 18 1 18 19
M  V30 19 1 19 20
M  V30 20 1 20 21
M  V30 21 1 21 22
M  V30 22 1 22 23
M  V30 23 1 23 24
M  V30 24 1 24 25
M  V30 25 1 25 26
M  V30 26 1 19 27
M  V30 27 2 27 28
M  V30 28 2 11 29
M  V30 29 1 29 30
M  V30 30 2 30 31
M  V30 31 1 8 2
M  V30 32 1 31 9
M  V30 33 1 28 13
M  V30 34 1 28 17
M  V30 35 1 26 21
M  V30 36 1 3 32
M  V30 37 1 4 33
M  V30 38 1 7 34
M  V30 39 1 10 35
M  V30 40 1 12 36
M  V30 41 1 14 37
M  V30 42 1 15 38
M  V30 43 1 18 39
M  V30 44 1 20 40
M  V30 45 1 20 41
M  V30 46 1 21 42
M  V30 47 1 22 43
M  V30 48 1 22 44
M  V30 49 1 23 45
M  V30 50 1 23 46
M  V30 51 1 24 47
M  V30 52 1 25 48
M  V30 53 1 25 49
M  V30 54 1 26 50
M  V30 55 1 26 51
M  V30 56 1 29 52
M  V30 57 1 30 53
M  V30 END BOND
M  V30 END CTAB
M  END
>  <Dataset>  (876) 
ChEMBL_Kinases

>  <Ligand_Instance>  (876) 
nan

>  <PDB_ID>  (876) 
nan

>  <Standardized_SMILES>  (876) 
Fc1ccc(Cl)cc1-c1cc(Nc2ccnc3cn(CC4CCNCC4)nc23)ccn1

>  <Name>  (876) 
nan

>  <Pocket>  (876) 
nan

>  <ATP_Site>  (876) 
nan

>  <Peripheral>  (876) 
nan

>  <Num_H_Atoms_ProtBoundConf>  (876) 
nan

>  <Num_Resolved_Atoms>  (876) 
nan

>  <Num_Not_Resolved_Atoms>  (876) 
nan

$$$$
CHEMBL4096333
     RDKit          3D

  0  0  0  0  0  0  0  0  0  0999 V3000
M  V30 BEGIN CTAB
M  V30 COUNTS 46 49 0 0 0
M  V30 BEGIN ATOM
M  V30 1 C 2.006911 -5.042516 3.107647 0
M  V30 2 C 0.722696 -4.589709 2.512501 0
M  V30 3 C 0.186878 -3.329908 2.555651 0
M  V30 4 C -1.004141 -3.295200 1.887730 0
M  V30 5 N -2.054111 -2.409542 1.543098 0
M  V30 6 C -1.672696 -1.395228 0.592054 0
M  V30 7 N -0.385018 -1.266935 0.277596 0
M  V30 8 C 0.019398 -0.325988 -0.633585 0
M  V30 9 C 1.484983 -0.378534 -0.783080 0
M  V30 10 O 2.106446 -1.384762 -1.158008 0
M  V30 11 N 1.939350 0.931426 -0.409667 0
M  V30 12 C 1.301976 2.143137 0.019215 0
M  V30 13 C 2.229190 3.007344 0.809509 0
M  V30 14 C 3.017275 2.174950 1.779930 0
M  V30 15 O 2.096462 1.438980 2.524699 0
M  V30 16 C 3.912981 1.227105 0.994582 0
M  V30 17 C 3.392389 1.128274 -0.452137 0
M  V30 18 N -0.904071 0.476147 -1.215021 0
M  V30 19 C -2.211146 0.369427 -0.919509 0
M  V30 20 C -3.059654 1.234342 -1.574604 0
M  V30 21 C -4.414635 1.092438 -1.242488 0
M  V30 22 C -4.840908 0.158606 -0.333330 0
M  V30 23 Cl -6.535102 0.030641 0.033486 0
M  V30 24 C -3.946334 -0.704333 0.313110 0
M  V30 25 C -2.618919 -0.571608 -0.006418 0
M  V30 26 N -1.177765 -4.574638 1.433344 0
M  V30 27 N -0.169355 -5.332963 1.798265 0
M  V30 28 H 2.198600 -6.111933 2.858118 0
M  V30 29 H 1.997912 -4.983910 4.226631 0
M  V30 30 H 2.795814 -4.374506 2.753328 0
M  V30 31 H 0.545630 -2.425821 3.002319 0
M  V30 32 H -2.957487 -2.588313 2.011208 0
M  V30 33 H 0.859415 2.688146 -0.847008 0
M  V30 34 H 0.454408 1.872717 0.704200 0
M  V30 35 H 1.608969 3.754946 1.353722 0
M  V30 36 H 2.934922 3.544039 0.135614 0
M  V30 37 H 3.665789 2.826595 2.420752 0
M  V30 38 H 1.254789 1.920741 2.692721 0
M  V30 39 H 3.827873 0.240438 1.465744 0
M  V30 40 H 4.932466 1.599149 0.933405 0
M  V30 41 H 3.883353 0.251914 -0.895522 0
M  V30 42 H 3.631034 2.021834 -1.033377 0
M  V30 43 H -2.771123 1.985504 -2.294316 0
M  V30 44 H -5.136864 1.724576 -1.709299 0
M  V30 45 H -4.279056 -1.441269 1.028453 0
M  V30 46 H 0.018773 -6.362271 1.626639 0
M  V30 END ATOM
M  V30 BEGIN BOND
M  V30 1 1 1 2
M  V30 2 2 2 3
M  V30 3 1 3 4
M  V30 4 1 4 5
M  V30 5 1 5 6
M  V30 6 2 6 7
M  V30 7 1 7 8
M  V30 8 1 8 9
M  V30 9 2 9 10
M  V30 10 1 9 11
M  V30 11 1 11 12
M  V30 12 1 12 13
M  V30 13 1 13 14
M  V30 14 1 14 15
M  V30 15 1 14 16
M  V30 16 1 16 17
M  V30 17 2 8 18
M  V30 18 1 18 19
M  V30 19 2 19 20
M  V30 20 1 20 21
M  V30 21 2 21 22
M  V30 22 1 22 23
M  V30 23 1 22 24
M  V30 24 2 24 25
M  V30 25 2 4 26
M  V30 26 1 26 27
M  V30 27 1 27 2
M  V30 28 1 25 6
M  V30 29 1 17 11
M  V30 30 1 25 19
M  V30 31 1 1 28
M  V30 32 1 1 29
M  V30 33 1 1 30
M  V30 34 1 3 31
M  V30 35 1 5 32
M  V30 36 1 12 33
M  V30 37 1 12 34
M  V30 38 1 13 35
M  V30 39 1 13 36
M  V30 40 1 14 37
M  V30 41 1 15 38
M  V30 42 1 16 39
M  V30 43 1 16 40
M  V30 44 1 17 41
M  V30 45 1 17 42
M  V30 46 1 20 43
M  V30 47 1 21 44
M  V30 48 1 24 45
M  V30 49 1 27 46
M  V30 END BOND
M  V30 END CTAB
M  END
>  <Dataset>  (877) 
ChEMBL_Kinases

>  <Ligand_Instance>  (877) 
nan

>  <PDB_ID>  (877) 
nan

>  <Standardized_SMILES>  (877) 
Cc1cc(Nc2nc(C(=O)N3CCC(O)CC3)nc3ccc(Cl)cc23)n[nH]1

>  <Name>  (877) 
nan

>  <Pocket>  (877) 
nan

>  <ATP_Site>  (877) 
nan

>  <Peripheral>  (877) 
nan

>  <Num_H_Atoms_ProtBoundConf>  (877) 
nan

>  <Num_Resolved_Atoms>  (877) 
nan

>  <Num_Not_Resolved_Atoms>  (877) 
nan

$$$$
CHEMBL4096327
     RDKit          3D

  0  0  0  0  0  0  0  0  0  0999 V3000
M  V30 BEGIN CTAB
M  V30 COUNTS 34 36 0 0 0
M  V30 BEGIN ATOM
M  V30 1 N 0.551852 1.134205 3.205337 0
M  V30 2 C 1.273793 0.453883 2.615978 0
M  V30 3 C 2.176652 -0.381283 1.911175 0
M  V30 4 C 3.521516 -0.451945 2.292795 0
M  V30 5 N 4.156827 -1.323364 1.490544 0
M  V30 6 C 3.207161 -1.761003 0.649257 0
M  V30 7 N 3.268535 -2.645750 -0.344069 0
M  V30 8 C 2.256156 -3.007222 -1.097763 0
M  V30 9 N 2.353617 -3.954431 -2.149245 0
M  V30 10 N 1.077860 -2.454228 -0.860441 0
M  V30 11 C 0.856332 -1.549345 0.100831 0
M  V30 12 N -0.409417 -0.965896 0.350555 0
M  V30 13 C -1.508877 -0.207681 0.819505 0 CFG=2
M  V30 14 C -2.899495 -0.799333 0.555102 0
M  V30 15 C -3.795804 0.394949 0.745164 0
M  V30 16 C -2.928533 1.623227 0.558460 0 CFG=1
M  V30 17 O -2.820631 2.399116 1.697409 0
M  V30 18 C -1.601127 1.136661 0.081368 0 CFG=1
M  V30 19 O -0.595012 1.959714 0.476620 0
M  V30 20 C 1.961865 -1.223379 0.847758 0
M  V30 21 H 4.046847 0.067295 3.082964 0
M  V30 22 H 5.152382 -1.635976 1.467986 0
M  V30 23 H 1.514066 -4.409741 -2.565343 0
M  V30 24 H 3.295022 -4.173281 -2.484794 0
M  V30 25 H -1.032837 -1.413358 -0.319917 0
M  V30 26 H -1.502979 0.003783 1.898109 0
M  V30 27 H -3.181898 -1.558092 1.305277 0
M  V30 28 H -2.976865 -1.242921 -0.447130 0
M  V30 29 H -4.196140 0.452974 1.793499 0
M  V30 30 H -4.669692 0.388677 0.081771 0
M  V30 31 H -3.401851 2.240698 -0.228294 0
M  V30 32 H -1.864449 2.714702 1.768092 0
M  V30 33 H -1.582306 0.916569 -1.010627 0
M  V30 34 H 0.295824 1.728291 0.170306 0
M  V30 END ATOM
M  V30 BEGIN BOND
M  V30 1 3 1 2
M  V30 2 1 2 3
M  V30 3 2 3 4
M  V30 4 1 4 5
M  V30 5 1 5 6
M  V30 6 2 6 7
M  V30 7 1 7 8
M  V30 8 1 8 9
M  V30 9 2 8 10
M  V30 10 1 10 11
M  V30 11 1 11 12
M  V30 12 1 12 13
M  V30 13 1 13 14
M  V30 14 1 14 15
M  V30 15 1 15 16
M  V30 16 1 16 17
M  V30 17 1 16 18
M  V30 18 1 18 19
M  V30 19 2 11 20
M  V30 20 1 20 3
M  V30 21 1 20 6
M  V30 22 1 18 13
M  V30 23 1 4 21
M  V30 24 1 5 22
M  V30 25 1 9 23
M  V30 26 1 9 24
M  V30 27 1 12 25
M  V30 28 1 13 26 CFG=1
M  V30 29 1 14 27
M  V30 30 1 14 28
M  V30 31 1 15 29
M  V30 32 1 15 30
M  V30 33 1 16 31 CFG=3
M  V30 34 1 17 32
M  V30 35 1 18 33 CFG=3
M  V30 36 1 19 34
M  V30 END BOND
M  V30 END CTAB
M  END
>  <Dataset>  (878) 
ChEMBL_Kinases

>  <Ligand_Instance>  (878) 
nan

>  <PDB_ID>  (878) 
nan

>  <Standardized_SMILES>  (878) 
N#Cc1c[nH]c2nc(N)nc(N[C@@H]3CC[C@@H](O)[C@H]3O)c12

>  <Name>  (878) 
nan

>  <Pocket>  (878) 
nan

>  <ATP_Site>  (878) 
nan

>  <Peripheral>  (878) 
nan

>  <Num_H_Atoms_ProtBoundConf>  (878) 
nan

>  <Num_Resolved_Atoms>  (878) 
nan

>  <Num_Not_Resolved_Atoms>  (878) 
nan

$$$$
CHEMBL480944
     RDKit          3D

  0  0  0  0  0  0  0  0  0  0999 V3000
M  V30 BEGIN CTAB
M  V30 COUNTS 48 51 0 0 0
M  V30 BEGIN ATOM
M  V30 1 C -1.268626 -0.279107 3.706519 0
M  V30 2 O -0.087192 -1.009738 3.977063 0
M  V30 3 C 0.849803 -1.155519 2.961780 0
M  V30 4 N 1.980878 -1.849666 3.206403 0
M  V30 5 C 2.932932 -2.032486 2.274389 0
M  V30 6 C 2.776951 -1.502283 1.008825 0
M  V30 7 C 1.622345 -0.789455 0.745871 0
M  V30 8 C 1.172162 -0.117370 -0.471443 0
M  V30 9 C 1.381449 1.202287 -0.799261 0
M  V30 10 C 2.087686 2.220637 -0.029432 0
M  V30 11 C 3.437104 2.030668 0.230068 0
M  V30 12 C 4.172003 2.955920 0.953792 0
M  V30 13 C 3.547792 4.099967 1.431580 0
M  V30 14 F 4.187912 5.055650 2.146630 0
M  V30 15 C 2.209691 4.296757 1.179003 0
M  V30 16 C 1.481789 3.370394 0.456599 0
M  V30 17 N 0.785107 1.343356 -1.997084 0
M  V30 18 C 0.239643 0.172215 -2.382431 0
M  V30 19 N 0.477301 -0.768696 -1.421754 0
M  V30 20 C 0.010003 -2.119722 -1.568669 0
M  V30 21 C -1.342483 -2.337368 -1.004604 0
M  V30 22 C -2.419050 -2.092188 -1.834801 0
M  V30 23 C -3.732172 -2.255118 -1.445578 0
M  V30 24 C -3.996356 -2.686988 -0.156103 0
M  V30 25 C -2.940849 -2.942116 0.702443 0
M  V30 26 C -3.075819 -3.398494 2.074299 0
M  V30 27 N -4.412446 -3.562160 2.530233 0
M  V30 28 O -2.157306 -3.661457 2.892551 0
M  V30 29 C -1.624879 -2.763765 0.266927 0
M  V30 30 N 0.700955 -0.646494 1.744887 0
M  V30 31 H -2.030785 -0.945091 3.264474 0
M  V30 32 H -1.076747 0.498583 2.910618 0
M  V30 33 H -1.643503 0.278599 4.585145 0
M  V30 34 H 3.859105 -2.575681 2.404453 0
M  V30 35 H 3.420234 -1.542055 0.143106 0
M  V30 36 H 3.976981 1.154266 -0.119243 0
M  V30 37 H 5.217306 2.801724 1.150726 0
M  V30 38 H 1.631164 5.157450 1.508823 0
M  V30 39 H 0.420551 3.455407 0.216207 0
M  V30 40 H -0.281072 0.119208 -3.332819 0
M  V30 41 H 0.730478 -2.815598 -1.045210 0
M  V30 42 H -0.022035 -2.406928 -2.646928 0
M  V30 43 H -2.347133 -1.749669 -2.869824 0
M  V30 44 H -4.587634 -2.068416 -2.080379 0
M  V30 45 H -5.008725 -2.842133 0.232922 0
M  V30 46 H -4.793421 -3.758619 3.487226 0
M  V30 47 H -4.947230 -3.748310 3.383475 0
M  V30 48 H -0.769839 -2.957610 0.923254 0
M  V30 END ATOM
M  V30 BEGIN BOND
M  V30 1 1 1 2
M  V30 2 1 2 3
M  V30 3 2 3 4
M  V30 4 1 4 5
M  V30 5 2 5 6
M  V30 6 1 6 7
M  V30 7 1 7 8
M  V30 8 2 8 9
M  V30 9 1 9 10
M  V30 10 2 10 11
M  V30 11 1 11 12
M  V30 12 2 12 13
M  V30 13 1 13 14
M  V30 14 1 13 15
M  V30 15 2 15 16
M  V30 16 1 9 17
M  V30 17 2 17 18
M  V30 18 1 18 19
M  V30 19 1 19 20
M  V30 20 1 20 21
M  V30 21 2 21 22
M  V30 22 1 22 23
M  V30 23 2 23 24
M  V30 24 1 24 25
M  V30 25 1 25 26
M  V30 26 1 26 27
M  V30 27 2 26 28
M  V30 28 2 25 29
M  V30 29 2 7 30
M  V30 30 1 30 3
M  V30 31 1 19 8
M  V30 32 1 29 21
M  V30 33 1 16 10
M  V30 34 1 1 31
M  V30 35 1 1 32
M  V30 36 1 1 33
M  V30 37 1 5 34
M  V30 38 1 6 35
M  V30 39 1 11 36
M  V30 40 1 12 37
M  V30 41 1 15 38
M  V30 42 1 16 39
M  V30 43 1 18 40
M  V30 44 1 20 41
M  V30 45 1 20 42
M  V30 46 1 22 43
M  V30 47 1 23 44
M  V30 48 1 24 45
M  V30 49 1 27 46
M  V30 50 1 27 47
M  V30 51 1 29 48
M  V30 END BOND
M  V30 END CTAB
M  END
>  <Dataset>  (879) 
ChEMBL_Kinases

>  <Ligand_Instance>  (879) 
nan

>  <PDB_ID>  (879) 
nan

>  <Standardized_SMILES>  (879) 
COc1nccc(-c2c(-c3ccc(F)cc3)ncn2Cc2cccc(C(N)=O)c2)n1

>  <Name>  (879) 
nan

>  <Pocket>  (879) 
nan

>  <ATP_Site>  (879) 
nan

>  <Peripheral>  (879) 
nan

>  <Num_H_Atoms_ProtBoundConf>  (879) 
nan

>  <Num_Resolved_Atoms>  (879) 
nan

>  <Num_Not_Resolved_Atoms>  (879) 
nan

$$$$
CHEMBL4096175
     RDKit          3D

  0  0  0  0  0  0  0  0  0  0999 V3000
M  V30 BEGIN CTAB
M  V30 COUNTS 28 31 0 0 0
M  V30 BEGIN ATOM
M  V30 1 O -0.429345 -2.738558 4.512637 0
M  V30 2 C 0.501760 -2.237782 3.829923 0
M  V30 3 N 1.817426 -1.822964 4.239275 0
M  V30 4 C 2.528362 -1.316210 3.134204 0
M  V30 5 S 4.047745 -0.740297 3.152334 0
M  V30 6 N 1.696312 -1.384450 1.964424 0
M  V30 7 C 1.880076 -1.020635 0.586066 0
M  V30 8 O 2.700571 -0.079008 0.366596 0
M  V30 9 C 1.083373 -1.797550 -0.395187 0
M  V30 10 N 0.923897 -1.041937 -1.647002 0
M  V30 11 C 0.097420 0.071184 -1.255933 0
M  V30 12 C -0.042447 1.385691 -1.715025 0
M  V30 13 C -0.963377 2.235782 -1.097253 0
M  V30 14 Cl -1.149429 3.880084 -1.659324 0
M  V30 15 C -1.741526 1.797889 -0.035971 0
M  V30 16 C -1.609573 0.496991 0.425484 0
M  V30 17 Cl -2.574531 -0.111761 1.772194 0
M  V30 18 C -0.697115 -0.350832 -0.184015 0
M  V30 19 C -0.358539 -1.772609 0.106259 0
M  V30 20 C -0.499105 -2.126581 1.515721 0
M  V30 21 C 0.463106 -1.946811 2.395162 0
M  V30 22 H 2.125605 -1.917720 5.235848 0
M  V30 23 H 1.445975 -2.806906 -0.587693 0
M  V30 24 H 1.252891 -1.150046 -2.624819 0
M  V30 25 H 0.579293 1.712928 -2.552439 0
M  V30 26 H -2.457203 2.451013 0.447611 0
M  V30 27 H -0.953550 -2.373419 -0.596934 0
M  V30 28 H -1.462468 -2.548474 1.770467 0
M  V30 END ATOM
M  V30 BEGIN BOND
M  V30 1 2 1 2
M  V30 2 1 2 3
M  V30 3 1 3 4
M  V30 4 2 4 5
M  V30 5 1 4 6
M  V30 6 1 6 7
M  V30 7 2 7 8
M  V30 8 1 7 9
M  V30 9 1 9 10
M  V30 10 1 10 11
M  V30 11 2 11 12
M  V30 12 1 12 13
M  V30 13 1 13 14
M  V30 14 2 13 15
M  V30 15 1 15 16
M  V30 16 1 16 17
M  V30 17 2 16 18
M  V30 18 1 18 19
M  V30 19 1 19 20
M  V30 20 2 20 21
M  V30 21 1 21 2
M  V30 22 1 21 6
M  V30 23 1 19 9
M  V30 24 1 18 11
M  V30 25 1 3 22
M  V30 26 1 9 23
M  V30 27 1 10 24
M  V30 28 1 12 25
M  V30 29 1 15 26
M  V30 30 1 19 27
M  V30 31 1 20 28
M  V30 END BOND
M  V30 END CTAB
M  END
>  <Dataset>  (880) 
ChEMBL_Kinases

>  <Ligand_Instance>  (880) 
nan

>  <PDB_ID>  (880) 
nan

>  <Standardized_SMILES>  (880) 
O=C1NC(=S)N2C(=O)C3Nc4cc(Cl)cc(Cl)c4C3C=C12

>  <Name>  (880) 
nan

>  <Pocket>  (880) 
nan

>  <ATP_Site>  (880) 
nan

>  <Peripheral>  (880) 
nan

>  <Num_H_Atoms_ProtBoundConf>  (880) 
nan

>  <Num_Resolved_Atoms>  (880) 
nan

>  <Num_Not_Resolved_Atoms>  (880) 
nan

$$$$
CHEMBL4096151
     RDKit          3D

  0  0  0  0  0  0  0  0  0  0999 V3000
M  V30 BEGIN CTAB
M  V30 COUNTS 96 102 0 0 0
M  V30 BEGIN ATOM
M  V30 1 C 0.556660 -9.068156 -4.458922 0
M  V30 2 C 0.120455 -7.644065 -4.447911 0
M  V30 3 C 0.520802 -6.856511 -5.703343 0 CFG=2
M  V30 4 C 1.977971 -6.822111 -5.882285 0
M  V30 5 C 2.976293 -7.706469 -6.255581 0
M  V30 6 C 2.798351 -9.064674 -6.703195 0
M  V30 7 N 2.641194 -10.152498 -7.047556 0
M  V30 8 N 4.209390 -7.160580 -6.184465 0
M  V30 9 C 4.032545 -5.894673 -5.760906 0
M  V30 10 N 2.706758 -5.740632 -5.599592 0
M  V30 11 C 2.138685 -4.480951 -5.270417 0
M  V30 12 C 2.827333 -3.330318 -4.947391 0
M  V30 13 N 2.160305 -2.205149 -4.648466 0
M  V30 14 C 0.810712 -2.109625 -4.639104 0
M  V30 15 N 0.447101 -0.790022 -4.279219 0
M  V30 16 C 0.131291 -0.336425 -2.968498 0
M  V30 17 C 0.109875 -1.283545 -1.970113 0
M  V30 18 C -0.186122 -1.008716 -0.657510 0
M  V30 19 F -0.230000 -1.862544 0.378989 0
M  V30 20 C -0.488019 0.298399 -0.273897 0
M  V30 21 C -0.852365 0.871837 1.021377 0
M  V30 22 O -0.928814 2.126981 1.255854 0
M  V30 23 N -1.174214 0.158412 2.201225 0
M  V30 24 C -1.517222 0.809144 3.436685 0 CFG=1
M  V30 25 C -3.006172 0.681483 3.772019 0
M  V30 26 C -3.266894 1.704167 4.860538 0
M  V30 27 C -2.227815 1.612419 5.959918 0 CFG=2
M  V30 28 N -1.413007 2.770128 5.980733 0
M  V30 29 C -2.111563 3.975011 6.311997 0
M  V30 30 C -1.221693 5.186456 6.376479 0
M  V30 31 N 0.061532 5.003769 5.809773 0
M  V30 32 C 0.324585 5.621349 4.557291 0
M  V30 33 C 0.391588 7.124840 4.589305 0
M  V30 34 C 1.383042 7.840308 5.423400 0
M  V30 35 C 1.624635 7.717625 3.948107 0
M  V30 36 C 0.742484 3.793820 6.089681 0
M  V30 37 C -0.177369 2.709912 6.674448 0
M  V30 38 C -1.462437 0.312819 5.880034 0
M  V30 39 C -0.780852 0.118844 4.561690 0
M  V30 40 C -0.466511 1.265009 -1.290224 0
M  V30 41 C -0.166844 0.954000 -2.591195 0
M  V30 42 O -0.135756 1.879802 -3.622331 0
M  V30 43 C -0.424233 3.219383 -3.342732 0
M  V30 44 N 0.142135 -3.227537 -4.953016 0
M  V30 45 C 0.740642 -4.382624 -5.260880 0
M  V30 46 N -0.051984 -5.516037 -5.581034 0
M  V30 47 C -1.457982 -5.491526 -5.821234 0
M  V30 48 C -2.080033 -4.116695 -5.726599 0
M  V30 49 C -1.660986 -5.954627 -7.271975 0
M  V30 50 H 0.326353 -9.563091 -5.410226 0
M  V30 51 H -0.020119 -9.680030 -3.694922 0
M  V30 52 H 1.603812 -9.121576 -4.124323 0
M  V30 53 H -0.951880 -7.549978 -4.270270 0
M  V30 54 H 0.621263 -7.151341 -3.579887 0
M  V30 55 H 0.047793 -7.343127 -6.561879 0
M  V30 56 H 4.877041 -5.248735 -5.623570 0
M  V30 57 H 3.920666 -3.401663 -4.953475 0
M  V30 58 H 0.423167 -0.125848 -5.077588 0
M  V30 59 H 0.323776 -2.328415 -2.125618 0
M  V30 60 H -1.163137 -0.880783 2.167360 0
M  V30 61 H -1.351533 1.907551 3.396551 0
M  V30 62 H -3.144025 -0.318626 4.216010 0
M  V30 63 H -3.607123 0.892915 2.886113 0
M  V30 64 H -3.220008 2.696278 4.380918 0
M  V30 65 H -4.300297 1.543788 5.217097 0
M  V30 66 H -2.813319 1.562604 6.907724 0
M  V30 67 H -3.027048 4.160232 5.722140 0
M  V30 68 H -2.493848 3.840188 7.367842 0
M  V30 69 H -1.083989 5.588426 7.411769 0
M  V30 70 H -1.731206 6.005067 5.825274 0
M  V30 71 H 1.260134 5.194055 4.133483 0
M  V30 72 H -0.464580 5.326320 3.805067 0
M  V30 73 H -0.530416 7.707047 4.337410 0
M  V30 74 H 1.135295 8.850161 5.809400 0
M  V30 75 H 2.127034 7.305075 6.053307 0
M  V30 76 H 1.581212 8.646605 3.366138 0
M  V30 77 H 2.416825 7.015861 3.603522 0
M  V30 78 H 1.589572 3.868956 6.808750 0
M  V30 79 H 1.163776 3.367694 5.139812 0
M  V30 80 H -0.361101 2.907375 7.750181 0
M  V30 81 H 0.410934 1.793526 6.577664 0
M  V30 82 H -2.222757 -0.516309 6.011523 0
M  V30 83 H -0.828094 0.230178 6.769213 0
M  V30 84 H -0.755626 -0.969566 4.284728 0
M  V30 85 H 0.309080 0.416056 4.571986 0
M  V30 86 H -0.680087 2.319290 -1.132629 0
M  V30 87 H 0.354096 3.739391 -2.739341 0
M  V30 88 H -0.574296 3.743307 -4.309948 0
M  V30 89 H -1.408658 3.281715 -2.807090 0
M  V30 90 H -2.057285 -6.128980 -5.131796 0
M  V30 91 H -3.172182 -4.175046 -6.034578 0
M  V30 92 H -1.652223 -3.395698 -6.457450 0
M  V30 93 H -2.128843 -3.742149 -4.690005 0
M  V30 94 H -1.851563 -7.029565 -7.233332 0
M  V30 95 H -0.767064 -5.680628 -7.890931 0
M  V30 96 H -2.507924 -5.446865 -7.748388 0
M  V30 END ATOM
M  V30 BEGIN BOND
M  V30 1 1 1 2
M  V30 2 1 2 3
M  V30 3 1 3 4
M  V30 4 2 4 5
M  V30 5 1 5 6
M  V30 6 3 6 7
M  V30 7 1 5 8
M  V30 8 2 8 9
M  V30 9 1 9 10
M  V30 10 1 10 11
M  V30 11 2 11 12
M  V30 12 1 12 13
M  V30 13 2 13 14
M  V30 14 1 14 15
M  V30 15 1 15 16
M  V30 16 2 16 17
M  V30 17 1 17 18
M  V30 18 1 18 19
M  V30 19 2 18 20
M  V30 20 1 20 21
M  V30 21 2 21 22
M  V30 22 1 21 23
M  V30 23 1 23 24
M  V30 24 1 24 25
M  V30 25 1 25 26
M  V30 26 1 26 27
M  V30 27 1 27 28
M  V30 28 1 28 29
M  V30 29 1 29 30
M  V30 30 1 30 31
M  V30 31 1 31 32
M  V30 32 1 32 33
M  V30 33 1 33 34
M  V30 34 1 34 35
M  V30 35 1 31 36
M  V30 36 1 36 37
M  V30 37 1 27 38
M  V30 38 1 38 39
M  V30 39 1 20 40
M  V30 40 2 40 41
M  V30 41 1 41 42
M  V30 42 1 42 43
M  V30 43 1 14 44
M  V30 44 2 44 45
M  V30 45 1 45 46
M  V30 46 1 46 47
M  V30 47 1 47 48
M  V30 48 1 47 49
M  V30 49 1 46 3
M  V30 50 1 10 4
M  V30 51 1 45 11
M  V30 52 1 41 16
M  V30 53 1 39 24
M  V30 54 1 37 28
M  V30 55 1 35 33
M  V30 56 1 1 50
M  V30 57 1 1 51
M  V30 58 1 1 52
M  V30 59 1 2 53
M  V30 60 1 2 54
M  V30 61 1 3 55 CFG=3
M  V30 62 1 9 56
M  V30 63 1 12 57
M  V30 64 1 15 58
M  V30 65 1 17 59
M  V30 66 1 23 60
M  V30 67 1 24 61 CFG=3
M  V30 68 1 25 62
M  V30 69 1 25 63
M  V30 70 1 26 64
M  V30 71 1 26 65
M  V30 72 1 27 66 CFG=1
M  V30 73 1 29 67
M  V30 74 1 29 68
M  V30 75 1 30 69
M  V30 76 1 30 70
M  V30 77 1 32 71
M  V30 78 1 32 72
M  V30 79 1 33 73
M  V30 80 1 34 74
M  V30 81 1 34 75
M  V30 82 1 35 76
M  V30 83 1 35 77
M  V30 84 1 36 78
M  V30 85 1 36 79
M  V30 86 1 37 80
M  V30 87 1 37 81
M  V30 88 1 38 82
M  V30 89 1 38 83
M  V30 90 1 39 84
M  V30 91 1 39 85
M  V30 92 1 40 86
M  V30 93 1 43 87
M  V30 94 1 43 88
M  V30 95 1 43 89
M  V30 96 1 47 90
M  V30 97 1 48 91
M  V30 98 1 48 92
M  V30 99 1 48 93
M  V30 100 1 49 94
M  V30 101 1 49 95
M  V30 102 1 49 96
M  V30 END BOND
M  V30 END CTAB
M  END
>  <Dataset>  (881) 
ChEMBL_Kinases

>  <Ligand_Instance>  (881) 
nan

>  <PDB_ID>  (881) 
nan

>  <Standardized_SMILES>  (881) 
CC[C@@H]1c2c(C#N)ncn2-c2cnc(Nc3cc(F)c(C(=O)N[C@H]4CC[C@H](N5CCN(CC6CC6)CC5)CC4)cc3OC)nc2N1C(C)C

>  <Name>  (881) 
nan

>  <Pocket>  (881) 
nan

>  <ATP_Site>  (881) 
nan

>  <Peripheral>  (881) 
nan

>  <Num_H_Atoms_ProtBoundConf>  (881) 
nan

>  <Num_Resolved_Atoms>  (881) 
nan

>  <Num_Not_Resolved_Atoms>  (881) 
nan

$$$$
CHEMBL480962
     RDKit          3D

  0  0  0  0  0  0  0  0  0  0999 V3000
M  V30 BEGIN CTAB
M  V30 COUNTS 48 51 0 0 0
M  V30 BEGIN ATOM
M  V30 1 C 3.679987 -5.060484 0.537562 0
M  V30 2 S 4.044521 -4.108580 -0.951003 0
M  V30 3 C 3.240217 -2.516561 -0.878746 0
M  V30 4 N 3.362636 -1.625775 -1.881958 0
M  V30 5 C 2.649654 -0.505968 -1.564132 0
M  V30 6 C 2.409853 0.763343 -2.238705 0
M  V30 7 C 1.675161 0.534667 -3.409243 0
M  V30 8 C 1.312859 1.590701 -4.246458 0
M  V30 9 C 1.685456 2.885797 -3.914960 0
M  V30 10 F 1.411495 4.003684 -4.618638 0
M  V30 11 C 2.407665 3.077207 -2.756953 0
M  V30 12 C 2.771568 2.040789 -1.921654 0
M  V30 13 C 2.070939 -0.711575 -0.329980 0
M  V30 14 C 1.212792 0.002484 0.607662 0
M  V30 15 C 1.456159 1.161834 1.313867 0
M  V30 16 C 0.485722 1.664848 2.154205 0
M  V30 17 N -0.704150 1.073042 2.322604 0
M  V30 18 C -1.009609 -0.052001 1.671837 0
M  V30 19 N -2.245989 -0.703265 1.822813 0
M  V30 20 C -3.270492 -0.201659 2.694483 0
M  V30 21 C -2.865997 -0.110378 4.142196 0
M  V30 22 C -3.034851 -1.415712 4.876794 0
M  V30 23 O -4.179022 -2.096631 4.553135 0
M  V30 24 C -4.376125 -2.328215 3.211974 0
M  V30 25 C -4.573736 -0.983512 2.536680 0
M  V30 26 C -0.042787 -0.585205 0.811674 0
M  V30 27 N 2.457614 -1.958131 0.057560 0
M  V30 28 H 4.571011 -5.020137 1.221666 0
M  V30 29 H 3.443539 -6.122976 0.316439 0
M  V30 30 H 2.810205 -4.659083 1.098841 0
M  V30 31 H 1.312371 -0.408913 -3.802444 0
M  V30 32 H 0.754722 1.495449 -5.153488 0
M  V30 33 H 2.759149 4.051271 -2.389642 0
M  V30 34 H 3.327771 2.089356 -1.012426 0
M  V30 35 H 2.424432 1.579796 1.134036 0
M  V30 36 H 0.787349 2.573877 2.652986 0
M  V30 37 H -2.448648 -1.580377 1.295274 0
M  V30 38 H -3.492157 0.829939 2.345874 0
M  V30 39 H -3.490101 0.663020 4.643931 0
M  V30 40 H -1.805198 0.186960 4.230282 0
M  V30 41 H -2.091848 -2.022328 4.754995 0
M  V30 42 H -3.088057 -1.176037 5.961568 0
M  V30 43 H -5.308736 -2.918185 3.117423 0
M  V30 44 H -3.559091 -2.895551 2.732489 0
M  V30 45 H -5.378692 -0.470019 3.074990 0
M  V30 46 H -4.761356 -1.147166 1.465207 0
M  V30 47 H -0.326774 -1.506241 0.295751 0
M  V30 48 H 2.272595 -2.544612 0.908359 0
M  V30 END ATOM
M  V30 BEGIN BOND
M  V30 1 1 1 2
M  V30 2 1 2 3
M  V30 3 2 3 4
M  V30 4 1 4 5
M  V30 5 1 5 6
M  V30 6 2 6 7
M  V30 7 1 7 8
M  V30 8 2 8 9
M  V30 9 1 9 10
M  V30 10 1 9 11
M  V30 11 2 11 12
M  V30 12 2 5 13
M  V30 13 1 13 14
M  V30 14 2 14 15
M  V30 15 1 15 16
M  V30 16 2 16 17
M  V30 17 1 17 18
M  V30 18 1 18 19
M  V30 19 1 19 20
M  V30 20 1 20 21
M  V30 21 1 21 22
M  V30 22 1 22 23
M  V30 23 1 23 24
M  V30 24 1 24 25
M  V30 25 2 18 26
M  V30 26 1 13 27
M  V30 27 1 27 3
M  V30 28 1 12 6
M  V30 29 1 26 14
M  V30 30 1 25 20
M  V30 31 1 1 28
M  V30 32 1 1 29
M  V30 33 1 1 30
M  V30 34 1 7 31
M  V30 35 1 8 32
M  V30 36 1 11 33
M  V30 37 1 12 34
M  V30 38 1 15 35
M  V30 39 1 16 36
M  V30 40 1 19 37
M  V30 41 1 20 38
M  V30 42 1 21 39
M  V30 43 1 21 40
M  V30 44 1 22 41
M  V30 45 1 22 42
M  V30 46 1 24 43
M  V30 47 1 24 44
M  V30 48 1 25 45
M  V30 49 1 25 46
M  V30 50 1 26 47
M  V30 51 1 27 48
M  V30 END BOND
M  V30 END CTAB
M  END
>  <Dataset>  (882) 
ChEMBL_Kinases

>  <Ligand_Instance>  (882) 
nan

>  <PDB_ID>  (882) 
nan

>  <Standardized_SMILES>  (882) 
CSc1nc(-c2ccc(F)cc2)c(-c2ccnc(NC3CCOCC3)c2)[nH]1

>  <Name>  (882) 
nan

>  <Pocket>  (882) 
nan

>  <ATP_Site>  (882) 
nan

>  <Peripheral>  (882) 
nan

>  <Num_H_Atoms_ProtBoundConf>  (882) 
nan

>  <Num_Resolved_Atoms>  (882) 
nan

>  <Num_Not_Resolved_Atoms>  (882) 
nan

$$$$
CHEMBL4096062
     RDKit          3D

  0  0  0  0  0  0  0  0  0  0999 V3000
M  V30 BEGIN CTAB
M  V30 COUNTS 65 69 0 0 0
M  V30 BEGIN ATOM
M  V30 1 O 2.023643 1.520802 2.501014 0
M  V30 2 C 2.023734 1.284078 3.742718 0
M  V30 3 N 3.051794 0.546948 4.413532 0
M  V30 4 C 4.146239 0.053614 3.613073 0
M  V30 5 C 5.300692 0.781158 3.388107 0
M  V30 6 C 6.300382 0.223819 2.601791 0
M  V30 7 C 6.091346 -1.037023 2.080337 0
M  V30 8 Br 7.489039 -1.755026 1.012063 0
M  V30 9 C 4.944379 -1.774331 2.296509 0
M  V30 10 C 3.946202 -1.221259 3.079714 0
M  V30 11 N 0.866679 1.847671 4.381474 0
M  V30 12 C -0.007399 2.535134 3.473374 0
M  V30 13 C 0.115401 3.879193 3.159986 0
M  V30 14 C -0.791396 4.424067 2.277807 0
M  V30 15 C -1.813314 3.713554 1.687645 0
M  V30 16 C -2.819916 4.245394 0.741531 0
M  V30 17 N -2.441025 4.148944 -0.647783 0
M  V30 18 C -2.118663 2.846605 -1.226590 0
M  V30 19 N -1.175758 2.328724 -1.614551 0
M  V30 20 C -1.006258 1.113622 -2.116112 0
M  V30 21 C 0.140636 0.464252 -2.603433 0
M  V30 22 C 0.019368 -0.812636 -3.073637 0
M  V30 23 C -1.138686 -1.571767 -3.132060 0
M  V30 24 O -1.081680 -2.842788 -3.641884 0
M  V30 25 C -2.120565 -3.757570 -3.753969 0
M  V30 26 C -2.738473 -4.288532 -2.502911 0
M  V30 27 N -1.824472 -5.048988 -1.725051 0
M  V30 28 C -0.733679 -4.395100 -1.097335 0
M  V30 29 C -1.152715 -3.601548 0.120871 0
M  V30 30 O -1.756603 -4.482772 1.049136 0
M  V30 31 C -2.922865 -4.953381 0.456942 0
M  V30 32 C -2.566618 -5.843375 -0.710488 0
M  V30 33 C -2.265492 -0.955637 -2.663185 0
M  V30 34 C -2.146217 0.334711 -2.186240 0
M  V30 35 S -3.433897 1.463604 -1.494788 0
M  V30 36 C -1.879113 2.370165 2.045304 0
M  V30 37 C -0.997799 1.751557 2.930165 0
M  V30 38 H 2.897664 0.437781 5.451288 0
M  V30 39 H 5.304204 1.759551 3.875561 0
M  V30 40 H 7.175011 0.838587 2.464409 0
M  V30 41 H 4.838976 -2.752131 1.862294 0
M  V30 42 H 3.036598 -1.771013 3.268571 0
M  V30 43 H 0.790540 1.694731 5.428157 0
M  V30 44 H 0.900627 4.456953 3.605187 0
M  V30 45 H -0.718360 5.465317 2.018936 0
M  V30 46 H -3.766691 3.638301 0.868255 0
M  V30 47 H -3.140042 5.275326 1.014709 0
M  V30 48 H -2.335394 4.880851 -1.411621 0
M  V30 49 H 1.113785 0.950514 -2.610993 0
M  V30 50 H 0.942127 -1.292045 -3.448755 0
M  V30 51 H -1.737794 -4.600090 -4.407621 0
M  V30 52 H -2.908664 -3.236412 -4.389806 0
M  V30 53 H -3.541695 -5.034858 -2.830348 0
M  V30 54 H -3.252181 -3.522715 -1.874002 0
M  V30 55 H -0.169145 -3.769667 -1.769781 0
M  V30 56 H 0.008016 -5.174280 -0.717053 0
M  V30 57 H -0.196855 -3.188164 0.553822 0
M  V30 58 H -1.835609 -2.780476 -0.080302 0
M  V30 59 H -3.462543 -5.552412 1.206547 0
M  V30 60 H -3.595567 -4.120443 0.157242 0
M  V30 61 H -1.983118 -6.695957 -0.349180 0
M  V30 62 H -3.491987 -6.166115 -1.205797 0
M  V30 63 H -3.229800 -1.374524 -2.646026 0
M  V30 64 H -2.681018 1.775993 1.594426 0
M  V30 65 H -1.169080 0.713708 3.113601 0
M  V30 END ATOM
M  V30 BEGIN BOND
M  V30 1 2 1 2
M  V30 2 1 2 3
M  V30 3 1 3 4
M  V30 4 2 4 5
M  V30 5 1 5 6
M  V30 6 2 6 7
M  V30 7 1 7 8
M  V30 8 1 7 9
M  V30 9 2 9 10
M  V30 10 1 2 11
M  V30 11 1 11 12
M  V30 12 2 12 13
M  V30 13 1 13 14
M  V30 14 2 14 15
M  V30 15 1 15 16
M  V30 16 1 16 17
M  V30 17 1 17 18
M  V30 18 2 18 19
M  V30 19 1 19 20
M  V30 20 2 20 21
M  V30 21 1 21 22
M  V30 22 2 22 23
M  V30 23 1 23 24
M  V30 24 1 24 25
M  V30 25 1 25 26
M  V30 26 1 26 27
M  V30 27 1 27 28
M  V30 28 1 28 29
M  V30 29 1 29 30
M  V30 30 1 30 31
M  V30 31 1 31 32
M  V30 32 1 23 33
M  V30 33 2 33 34
M  V30 34 1 34 35
M  V30 35 1 15 36
M  V30 36 2 36 37
M  V30 37 1 10 4
M  V30 38 1 37 12
M  V30 39 1 35 18
M  V30 40 1 34 20
M  V30 41 1 32 27
M  V30 42 1 3 38
M  V30 43 1 5 39
M  V30 44 1 6 40
M  V30 45 1 9 41
M  V30 46 1 10 42
M  V30 47 1 11 43
M  V30 48 1 13 44
M  V30 49 1 14 45
M  V30 50 1 16 46
M  V30 51 1 16 47
M  V30 52 1 17 48
M  V30 53 1 21 49
M  V30 54 1 22 50
M  V30 55 1 25 51
M  V30 56 1 25 52
M  V30 57 1 26 53
M  V30 58 1 26 54
M  V30 59 1 28 55
M  V30 60 1 28 56
M  V30 61 1 29 57
M  V30 62 1 29 58
M  V30 63 1 31 59
M  V30 64 1 31 60
M  V30 65 1 32 61
M  V30 66 1 32 62
M  V30 67 1 33 63
M  V30 68 1 36 64
M  V30 69 1 37 65
M  V30 END BOND
M  V30 END CTAB
M  END
>  <Dataset>  (883) 
ChEMBL_Kinases

>  <Ligand_Instance>  (883) 
nan

>  <PDB_ID>  (883) 
nan

>  <Standardized_SMILES>  (883) 
O=C(Nc1ccc(Br)cc1)Nc1ccc(CNc2nc3ccc(OCCN4CCOCC4)cc3s2)cc1

>  <Name>  (883) 
nan

>  <Pocket>  (883) 
nan

>  <ATP_Site>  (883) 
nan

>  <Peripheral>  (883) 
nan

>  <Num_H_Atoms_ProtBoundConf>  (883) 
nan

>  <Num_Resolved_Atoms>  (883) 
nan

>  <Num_Not_Resolved_Atoms>  (883) 
nan

$$$$
CHEMBL4096048
     RDKit          3D

  0  0  0  0  0  0  0  0  0  0999 V3000
M  V30 BEGIN CTAB
M  V30 COUNTS 58 62 0 0 0
M  V30 BEGIN ATOM
M  V30 1 C 1.060689 -4.318858 3.199851 0
M  V30 2 C 1.106867 -2.823215 3.183994 0
M  V30 3 C 1.652835 -2.109699 4.235558 0
M  V30 4 C 1.671721 -0.731671 4.173338 0
M  V30 5 C 1.156198 -0.062217 3.082578 0
M  V30 6 N 1.116750 1.353253 2.899727 0
M  V30 7 C 2.271618 1.865993 2.248964 0
M  V30 8 O 3.216538 1.120405 1.883298 0
M  V30 9 C 2.423399 3.290708 1.969157 0
M  V30 10 C 3.568220 3.727391 1.334672 0
M  V30 11 C 3.789755 5.063927 1.032508 0
M  V30 12 C 2.853110 6.019743 1.363486 0
M  V30 13 C 1.687430 5.593895 2.006838 0
M  V30 14 C 1.502834 4.260148 2.290157 0
M  V30 15 O 0.724349 6.533451 2.353363 0
M  V30 16 C 0.666934 7.838871 1.827177 0
M  V30 17 C 1.739324 8.091367 0.805016 0
M  V30 18 O 2.928511 7.385577 1.130097 0
M  V30 19 C 0.617970 -0.826756 2.050376 0
M  V30 20 C 0.577002 -2.208220 2.068190 0
M  V30 21 N 0.009800 -2.917986 0.973352 0
M  V30 22 C -1.251738 -3.395372 0.612344 0
M  V30 23 O -2.121268 -3.140250 1.463726 0
M  V30 24 C -1.384052 -4.100552 -0.659377 0
M  V30 25 C -0.402077 -4.371095 -1.588014 0
M  V30 26 C -0.734072 -5.054078 -2.732580 0
M  V30 27 C -2.021771 -5.468246 -2.962974 0
M  V30 28 C -3.009453 -5.206593 -2.048608 0
M  V30 29 C -2.676869 -4.521524 -0.900370 0
M  V30 30 C -4.355190 -5.701346 -2.405612 0
M  V30 31 C -4.671389 -5.525981 -3.875223 0
M  V30 32 C -3.636622 -6.126007 -4.765211 0
M  V30 33 N -2.323728 -6.172449 -4.160299 0
M  V30 34 H 1.327657 -4.664508 2.180916 0
M  V30 35 H 1.665722 -4.764713 3.988678 0
M  V30 36 H 0.001336 -4.596315 3.391632 0
M  V30 37 H 2.061964 -2.613862 5.099186 0
M  V30 38 H 2.086065 -0.104601 4.965301 0
M  V30 39 H 0.334987 1.975388 3.201574 0
M  V30 40 H 4.367905 3.052141 1.031999 0
M  V30 41 H 4.676211 5.442503 0.535429 0
M  V30 42 H 0.595660 3.953887 2.787166 0
M  V30 43 H 0.788778 8.629421 2.612519 0
M  V30 44 H -0.325446 8.035179 1.336187 0
M  V30 45 H 1.359766 7.814766 -0.196702 0
M  V30 46 H 1.999412 9.165493 0.782039 0
M  V30 47 H 0.202274 -0.345461 1.175052 0
M  V30 48 H 0.898414 -3.004633 0.431105 0
M  V30 49 H 0.574355 -4.006643 -1.318300 0
M  V30 50 H 0.054097 -5.254353 -3.446079 0
M  V30 51 H -3.527367 -4.356261 -0.226196 0
M  V30 52 H -4.473506 -6.768088 -2.116732 0
M  V30 53 H -5.099472 -5.129702 -1.816412 0
M  V30 54 H -5.632653 -6.071042 -4.048581 0
M  V30 55 H -4.886429 -4.468635 -4.115874 0
M  V30 56 H -3.927955 -7.127535 -5.150645 0
M  V30 57 H -3.546233 -5.451642 -5.662571 0
M  V30 58 H -1.584563 -6.741250 -4.622923 0
M  V30 END ATOM
M  V30 BEGIN BOND
M  V30 1 1 1 2
M  V30 2 2 2 3
M  V30 3 1 3 4
M  V30 4 2 4 5
M  V30 5 1 5 6
M  V30 6 1 6 7
M  V30 7 2 7 8
M  V30 8 1 7 9
M  V30 9 2 9 10
M  V30 10 1 10 11
M  V30 11 2 11 12
M  V30 12 1 12 13
M  V30 13 2 13 14
M  V30 14 1 13 15
M  V30 15 1 15 16
M  V30 16 1 16 17
M  V30 17 1 17 18
M  V30 18 1 5 19
M  V30 19 2 19 20
M  V30 20 1 20 21
M  V30 21 1 21 22
M  V30 22 2 22 23
M  V30 23 1 22 24
M  V30 24 2 24 25
M  V30 25 1 25 26
M  V30 26 2 26 27
M  V30 27 1 27 28
M  V30 28 2 28 29
M  V30 29 1 28 30
M  V30 30 1 30 31
M  V30 31 1 31 32
M  V30 32 1 32 33
M  V30 33 1 20 2
M  V30 34 1 29 24
M  V30 35 1 14 9
M  V30 36 1 33 27
M  V30 37 1 18 12
M  V30 38 1 1 34
M  V30 39 1 1 35
M  V30 40 1 1 36
M  V30 41 1 3 37
M  V30 42 1 4 38
M  V30 43 1 6 39
M  V30 44 1 10 40
M  V30 45 1 11 41
M  V30 46 1 14 42
M  V30 47 1 16 43
M  V30 48 1 16 44
M  V30 49 1 17 45
M  V30 50 1 17 46
M  V30 51 1 19 47
M  V30 52 1 21 48
M  V30 53 1 25 49
M  V30 54 1 26 50
M  V30 55 1 29 51
M  V30 56 1 30 52
M  V30 57 1 30 53
M  V30 58 1 31 54
M  V30 59 1 31 55
M  V30 60 1 32 56
M  V30 61 1 32 57
M  V30 62 1 33 58
M  V30 END BOND
M  V30 END CTAB
M  END
>  <Dataset>  (884) 
ChEMBL_Kinases

>  <Ligand_Instance>  (884) 
nan

>  <PDB_ID>  (884) 
nan

>  <Standardized_SMILES>  (884) 
Cc1ccc(NC(=O)c2ccc3c(c2)OCCO3)cc1NC(=O)c1ccc2c(c1)CCCN2

>  <Name>  (884) 
nan

>  <Pocket>  (884) 
nan

>  <ATP_Site>  (884) 
nan

>  <Peripheral>  (884) 
nan

>  <Num_H_Atoms_ProtBoundConf>  (884) 
nan

>  <Num_Resolved_Atoms>  (884) 
nan

>  <Num_Not_Resolved_Atoms>  (884) 
nan

$$$$
CHEMBL4096030
     RDKit          3D

  0  0  0  0  0  0  0  0  0  0999 V3000
M  V30 BEGIN CTAB
M  V30 COUNTS 33 35 0 0 0
M  V30 BEGIN ATOM
M  V30 1 C 0.211378 -6.307605 1.083526 0
M  V30 2 S 1.608442 -5.194574 0.985335 0
M  V30 3 O 2.701888 -5.803005 0.157251 0
M  V30 4 O 2.101230 -4.946676 2.381610 0
M  V30 5 C 1.152304 -3.682352 0.256475 0
M  V30 6 C 0.659857 -2.711694 1.133832 0
M  V30 7 C 0.254724 -1.462382 0.713342 0
M  V30 8 C 0.358788 -1.211509 -0.628175 0
M  V30 9 C -0.064214 0.155066 -1.238773 0
M  V30 10 N -0.515000 1.068243 -0.547863 0
M  V30 11 C -0.872803 2.231256 -1.083194 0
M  V30 12 C -1.411164 3.293945 -0.218576 0
M  V30 13 C -0.981880 3.502701 0.996038 0
M  V30 14 S 0.314207 2.590555 1.881309 0
M  V30 15 C -0.395460 2.929607 3.519393 0
M  V30 16 S -0.324585 2.089758 4.919232 0
M  V30 17 N -1.079979 4.173621 3.308319 0
M  V30 18 C -1.393342 4.479467 1.960801 0
M  V30 19 O -2.004117 5.568118 1.666930 0
M  V30 20 C -0.727197 2.416107 -2.490624 0
M  V30 21 S -0.010170 0.676540 -2.884169 0
M  V30 22 C 0.835242 -2.122583 -1.548199 0
M  V30 23 C 1.233238 -3.365761 -1.094907 0
M  V30 24 H -0.455297 -6.014429 1.925750 0
M  V30 25 H 0.580866 -7.323118 1.337324 0
M  V30 26 H -0.334242 -6.349620 0.130099 0
M  V30 27 H 0.567020 -2.890080 2.210818 0
M  V30 28 H -0.132116 -0.685286 1.354171 0
M  V30 29 H -2.209837 3.969523 -0.554832 0
M  V30 30 H -1.307250 4.778386 4.154588 0
M  V30 31 H -0.973196 3.276979 -3.003672 0
M  V30 32 H 0.934143 -1.965802 -2.612477 0
M  V30 33 H 1.619500 -4.145468 -1.735574 0
M  V30 END ATOM
M  V30 BEGIN BOND
M  V30 1 1 1 2
M  V30 2 2 2 3
M  V30 3 2 2 4
M  V30 4 1 2 5
M  V30 5 2 5 6
M  V30 6 1 6 7
M  V30 7 2 7 8
M  V30 8 1 8 9
M  V30 9 2 9 10
M  V30 10 1 10 11
M  V30 11 1 11 12
M  V30 12 2 12 13
M  V30 13 1 13 14
M  V30 14 1 14 15
M  V30 15 2 15 16
M  V30 16 1 15 17
M  V30 17 1 17 18
M  V30 18 2 18 19
M  V30 19 2 11 20
M  V30 20 1 20 21
M  V30 21 1 8 22
M  V30 22 2 22 23
M  V30 23 1 23 5
M  V30 24 1 21 9
M  V30 25 1 18 13
M  V30 26 1 1 24
M  V30 27 1 1 25
M  V30 28 1 1 26
M  V30 29 1 6 27
M  V30 30 1 7 28
M  V30 31 1 12 29
M  V30 32 1 17 30
M  V30 33 1 20 31
M  V30 34 1 22 32
M  V30 35 1 23 33
M  V30 END BOND
M  V30 END CTAB
M  END
>  <Dataset>  (885) 
ChEMBL_Kinases

>  <Ligand_Instance>  (885) 
nan

>  <PDB_ID>  (885) 
nan

>  <Standardized_SMILES>  (885) 
CS(=O)(=O)c1ccc(-c2nc(/C=C3\SC(=S)NC3=O)cs2)cc1

>  <Name>  (885) 
nan

>  <Pocket>  (885) 
nan

>  <ATP_Site>  (885) 
nan

>  <Peripheral>  (885) 
nan

>  <Num_H_Atoms_ProtBoundConf>  (885) 
nan

>  <Num_Resolved_Atoms>  (885) 
nan

>  <Num_Not_Resolved_Atoms>  (885) 
nan

$$$$
CHEMBL4096022
     RDKit          3D

  0  0  0  0  0  0  0  0  0  0999 V3000
M  V30 BEGIN CTAB
M  V30 COUNTS 46 50 0 0 0
M  V30 BEGIN ATOM
M  V30 1 N 4.904137 -0.785276 2.983703 0
M  V30 2 C 3.746515 -0.828890 2.784920 0
M  V30 3 C 2.333395 -0.904818 2.535170 0
M  V30 4 C 1.903337 -0.856831 1.225126 0
M  V30 5 C 2.795569 -0.732827 0.062663 0
M  V30 6 C 3.252042 -1.918873 -0.500266 0
M  V30 7 C 4.085325 -1.768850 -1.586783 0
M  V30 8 C 4.453446 -0.537467 -2.096418 0
M  V30 9 C 3.958265 0.614506 -1.482330 0
M  V30 10 C 4.294347 1.875723 -1.951099 0
M  V30 11 C 3.767466 2.987204 -1.294789 0
M  V30 12 C 2.928648 2.886038 -0.202319 0
M  V30 13 C 2.601789 1.624484 0.254474 0
M  V30 14 C 3.119566 0.529027 -0.390415 0
M  V30 15 C 0.538743 -0.929413 0.971299 0
M  V30 16 C -0.346848 -1.046467 2.020807 0
M  V30 17 C -1.791797 -1.127977 1.833096 0
M  V30 18 C -2.597248 -1.243490 2.945343 0
M  V30 19 C -3.975975 -1.325419 2.838305 0
M  V30 20 C -4.582161 -1.292206 1.589002 0
M  V30 21 C -5.953735 -1.371516 1.444503 0
M  V30 22 C -6.542869 -1.337747 0.204547 0
M  V30 23 C -5.725663 -1.221604 -0.905535 0
M  V30 24 C -4.337564 -1.137600 -0.824208 0
M  V30 25 C -3.787938 -1.176449 0.460111 0
M  V30 26 C -2.431041 -1.098529 0.612517 0
M  V30 27 N 0.108827 -1.090051 3.282823 0
M  V30 28 C 1.433026 -1.022201 3.573977 0
M  V30 29 N 1.872955 -1.072076 4.927538 0
M  V30 30 H 2.952381 -2.874647 -0.086595 0
M  V30 31 H 4.448151 -2.705479 -2.034373 0
M  V30 32 H 5.116964 -0.468774 -2.960288 0
M  V30 33 H 4.955581 1.985048 -2.813030 0
M  V30 34 H 4.007771 3.998463 -1.632749 0
M  V30 35 H 2.543851 3.776495 0.274999 0
M  V30 36 H 1.940305 1.496639 1.117213 0
M  V30 37 H 0.192567 -0.893743 -0.031880 0
M  V30 38 H -2.214909 -1.276136 3.936457 0
M  V30 39 H -4.619875 -1.415344 3.685462 0
M  V30 40 H -6.574749 -1.462523 2.335816 0
M  V30 41 H -7.600259 -1.399502 0.103823 0
M  V30 42 H -6.130392 -1.188779 -1.924466 0
M  V30 43 H -3.714370 -1.047257 -1.701554 0
M  V30 44 H -1.824876 -1.008523 -0.277934 0
M  V30 45 H 2.696182 -1.624064 5.313792 0
M  V30 46 H 2.689416 -1.628752 5.267445 0
M  V30 END ATOM
M  V30 BEGIN BOND
M  V30 1 3 1 2
M  V30 2 1 2 3
M  V30 3 2 3 4
M  V30 4 1 4 5
M  V30 5 2 5 6
M  V30 6 1 6 7
M  V30 7 2 7 8
M  V30 8 1 8 9
M  V30 9 2 9 10
M  V30 10 1 10 11
M  V30 11 2 11 12
M  V30 12 1 12 13
M  V30 13 2 13 14
M  V30 14 1 4 15
M  V30 15 2 15 16
M  V30 16 1 16 17
M  V30 17 2 17 18
M  V30 18 1 18 19
M  V30 19 2 19 20
M  V30 20 1 20 21
M  V30 21 2 21 22
M  V30 22 1 22 23
M  V30 23 2 23 24
M  V30 24 1 24 25
M  V30 25 2 25 26
M  V30 26 1 16 27
M  V30 27 2 27 28
M  V30 28 1 28 29
M  V30 29 1 28 3
M  V30 30 1 14 5
M  V30 31 1 26 17
M  V30 32 1 14 9
M  V30 33 1 25 20
M  V30 34 1 6 30
M  V30 35 1 7 31
M  V30 36 1 8 32
M  V30 37 1 10 33
M  V30 38 1 11 34
M  V30 39 1 12 35
M  V30 40 1 13 36
M  V30 41 1 15 37
M  V30 42 1 18 38
M  V30 43 1 19 39
M  V30 44 1 21 40
M  V30 45 1 22 41
M  V30 46 1 23 42
M  V30 47 1 24 43
M  V30 48 1 26 44
M  V30 49 1 29 45
M  V30 50 1 29 46
M  V30 END BOND
M  V30 END CTAB
M  END
>  <Dataset>  (886) 
ChEMBL_Kinases

>  <Ligand_Instance>  (886) 
nan

>  <PDB_ID>  (886) 
nan

>  <Standardized_SMILES>  (886) 
N#Cc1c(-c2cccc3ccccc23)cc(-c2ccc3ccccc3c2)nc1N

>  <Name>  (886) 
nan

>  <Pocket>  (886) 
nan

>  <ATP_Site>  (886) 
nan

>  <Peripheral>  (886) 
nan

>  <Num_H_Atoms_ProtBoundConf>  (886) 
nan

>  <Num_Resolved_Atoms>  (886) 
nan

>  <Num_Not_Resolved_Atoms>  (886) 
nan

$$$$
CHEMBL4095977
     RDKit          3D

  0  0  0  0  0  0  0  0  0  0999 V3000
M  V30 BEGIN CTAB
M  V30 COUNTS 60 64 0 0 0
M  V30 BEGIN ATOM
M  V30 1 O 2.311646 0.452566 2.509643 0
M  V30 2 C 1.859043 0.040399 1.401264 0
M  V30 3 N 2.731561 -0.258451 0.342442 0
M  V30 4 C 4.184478 -0.101038 0.493713 0
M  V30 5 C 4.553902 1.307904 0.814707 0
M  V30 6 N 4.689287 1.931049 2.018696 0
M  V30 7 C 5.040065 3.219662 1.822760 0
M  V30 8 C 5.286906 4.230530 2.743594 0
M  V30 9 C 5.632520 5.470033 2.243962 0
M  V30 10 C 5.728756 5.695254 0.884943 0
M  V30 11 C 5.480035 4.679394 -0.015344 0
M  V30 12 C 5.132725 3.431488 0.463148 0
M  V30 13 N 4.833460 2.258081 -0.122778 0
M  V30 14 C 0.410237 -0.094882 1.313806 0
M  V30 15 C -0.354704 0.226724 2.416159 0
M  V30 16 C -1.750138 0.118413 2.396229 0
M  V30 17 C -2.381035 -0.323842 1.237974 0
M  V30 18 C -3.829113 -0.474003 1.107068 0
M  V30 19 C -4.724938 0.476186 1.545758 0
M  V30 20 N -6.064820 0.333817 1.422954 0
M  V30 21 C -6.607337 -0.775193 0.849452 0
M  V30 22 C -5.739312 -1.746405 0.399212 0
M  V30 23 C -4.369597 -1.604803 0.522789 0
M  V30 24 O -3.567468 -2.629531 0.043334 0
M  V30 25 C -4.044118 -3.796293 -0.556389 0
M  V30 26 C -2.949537 -4.752717 -0.990525 0
M  V30 27 C -2.136541 -5.172922 0.183812 0
M  V30 28 C -0.741336 -5.602637 -0.108913 0
M  V30 29 N -0.306783 -5.337228 -1.458722 0
M  V30 30 C -0.705713 -4.002771 -1.866961 0
M  V30 31 C -2.199656 -4.110760 -2.099809 0
M  V30 32 C -1.630697 -0.653276 0.115849 0
M  V30 33 C -0.242976 -0.530848 0.178671 0
M  V30 34 H 2.356272 -0.597788 -0.569535 0
M  V30 35 H 4.574650 -0.769815 1.285140 0
M  V30 36 H 4.688077 -0.367096 -0.448830 0
M  V30 37 H 5.221731 4.091883 3.805253 0
M  V30 38 H 5.850293 6.343154 2.866179 0
M  V30 39 H 5.994423 6.640414 0.423437 0
M  V30 40 H 5.537097 4.784566 -1.109698 0
M  V30 41 H 4.825846 2.128530 -1.151904 0
M  V30 42 H 0.072509 0.576047 3.346129 0
M  V30 43 H -2.367753 0.366610 3.252751 0
M  V30 44 H -4.285359 1.366698 2.006422 0
M  V30 45 H -7.680764 -0.875224 0.758054 0
M  V30 46 H -6.133233 -2.640169 -0.061302 0
M  V30 47 H -4.635440 -4.355882 0.217006 0
M  V30 48 H -4.707963 -3.561997 -1.418225 0
M  V30 49 H -3.503601 -5.635850 -1.411644 0
M  V30 50 H -2.659419 -6.018601 0.679306 0
M  V30 51 H -2.117382 -4.351746 0.943626 0
M  V30 52 H -0.575865 -6.685504 0.074566 0
M  V30 53 H -0.009844 -5.086003 0.548192 0
M  V30 54 H -0.733031 -6.010839 -2.137260 0
M  V30 55 H -0.414345 -3.253544 -1.132466 0
M  V30 56 H -0.239662 -3.822501 -2.860851 0
M  V30 57 H -2.323556 -4.658670 -3.065803 0
M  V30 58 H -2.566282 -3.068279 -2.329718 0
M  V30 59 H -2.069218 -0.997077 -0.795602 0
M  V30 60 H 0.329695 -0.790179 -0.700851 0
M  V30 END ATOM
M  V30 BEGIN BOND
M  V30 1 2 1 2
M  V30 2 1 2 3
M  V30 3 1 3 4
M  V30 4 1 4 5
M  V30 5 2 5 6
M  V30 6 1 6 7
M  V30 7 2 7 8
M  V30 8 1 8 9
M  V30 9 2 9 10
M  V30 10 1 10 11
M  V30 11 2 11 12
M  V30 12 1 12 13
M  V30 13 1 2 14
M  V30 14 2 14 15
M  V30 15 1 15 16
M  V30 16 2 16 17
M  V30 17 1 17 18
M  V30 18 2 18 19
M  V30 19 1 19 20
M  V30 20 2 20 21
M  V30 21 1 21 22
M  V30 22 2 22 23
M  V30 23 1 23 24
M  V30 24 1 24 25
M  V30 25 1 25 26
M  V30 26 1 26 27
M  V30 27 1 27 28
M  V30 28 1 28 29
M  V30 29 1 29 30
M  V30 30 1 30 31
M  V30 31 1 17 32
M  V30 32 2 32 33
M  V30 33 1 13 5
M  V30 34 1 33 14
M  V30 35 1 12 7
M  V30 36 1 23 18
M  V30 37 1 31 26
M  V30 38 1 3 34
M  V30 39 1 4 35
M  V30 40 1 4 36
M  V30 41 1 8 37
M  V30 42 1 9 38
M  V30 43 1 10 39
M  V30 44 1 11 40
M  V30 45 1 13 41
M  V30 46 1 15 42
M  V30 47 1 16 43
M  V30 48 1 19 44
M  V30 49 1 21 45
M  V30 50 1 22 46
M  V30 51 1 25 47
M  V30 52 1 25 48
M  V30 53 1 26 49
M  V30 54 1 27 50
M  V30 55 1 27 51
M  V30 56 1 28 52
M  V30 57 1 28 53
M  V30 58 1 29 54
M  V30 59 1 30 55
M  V30 60 1 30 56
M  V30 61 1 31 57
M  V30 62 1 31 58
M  V30 63 1 32 59
M  V30 64 1 33 60
M  V30 END BOND
M  V30 END CTAB
M  END
>  <Dataset>  (887) 
ChEMBL_Kinases

>  <Ligand_Instance>  (887) 
nan

>  <PDB_ID>  (887) 
nan

>  <Standardized_SMILES>  (887) 
O=C(NCc1nc2ccccc2[nH]1)c1ccc(-c2cnccc2OCC2CCNCC2)cc1

>  <Name>  (887) 
nan

>  <Pocket>  (887) 
nan

>  <ATP_Site>  (887) 
nan

>  <Peripheral>  (887) 
nan

>  <Num_H_Atoms_ProtBoundConf>  (887) 
nan

>  <Num_Resolved_Atoms>  (887) 
nan

>  <Num_Not_Resolved_Atoms>  (887) 
nan

$$$$
CHEMBL4095923
     RDKit          3D

  0  0  0  0  0  0  0  0  0  0999 V3000
M  V30 BEGIN CTAB
M  V30 COUNTS 53 58 0 0 0
M  V30 BEGIN ATOM
M  V30 1 F -3.393151 -2.700880 5.362681 0
M  V30 2 C -2.286949 -2.193097 4.810609 0
M  V30 3 C -1.144729 -2.053211 5.585919 0
M  V30 4 C 0.028180 -1.570602 5.072609 0
M  V30 5 C 0.024329 -1.225585 3.753069 0
M  V30 6 N 1.174895 -0.750247 3.173168 0
M  V30 7 C 1.202059 -0.423242 1.899128 0
M  V30 8 N 2.246049 0.010005 1.058757 0
M  V30 9 C 3.270138 0.452880 0.231262 0
M  V30 10 C 2.845016 0.975943 -1.142384 0
M  V30 11 C 1.888119 2.110001 -0.964696 0
M  V30 12 C 2.556116 3.295111 -0.625464 0
M  V30 13 N 1.579814 4.206202 -0.343206 0
M  V30 14 C 0.355134 3.596800 -0.509376 0
M  V30 15 C -0.966004 3.994953 -0.393846 0
M  V30 16 C -1.984199 3.109983 -0.662050 0
M  V30 17 C -1.759048 1.811676 -1.051273 0
M  V30 18 C -0.431787 1.387161 -1.176139 0
M  V30 19 C 0.535791 2.288064 -0.897396 0
M  V30 20 N 0.086077 -0.571078 1.217391 0
M  V30 21 C -1.110641 -1.012669 1.602491 0
M  V30 22 N -2.203549 -1.186836 0.668551 0
M  V30 23 C -1.845966 -2.430818 0.050298 0
M  V30 24 C -2.745408 -3.442689 -0.253511 0
M  V30 25 C -2.369774 -4.635004 -0.846395 0
M  V30 26 C -1.048677 -4.904908 -1.185081 0
M  V30 27 N -0.334194 -5.895477 -1.727128 0
M  V30 28 N 0.950763 -5.613399 -1.803544 0
M  V30 29 C 1.179970 -4.373210 -1.299111 0
M  V30 30 C -0.096257 -3.951611 -0.920715 0
M  V30 31 C -0.544549 -2.789118 -0.329635 0
M  V30 32 C -1.074025 -1.338026 2.940047 0
M  V30 33 C -2.235712 -1.816364 3.454234 0
M  V30 34 H -1.131742 -2.344074 6.626999 0
M  V30 35 H 0.947512 -1.433806 5.623088 0
M  V30 36 H 2.523376 -1.024165 0.930367 0
M  V30 37 H 3.769727 1.395499 0.691856 0
M  V30 38 H 4.131760 -0.228947 0.142846 0
M  V30 39 H 3.739912 1.239976 -1.715232 0
M  V30 40 H 2.304443 0.191889 -1.730829 0
M  V30 41 H 3.618272 3.596706 -0.547062 0
M  V30 42 H 1.700727 5.188592 -0.053512 0
M  V30 43 H -1.163381 5.041036 -0.082737 0
M  V30 44 H -3.036556 3.461960 -0.563132 0
M  V30 45 H -2.544564 1.102115 -1.267815 0
M  V30 46 H -0.162945 0.350226 -1.483472 0
M  V30 47 H -3.035209 -0.623027 0.415352 0
M  V30 48 H -3.808685 -3.245823 -0.009186 0
M  V30 49 H -3.092983 -5.420375 -1.079172 0
M  V30 50 H -0.731418 -6.793351 -2.057952 0
M  V30 51 H 2.108351 -3.805060 -1.198316 0
M  V30 52 H 0.242732 -2.085327 -0.176484 0
M  V30 53 H -3.141089 -1.938735 2.852731 0
M  V30 END ATOM
M  V30 BEGIN BOND
M  V30 1 1 1 2
M  V30 2 2 2 3
M  V30 3 1 3 4
M  V30 4 2 4 5
M  V30 5 1 5 6
M  V30 6 2 6 7
M  V30 7 1 7 8
M  V30 8 1 8 9
M  V30 9 1 9 10
M  V30 10 1 10 11
M  V30 11 2 11 12
M  V30 12 1 12 13
M  V30 13 1 13 14
M  V30 14 2 14 15
M  V30 15 1 15 16
M  V30 16 2 16 17
M  V30 17 1 17 18
M  V30 18 2 18 19
M  V30 19 1 7 20
M  V30 20 2 20 21
M  V30 21 1 21 22
M  V30 22 1 22 23
M  V30 23 2 23 24
M  V30 24 1 24 25
M  V30 25 2 25 26
M  V30 26 1 26 27
M  V30 27 1 27 28
M  V30 28 2 28 29
M  V30 29 1 29 30
M  V30 30 2 30 31
M  V30 31 1 21 32
M  V30 32 2 32 33
M  V30 33 1 33 2
M  V30 34 1 32 5
M  V30 35 1 19 11
M  V30 36 1 31 23
M  V30 37 1 19 14
M  V30 38 1 30 26
M  V30 39 1 3 34
M  V30 40 1 4 35
M  V30 41 1 8 36
M  V30 42 1 9 37
M  V30 43 1 9 38
M  V30 44 1 10 39
M  V30 45 1 10 40
M  V30 46 1 12 41
M  V30 47 1 13 42
M  V30 48 1 15 43
M  V30 49 1 16 44
M  V30 50 1 17 45
M  V30 51 1 18 46
M  V30 52 1 22 47
M  V30 53 1 24 48
M  V30 54 1 25 49
M  V30 55 1 27 50
M  V30 56 1 29 51
M  V30 57 1 31 52
M  V30 58 1 33 53
M  V30 END BOND
M  V30 END CTAB
M  END
>  <Dataset>  (888) 
ChEMBL_Kinases

>  <Ligand_Instance>  (888) 
nan

>  <PDB_ID>  (888) 
nan

>  <Standardized_SMILES>  (888) 
Fc1ccc2nc(NCCc3c[nH]c4ccccc34)nc(Nc3ccc4[nH]ncc4c3)c2c1

>  <Name>  (888) 
nan

>  <Pocket>  (888) 
nan

>  <ATP_Site>  (888) 
nan

>  <Peripheral>  (888) 
nan

>  <Num_H_Atoms_ProtBoundConf>  (888) 
nan

>  <Num_Resolved_Atoms>  (888) 
nan

>  <Num_Not_Resolved_Atoms>  (888) 
nan

$$$$
CHEMBL4095848
     RDKit          3D

  0  0  0  0  0  0  0  0  0  0999 V3000
M  V30 BEGIN CTAB
M  V30 COUNTS 49 52 0 0 0
M  V30 BEGIN ATOM
M  V30 1 C -1.162950 1.158175 1.200951 0
M  V30 2 C 0.063328 0.579335 1.855216 0 CFG=2
M  V30 3 C 1.243971 1.219130 1.142652 0
M  V30 4 N 2.472707 0.500852 1.397950 0
M  V30 5 C 3.594779 0.363879 0.534403 0
M  V30 6 C 4.739510 -0.360434 0.798943 0
M  V30 7 C 5.757201 -0.411747 -0.138193 0
M  V30 8 C 5.668251 0.254070 -1.365342 0
M  V30 9 C 4.516470 0.965315 -1.598177 0
M  V30 10 F 4.504540 1.585173 -2.815575 0
M  V30 11 C 3.495561 1.024015 -0.672289 0
M  V30 12 C 2.313561 -0.056355 2.725328 0
M  V30 13 C 1.381407 -1.265358 2.518199 0
M  V30 14 N 0.153305 -0.829955 1.956514 0
M  V30 15 C -0.947664 -1.631703 1.529082 0
M  V30 16 N -1.926770 -1.088224 0.800877 0
M  V30 17 C -3.019276 -1.664029 0.327084 0
M  V30 18 C -4.074361 -1.041241 -0.457116 0
M  V30 19 C -4.164256 0.264493 -0.866101 0
M  V30 20 C -5.190063 0.781139 -1.605975 0
M  V30 21 N -6.210175 -0.017522 -1.983081 0
M  V30 22 C -6.144379 -1.296350 -1.595713 0
M  V30 23 N -5.142001 -1.787955 -0.876553 0
M  V30 24 C -3.168072 -2.998988 0.621854 0
M  V30 25 C -2.201924 -3.626626 1.367706 0
M  V30 26 O -2.375810 -4.845677 1.613916 0
M  V30 27 N -1.134969 -2.931791 1.792944 0
M  V30 28 C -0.212115 -3.685607 2.593102 0
M  V30 29 H -2.103968 1.002171 1.720900 0
M  V30 30 H -1.002989 2.294452 1.286833 0
M  V30 31 H -1.150015 1.003336 0.106071 0
M  V30 32 H 0.011675 0.963172 2.923949 0
M  V30 33 H 1.028573 1.387476 0.070483 0
M  V30 34 H 1.371358 2.232040 1.596924 0
M  V30 35 H 4.803514 -0.872985 1.745750 0
M  V30 36 H 6.641624 -0.998230 0.117898 0
M  V30 37 H 6.514081 0.163078 -2.052981 0
M  V30 38 H 2.686890 1.635850 -1.052820 0
M  V30 39 H 1.927601 0.656236 3.446945 0
M  V30 40 H 3.323847 -0.444900 3.065163 0
M  V30 41 H 1.933749 -1.844014 1.702806 0
M  V30 42 H 1.355867 -1.818222 3.448934 0
M  V30 43 H -3.392450 0.935475 -0.595226 0
M  V30 44 H -5.198432 1.832805 -1.897638 0
M  V30 45 H -6.979569 -1.921110 -1.911626 0
M  V30 46 H -4.026484 -3.552778 0.277112 0
M  V30 47 H -0.267354 -3.403332 3.664832 0
M  V30 48 H 0.792746 -3.726270 2.151640 0
M  V30 49 H -0.507167 -4.787712 2.627044 0
M  V30 END ATOM
M  V30 BEGIN BOND
M  V30 1 1 1 2
M  V30 2 1 2 3
M  V30 3 1 3 4
M  V30 4 1 4 5
M  V30 5 2 5 6
M  V30 6 1 6 7
M  V30 7 2 7 8
M  V30 8 1 8 9
M  V30 9 1 9 10
M  V30 10 2 9 11
M  V30 11 1 4 12
M  V30 12 1 12 13
M  V30 13 1 13 14
M  V30 14 1 14 15
M  V30 15 2 15 16
M  V30 16 1 16 17
M  V30 17 1 17 18
M  V30 18 2 18 19
M  V30 19 1 19 20
M  V30 20 2 20 21
M  V30 21 1 21 22
M  V30 22 2 22 23
M  V30 23 2 17 24
M  V30 24 1 24 25
M  V30 25 2 25 26
M  V30 26 1 25 27
M  V30 27 1 27 28
M  V30 28 1 14 2
M  V30 29 1 27 15
M  V30 30 1 11 5
M  V30 31 1 23 18
M  V30 32 1 1 29
M  V30 33 1 1 30
M  V30 34 1 1 31
M  V30 35 1 2 32 CFG=1
M  V30 36 1 3 33
M  V30 37 1 3 34
M  V30 38 1 6 35
M  V30 39 1 7 36
M  V30 40 1 8 37
M  V30 41 1 11 38
M  V30 42 1 12 39
M  V30 43 1 12 40
M  V30 44 1 13 41
M  V30 45 1 13 42
M  V30 46 1 19 43
M  V30 47 1 20 44
M  V30 48 1 22 45
M  V30 49 1 24 46
M  V30 50 1 28 47
M  V30 51 1 28 48
M  V30 52 1 28 49
M  V30 END BOND
M  V30 END CTAB
M  END
>  <Dataset>  (889) 
ChEMBL_Kinases

>  <Ligand_Instance>  (889) 
nan

>  <PDB_ID>  (889) 
nan

>  <Standardized_SMILES>  (889) 
C[C@@H]1CN(c2cccc(F)c2)CCN1c1nc(-c2ccncn2)cc(=O)n1C

>  <Name>  (889) 
nan

>  <Pocket>  (889) 
nan

>  <ATP_Site>  (889) 
nan

>  <Peripheral>  (889) 
nan

>  <Num_H_Atoms_ProtBoundConf>  (889) 
nan

>  <Num_Resolved_Atoms>  (889) 
nan

>  <Num_Not_Resolved_Atoms>  (889) 
nan

$$$$
CHEMBL480945
     RDKit          3D

  0  0  0  0  0  0  0  0  0  0999 V3000
M  V30 BEGIN CTAB
M  V30 COUNTS 62 66 0 0 0
M  V30 BEGIN ATOM
M  V30 1 C 0.582739 0.895233 4.119722 0
M  V30 2 C 1.345508 -0.415242 4.303422 0 CFG=2
M  V30 3 N 2.277923 -0.538270 3.217866 0
M  V30 4 C 2.017096 -0.395535 1.803285 0
M  V30 5 N 2.984796 -0.599096 0.861423 0
M  V30 6 C 2.704113 -0.437236 -0.439081 0
M  V30 7 C 1.454622 -0.065853 -0.887182 0
M  V30 8 C 0.484776 0.137204 0.071745 0
M  V30 9 C -0.819361 0.533217 -0.401116 0
M  V30 10 C -1.057759 1.789738 -0.919212 0
M  V30 11 C -0.241416 2.978407 -1.141292 0
M  V30 12 C -0.691473 4.038742 -0.343033 0
M  V30 13 C -0.081702 5.275790 -0.373178 0
M  V30 14 C 0.998642 5.482120 -1.207388 0
M  V30 15 F 1.660071 6.662707 -1.303634 0
M  V30 16 C 1.437927 4.434546 -1.991475 0
M  V30 17 C 0.837944 3.191667 -1.971892 0
M  V30 18 N -2.370892 1.794850 -1.256824 0
M  V30 19 C -2.929133 0.584178 -0.959242 0
M  V30 20 N -1.958998 -0.178366 -0.433953 0
M  V30 21 C -2.147437 -1.550692 0.013750 0
M  V30 22 C -1.879039 -2.477600 -1.143364 0
M  V30 23 C -2.885813 -2.854013 -2.016206 0
M  V30 24 C -2.653746 -3.707319 -3.087924 0
M  V30 25 C -1.355726 -4.140086 -3.205598 0
M  V30 26 C -1.029893 -5.036682 -4.305737 0
M  V30 27 N 0.235176 -5.582632 -4.581371 0
M  V30 28 O -1.744096 -5.513682 -5.218329 0
M  V30 29 C -0.296942 -3.816806 -2.385625 0
M  V30 30 C -0.599175 -2.954467 -1.327187 0
M  V30 31 N 0.799996 -0.033676 1.364245 0
M  V30 32 C 0.504135 -1.570996 4.578782 0
M  V30 33 C -0.154747 -2.435970 3.747502 0
M  V30 34 C -0.931509 -3.495759 4.134204 0
M  V30 35 C -1.090493 -3.750009 5.476055 0
M  V30 36 C -0.472430 -2.943493 6.401934 0
M  V30 37 C 0.290399 -1.899597 5.926515 0
M  V30 38 H 1.320352 1.636692 3.748809 0
M  V30 39 H 0.178712 1.196385 5.113150 0
M  V30 40 H -0.206563 0.792300 3.359122 0
M  V30 41 H 2.001282 -0.211413 5.215598 0
M  V30 42 H 3.295961 -0.761605 3.412101 0
M  V30 43 H 3.532392 -0.620063 -1.117455 0
M  V30 44 H 1.374612 0.022794 -1.954031 0
M  V30 45 H -1.533559 4.013678 0.360667 0
M  V30 46 H -0.389519 6.124013 0.220822 0
M  V30 47 H 2.286962 4.534973 -2.670484 0
M  V30 48 H 1.092664 2.318217 -2.533857 0
M  V30 49 H -3.953029 0.274745 -1.108481 0
M  V30 50 H -3.215719 -1.692512 0.282452 0
M  V30 51 H -1.519359 -1.789619 0.872182 0
M  V30 52 H -3.906810 -2.480937 -1.879636 0
M  V30 53 H -3.424503 -4.008883 -3.774493 0
M  V30 54 H 1.038033 -5.666568 -3.919906 0
M  V30 55 H 1.078374 -5.689598 -3.946149 0
M  V30 56 H 0.699748 -4.198583 -2.543175 0
M  V30 57 H 0.184252 -2.667377 -0.655286 0
M  V30 58 H -0.043786 -2.261830 2.699630 0
M  V30 59 H -1.404221 -4.112880 3.398062 0
M  V30 60 H -1.687950 -4.567051 5.827747 0
M  V30 61 H -0.583553 -3.124390 7.450759 0
M  V30 62 H 0.759962 -1.288050 6.704950 0
M  V30 END ATOM
M  V30 BEGIN BOND
M  V30 1 1 1 2
M  V30 2 1 2 3
M  V30 3 1 3 4
M  V30 4 2 4 5
M  V30 5 1 5 6
M  V30 6 2 6 7
M  V30 7 1 7 8
M  V30 8 1 8 9
M  V30 9 2 9 10
M  V30 10 1 10 11
M  V30 11 2 11 12
M  V30 12 1 12 13
M  V30 13 2 13 14
M  V30 14 1 14 15
M  V30 15 1 14 16
M  V30 16 2 16 17
M  V30 17 1 10 18
M  V30 18 2 18 19
M  V30 19 1 19 20
M  V30 20 1 20 21
M  V30 21 1 21 22
M  V30 22 2 22 23
M  V30 23 1 23 24
M  V30 24 2 24 25
M  V30 25 1 25 26
M  V30 26 1 26 27
M  V30 27 2 26 28
M  V30 28 1 25 29
M  V30 29 2 29 30
M  V30 30 2 8 31
M  V30 31 1 2 32
M  V30 32 2 32 33
M  V30 33 1 33 34
M  V30 34 2 34 35
M  V30 35 1 35 36
M  V30 36 2 36 37
M  V30 37 1 31 4
M  V30 38 1 37 32
M  V30 39 1 20 9
M  V30 40 1 30 22
M  V30 41 1 17 11
M  V30 42 1 1 38
M  V30 43 1 1 39
M  V30 44 1 1 40
M  V30 45 1 2 41 CFG=1
M  V30 46 1 3 42
M  V30 47 1 6 43
M  V30 48 1 7 44
M  V30 49 1 12 45
M  V30 50 1 13 46
M  V30 51 1 16 47
M  V30 52 1 17 48
M  V30 53 1 19 49
M  V30 54 1 21 50
M  V30 55 1 21 51
M  V30 56 1 23 52
M  V30 57 1 24 53
M  V30 58 1 27 54
M  V30 59 1 27 55
M  V30 60 1 29 56
M  V30 61 1 30 57
M  V30 62 1 33 58
M  V30 63 1 34 59
M  V30 64 1 35 60
M  V30 65 1 36 61
M  V30 66 1 37 62
M  V30 END BOND
M  V30 END CTAB
M  END
>  <Dataset>  (890) 
ChEMBL_Kinases

>  <Ligand_Instance>  (890) 
nan

>  <PDB_ID>  (890) 
nan

>  <Standardized_SMILES>  (890) 
C[C@H](Nc1nccc(-c2c(-c3ccc(F)cc3)ncn2Cc2ccc(C(N)=O)cc2)n1)c1ccccc1

>  <Name>  (890) 
nan

>  <Pocket>  (890) 
nan

>  <ATP_Site>  (890) 
nan

>  <Peripheral>  (890) 
nan

>  <Num_H_Atoms_ProtBoundConf>  (890) 
nan

>  <Num_Resolved_Atoms>  (890) 
nan

>  <Num_Not_Resolved_Atoms>  (890) 
nan

$$$$
CHEMBL4095742
     RDKit          3D

  0  0  0  0  0  0  0  0  0  0999 V3000
M  V30 BEGIN CTAB
M  V30 COUNTS 67 71 0 0 0
M  V30 BEGIN ATOM
M  V30 1 C 0.034400 -3.561288 2.117648 0
M  V30 2 N 1.266544 -3.428122 1.381921 0
M  V30 3 C 1.376195 -3.748623 0.084531 0
M  V30 4 C 0.434122 -4.275707 -0.937012 0
M  V30 5 N -0.172758 -3.105946 -1.547226 0
M  V30 6 C -1.063391 -3.397279 -2.615821 0
M  V30 7 C -1.322325 -4.686300 -3.036188 0
M  V30 8 C -2.207159 -4.867078 -4.097992 0
M  V30 9 C -2.853421 -3.826250 -4.769733 0
M  V30 10 C -2.579173 -2.549388 -4.332187 0
M  V30 11 C -3.239416 -1.447874 -5.019227 0
M  V30 12 O -3.985896 -1.727070 -5.992999 0
M  V30 13 N -3.122619 -0.069225 -4.693985 0
M  V30 14 C -3.830018 0.951718 -5.451145 0
M  V30 15 C -3.487832 2.256160 -4.824762 0
M  V30 16 C -2.297282 2.918451 -4.974768 0
M  V30 17 F -1.351180 2.355870 -5.747081 0
M  V30 18 C -2.078176 4.114290 -4.357937 0
M  V30 19 C -3.021706 4.745326 -3.545534 0
M  V30 20 C -4.234089 4.090883 -3.380939 0
M  V30 21 C -4.427866 2.889444 -4.012717 0
M  V30 22 F -5.646323 2.285683 -3.814768 0
M  V30 23 C -1.705167 -2.374385 -3.283502 0
M  V30 24 N 2.671026 -3.492653 -0.262013 0
M  V30 25 N 3.340865 -3.029744 0.782506 0
M  V30 26 C 2.455852 -2.992605 1.805037 0
M  V30 27 C 2.834425 -2.527239 3.132261 0
M  V30 28 C 2.977555 -3.192103 4.331852 0
M  V30 29 C 3.362255 -2.491905 5.455442 0
M  V30 30 N 3.601600 -1.172704 5.407764 0
M  V30 31 C 3.484789 -0.460146 4.285311 0
M  V30 32 N 3.744859 0.947071 4.233589 0
M  V30 33 C 2.616921 1.820328 4.560442 0
M  V30 34 C 2.217415 1.510336 5.974851 0
M  V30 35 C 2.905067 2.296438 6.900320 0
M  V30 36 C 2.668302 2.149603 8.267778 0
M  V30 37 C 1.736266 1.205461 8.667930 0
M  V30 38 C 1.051389 0.422243 7.742756 0
M  V30 39 C 1.293842 0.576846 6.397254 0
M  V30 40 C 3.095246 -1.149470 3.131150 0
M  V30 41 H 0.155131 -3.288831 3.170655 0
M  V30 42 H -0.772935 -2.990894 1.612783 0
M  V30 43 H -0.301623 -4.631111 2.098331 0
M  V30 44 H -0.373972 -4.866092 -0.459958 0
M  V30 45 H 0.947549 -4.922665 -1.663794 0
M  V30 46 H -0.010942 -2.119850 -1.272980 0
M  V30 47 H -0.853576 -5.534430 -2.556717 0
M  V30 48 H -2.423720 -5.873816 -4.443420 0
M  V30 49 H -3.521425 -4.065399 -5.581360 0
M  V30 50 H -2.489495 0.151962 -3.869073 0
M  V30 51 H -4.921860 0.788381 -5.367595 0
M  V30 52 H -3.499787 0.907221 -6.510893 0
M  V30 53 H -1.155731 4.676071 -4.444844 0
M  V30 54 H -2.889296 5.685917 -3.041432 0
M  V30 55 H -4.990505 4.546363 -2.760208 0
M  V30 56 H -1.488288 -1.363720 -2.936758 0
M  V30 57 H 2.751723 -4.248045 4.218170 0
M  V30 58 H 3.443752 -3.109052 6.342292 0
M  V30 59 H 4.714061 1.288265 3.968424 0
M  V30 60 H 2.815695 2.877218 4.402154 0
M  V30 61 H 1.750943 1.497993 3.931074 0
M  V30 62 H 3.641892 3.047585 6.646985 0
M  V30 63 H 3.188413 2.746609 9.000486 0
M  V30 64 H 1.575509 1.114965 9.733869 0
M  V30 65 H 0.331945 -0.306219 8.068088 0
M  V30 66 H 0.826243 0.031118 5.617058 0
M  V30 67 H 3.017926 -0.502808 2.240630 0
M  V30 END ATOM
M  V30 BEGIN BOND
M  V30 1 1 1 2
M  V30 2 1 2 3
M  V30 3 1 3 4
M  V30 4 1 4 5
M  V30 5 1 5 6
M  V30 6 2 6 7
M  V30 7 1 7 8
M  V30 8 2 8 9
M  V30 9 1 9 10
M  V30 10 1 10 11
M  V30 11 2 11 12
M  V30 12 1 11 13
M  V30 13 1 13 14
M  V30 14 1 14 15
M  V30 15 2 15 16
M  V30 16 1 16 17
M  V30 17 1 16 18
M  V30 18 2 18 19
M  V30 19 1 19 20
M  V30 20 2 20 21
M  V30 21 1 21 22
M  V30 22 2 10 23
M  V30 23 2 3 24
M  V30 24 1 24 25
M  V30 25 2 25 26
M  V30 26 1 26 27
M  V30 27 2 27 28
M  V30 28 1 28 29
M  V30 29 2 29 30
M  V30 30 1 30 31
M  V30 31 1 31 32
M  V30 32 1 32 33
M  V30 33 1 33 34
M  V30 34 2 34 35
M  V30 35 1 35 36
M  V30 36 2 36 37
M  V30 37 1 37 38
M  V30 38 2 38 39
M  V30 39 2 31 40
M  V30 40 1 26 2
M  V30 41 1 40 27
M  V30 42 1 23 6
M  V30 43 1 39 34
M  V30 44 1 21 15
M  V30 45 1 1 41
M  V30 46 1 1 42
M  V30 47 1 1 43
M  V30 48 1 4 44
M  V30 49 1 4 45
M  V30 50 1 5 46
M  V30 51 1 7 47
M  V30 52 1 8 48
M  V30 53 1 9 49
M  V30 54 1 13 50
M  V30 55 1 14 51
M  V30 56 1 14 52
M  V30 57 1 18 53
M  V30 58 1 19 54
M  V30 59 1 20 55
M  V30 60 1 23 56
M  V30 61 1 28 57
M  V30 62 1 29 58
M  V30 63 1 32 59
M  V30 64 1 33 60
M  V30 65 1 33 61
M  V30 66 1 35 62
M  V30 67 1 36 63
M  V30 68 1 37 64
M  V30 69 1 38 65
M  V30 70 1 39 66
M  V30 71 1 40 67
M  V30 END BOND
M  V30 END CTAB
M  END
>  <Dataset>  (891) 
ChEMBL_Kinases

>  <Ligand_Instance>  (891) 
nan

>  <PDB_ID>  (891) 
nan

>  <Standardized_SMILES>  (891) 
Cn1c(CNc2cccc(C(=O)NCc3c(F)cccc3F)c2)nnc1-c1ccnc(NCc2ccccc2)c1

>  <Name>  (891) 
nan

>  <Pocket>  (891) 
nan

>  <ATP_Site>  (891) 
nan

>  <Peripheral>  (891) 
nan

>  <Num_H_Atoms_ProtBoundConf>  (891) 
nan

>  <Num_Resolved_Atoms>  (891) 
nan

>  <Num_Not_Resolved_Atoms>  (891) 
nan

$$$$
CHEMBL4095732
     RDKit          3D

  0  0  0  0  0  0  0  0  0  0999 V3000
M  V30 BEGIN CTAB
M  V30 COUNTS 61 65 0 0 0
M  V30 BEGIN ATOM
M  V30 1 C 8.199081 -1.329384 5.371678 0
M  V30 2 N 7.114652 -1.094255 4.454000 0
M  V30 3 C 7.456934 -0.357630 3.294387 0
M  V30 4 O 8.653890 -0.004173 3.212350 0
M  V30 5 C 6.517544 -0.006196 2.234628 0
M  V30 6 C 6.979844 0.706319 1.167071 0
M  V30 7 C 6.144583 1.074759 0.123914 0
M  V30 8 C 4.804705 0.734432 0.122736 0
M  V30 9 C 4.373769 0.004098 1.236743 0
M  V30 10 C 5.200973 -0.365802 2.278447 0
M  V30 11 C 3.019020 -0.494170 1.511943 0
M  V30 12 O 2.819605 -1.214602 2.528534 0
M  V30 13 C 1.835002 -0.231585 0.699838 0
M  V30 14 C 0.833029 -1.137614 1.007092 0
M  V30 15 C -0.363132 -1.029196 0.325993 0
M  V30 16 C -0.527674 -0.042356 -0.624085 0
M  V30 17 N -1.756687 0.069533 -1.330110 0
M  V30 18 C -2.869572 -0.807231 -1.254130 0
M  V30 19 C -4.145302 -0.481105 -0.845571 0
M  V30 20 C -5.153410 -1.421947 -0.816859 0
M  V30 21 C -6.466473 -0.974426 -0.365999 0
M  V30 22 O -6.623990 0.216135 -0.039498 0
M  V30 23 N -7.592187 -1.811399 -0.271692 0
M  V30 24 C -8.899185 -1.353888 0.181157 0
M  V30 25 C -9.754804 -2.319664 0.908026 0
M  V30 26 C -10.057889 -1.999291 -0.508742 0
M  V30 27 C -4.902038 -2.722784 -1.201038 0
M  V30 28 C -3.609879 -3.054954 -1.615657 0
M  V30 29 C -2.580676 -2.110969 -1.648870 0
M  V30 30 C -1.306620 -2.684620 -2.123585 0
M  V30 31 C 0.457887 0.868628 -0.943619 0
M  V30 32 C 1.655447 0.763267 -0.264200 0
M  V30 33 C 2.661332 1.778482 -0.666381 0
M  V30 34 C 3.987865 1.162189 -1.017302 0
M  V30 35 H 8.272232 -0.412339 6.007304 0
M  V30 36 H 7.851178 -2.126160 6.084233 0
M  V30 37 H 9.133037 -1.598848 4.877203 0
M  V30 38 H 6.127735 -1.414100 4.574229 0
M  V30 39 H 8.036684 0.997599 1.126323 0
M  V30 40 H 6.479465 1.642634 -0.743492 0
M  V30 41 H 4.799072 -0.928368 3.104093 0
M  V30 42 H 1.039071 -1.887840 1.769141 0
M  V30 43 H -1.108811 -1.738632 0.589918 0
M  V30 44 H -1.969227 0.829820 -1.994030 0
M  V30 45 H -4.294468 0.556111 -0.552694 0
M  V30 46 H -7.513784 -2.818973 -0.533730 0
M  V30 47 H -8.959755 -0.281246 0.451197 0
M  V30 48 H -10.501017 -1.933126 1.634524 0
M  V30 49 H -9.337814 -3.298954 1.204486 0
M  V30 50 H -10.967424 -1.388442 -0.752226 0
M  V30 51 H -9.900056 -2.811273 -1.250016 0
M  V30 52 H -5.687789 -3.446454 -1.176075 0
M  V30 53 H -3.499863 -4.106946 -1.902771 0
M  V30 54 H -0.865091 -3.376431 -1.358765 0
M  V30 55 H -0.614301 -1.882963 -2.435417 0
M  V30 56 H -1.482655 -3.287262 -3.052276 0
M  V30 57 H 0.375548 1.656333 -1.677150 0
M  V30 58 H 2.318739 2.351849 -1.533517 0
M  V30 59 H 2.774396 2.476714 0.177306 0
M  V30 60 H 3.799561 0.319536 -1.729566 0
M  V30 61 H 4.561876 1.918544 -1.594003 0
M  V30 END ATOM
M  V30 BEGIN BOND
M  V30 1 1 1 2
M  V30 2 1 2 3
M  V30 3 2 3 4
M  V30 4 1 3 5
M  V30 5 2 5 6
M  V30 6 1 6 7
M  V30 7 2 7 8
M  V30 8 1 8 9
M  V30 9 2 9 10
M  V30 10 1 9 11
M  V30 11 2 11 12
M  V30 12 1 11 13
M  V30 13 2 13 14
M  V30 14 1 14 15
M  V30 15 2 15 16
M  V30 16 1 16 17
M  V30 17 1 17 18
M  V30 18 2 18 19
M  V30 19 1 19 20
M  V30 20 1 20 21
M  V30 21 2 21 22
M  V30 22 1 21 23
M  V30 23 1 23 24
M  V30 24 1 24 25
M  V30 25 1 25 26
M  V30 26 2 20 27
M  V30 27 1 27 28
M  V30 28 2 28 29
M  V30 29 1 29 30
M  V30 30 1 16 31
M  V30 31 2 31 32
M  V30 32 1 32 33
M  V30 33 1 33 34
M  V30 34 1 10 5
M  V30 35 1 32 13
M  V30 36 1 34 8
M  V30 37 1 29 18
M  V30 38 1 26 24
M  V30 39 1 1 35
M  V30 40 1 1 36
M  V30 41 1 1 37
M  V30 42 1 2 38
M  V30 43 1 6 39
M  V30 44 1 7 40
M  V30 45 1 10 41
M  V30 46 1 14 42
M  V30 47 1 15 43
M  V30 48 1 17 44
M  V30 49 1 19 45
M  V30 50 1 23 46
M  V30 51 1 24 47
M  V30 52 1 25 48
M  V30 53 1 25 49
M  V30 54 1 26 50
M  V30 55 1 26 51
M  V30 56 1 27 52
M  V30 57 1 28 53
M  V30 58 1 30 54
M  V30 59 1 30 55
M  V30 60 1 30 56
M  V30 61 1 31 57
M  V30 62 1 33 58
M  V30 63 1 33 59
M  V30 64 1 34 60
M  V30 65 1 34 61
M  V30 END BOND
M  V30 END CTAB
M  END
>  <Dataset>  (892) 
ChEMBL_Kinases

>  <Ligand_Instance>  (892) 
nan

>  <PDB_ID>  (892) 
nan

>  <Standardized_SMILES>  (892) 
CNC(=O)c1ccc2c(c1)C(=O)c1ccc(Nc3cc(C(=O)NC4CC4)ccc3C)cc1CC2

>  <Name>  (892) 
nan

>  <Pocket>  (892) 
nan

>  <ATP_Site>  (892) 
nan

>  <Peripheral>  (892) 
nan

>  <Num_H_Atoms_ProtBoundConf>  (892) 
nan

>  <Num_Resolved_Atoms>  (892) 
nan

>  <Num_Not_Resolved_Atoms>  (892) 
nan

$$$$
CHEMBL4095694
     RDKit          3D

  0  0  0  0  0  0  0  0  0  0999 V3000
M  V30 BEGIN CTAB
M  V30 COUNTS 35 37 0 0 0
M  V30 BEGIN ATOM
M  V30 1 C -1.138586 -4.408016 4.658428 0
M  V30 2 C -0.517928 -3.679700 3.529958 0
M  V30 3 C -1.308940 -2.767355 2.823360 0
M  V30 4 C -0.842772 -2.016467 1.738145 0
M  V30 5 C 0.482279 -2.197279 1.351450 0
M  V30 6 C 0.988962 -1.418140 0.214873 0
M  V30 7 C 1.975076 -1.913298 -0.630237 0
M  V30 8 N 2.360890 -1.113075 -1.636212 0
M  V30 9 C 1.842552 0.111148 -1.846970 0
M  V30 10 N 2.355095 0.826489 -2.947206 0
M  V30 11 C 0.867923 0.659509 -1.051730 0
M  V30 12 C 0.292279 1.979623 -1.258893 0
M  V30 13 C 0.536264 2.929040 -2.196935 0
M  V30 14 N -0.281415 3.986595 -1.935255 0
M  V30 15 C -1.013632 3.663294 -0.837339 0
M  V30 16 C -2.065437 4.434161 -0.100041 0
M  V30 17 O -0.638881 2.481090 -0.483101 0
M  V30 18 C 0.468476 -0.158500 -0.017314 0
M  V30 19 C 1.271431 -3.099576 2.047147 0
M  V30 20 C 0.805359 -3.837168 3.116827 0
M  V30 21 H -0.371278 -5.094371 5.074364 0
M  V30 22 H -2.055156 -4.916185 4.302790 0
M  V30 23 H -1.477162 -3.704468 5.465514 0
M  V30 24 H -2.355693 -2.623313 3.127224 0
M  V30 25 H -1.526673 -1.333404 1.250638 0
M  V30 26 H 2.374145 -2.898238 -0.439133 0
M  V30 27 H 2.025060 0.770862 -3.931594 0
M  V30 28 H 3.148334 1.467105 -2.699953 0
M  V30 29 H 1.230042 2.886035 -2.999622 0
M  V30 30 H -1.859759 4.340939 0.989724 0
M  V30 31 H -2.099909 5.475535 -0.434684 0
M  V30 32 H -3.004324 3.865098 -0.263458 0
M  V30 33 H -0.302165 0.193935 0.666465 0
M  V30 34 H 2.312882 -3.221104 1.719159 0
M  V30 35 H 1.416825 -4.542255 3.662901 0
M  V30 END ATOM
M  V30 BEGIN BOND
M  V30 1 1 1 2
M  V30 2 2 2 3
M  V30 3 1 3 4
M  V30 4 2 4 5
M  V30 5 1 5 6
M  V30 6 2 6 7
M  V30 7 1 7 8
M  V30 8 2 8 9
M  V30 9 1 9 10
M  V30 10 1 9 11
M  V30 11 1 11 12
M  V30 12 2 12 13
M  V30 13 1 13 14
M  V30 14 2 14 15
M  V30 15 1 15 16
M  V30 16 1 15 17
M  V30 17 2 11 18
M  V30 18 1 5 19
M  V30 19 2 19 20
M  V30 20 1 20 2
M  V30 21 1 18 6
M  V30 22 1 17 12
M  V30 23 1 1 21
M  V30 24 1 1 22
M  V30 25 1 1 23
M  V30 26 1 3 24
M  V30 27 1 4 25
M  V30 28 1 7 26
M  V30 29 1 10 27
M  V30 30 1 10 28
M  V30 31 1 13 29
M  V30 32 1 16 30
M  V30 33 1 16 31
M  V30 34 1 16 32
M  V30 35 1 18 33
M  V30 36 1 19 34
M  V30 37 1 20 35
M  V30 END BOND
M  V30 END CTAB
M  END
>  <Dataset>  (893) 
ChEMBL_Kinases

>  <Ligand_Instance>  (893) 
nan

>  <PDB_ID>  (893) 
nan

>  <Standardized_SMILES>  (893) 
Cc1ccc(-c2cnc(N)c(-c3cnc(C)o3)c2)cc1

>  <Name>  (893) 
nan

>  <Pocket>  (893) 
nan

>  <ATP_Site>  (893) 
nan

>  <Peripheral>  (893) 
nan

>  <Num_H_Atoms_ProtBoundConf>  (893) 
nan

>  <Num_Resolved_Atoms>  (893) 
nan

>  <Num_Not_Resolved_Atoms>  (893) 
nan

$$$$
CHEMBL4095689
     RDKit          3D

  0  0  0  0  0  0  0  0  0  0999 V3000
M  V30 BEGIN CTAB
M  V30 COUNTS 51 52 0 0 0
M  V30 BEGIN ATOM
M  V30 1 C 5.252525 -2.936493 5.454608 0
M  V30 2 C 4.335155 -3.131106 4.243560 0
M  V30 3 C 2.957782 -2.605264 4.560725 0
M  V30 4 C 2.994738 -1.148376 4.895724 0
M  V30 5 C 3.536042 -0.304285 3.749525 0
M  V30 6 C 2.629398 -0.525996 2.585348 0
M  V30 7 C 3.070257 0.267922 1.358680 0
M  V30 8 C 2.107979 -0.004778 0.227345 0
M  V30 9 O 1.352299 -0.743411 0.937324 0
M  V30 10 N 2.105890 0.435878 -1.117004 0
M  V30 11 N 0.925068 -0.188354 -1.598905 0
M  V30 12 C -0.246390 0.579081 -1.434098 0
M  V30 13 O -0.039473 1.691635 -0.883694 0
M  V30 14 C -1.604081 0.240755 -1.811954 0
M  V30 15 C -2.575322 1.173848 -1.503231 0
M  V30 16 O -2.291692 2.395753 -0.857936 0
M  V30 17 C -3.914415 0.931033 -1.828692 0
M  V30 18 C -4.852607 1.882413 -1.505299 0
M  V30 19 C -6.191031 1.735090 -1.782800 0
M  V30 20 Br -7.455551 3.084676 -1.313521 0
M  V30 21 C -6.550383 0.564175 -2.414028 0
M  V30 22 C -5.625158 -0.388828 -2.739785 0
M  V30 23 C -4.274443 -0.230538 -2.454275 0
M  V30 24 N -3.343844 -1.121562 -2.748577 0
M  V30 25 C -3.726439 -2.346223 -3.411925 0
M  V30 26 C -2.054577 -0.896036 -2.439494 0
M  V30 27 O -1.201085 -1.764361 -2.734848 0
M  V30 28 H 5.980316 -3.765487 5.455282 0
M  V30 29 H 5.687640 -1.931927 5.363414 0
M  V30 30 H 4.576156 -3.016218 6.344166 0
M  V30 31 H 4.271377 -4.228951 3.994083 0
M  V30 32 H 4.769731 -2.597442 3.378673 0
M  V30 33 H 2.236912 -2.893837 3.780231 0
M  V30 34 H 2.613364 -3.128274 5.496758 0
M  V30 35 H 1.980442 -0.807559 5.185926 0
M  V30 36 H 3.648899 -1.041292 5.791211 0
M  V30 37 H 4.560193 -0.578846 3.499062 0
M  V30 38 H 3.446074 0.769769 4.076720 0
M  V30 39 H 2.775742 -1.606466 2.284958 0
M  V30 40 H 1.570102 -0.431130 2.818330 0
M  V30 41 H 4.042452 -0.154476 1.045289 0
M  V30 42 H 3.089545 1.335029 1.597141 0
M  V30 43 H 2.961187 1.009238 -1.177422 0
M  V30 44 H 0.870891 -1.103291 -2.031884 0
M  V30 45 H -2.509091 2.493285 0.131523 0
M  V30 46 H -4.569841 2.806327 -1.005736 0
M  V30 47 H -7.590771 0.412603 -2.649587 0
M  V30 48 H -5.927873 -1.295066 -3.231807 0
M  V30 49 H -2.865570 -2.955607 -3.722907 0
M  V30 50 H -4.303717 -2.084466 -4.333078 0
M  V30 51 H -4.387100 -2.979269 -2.798458 0
M  V30 END ATOM
M  V30 BEGIN BOND
M  V30 1 1 1 2
M  V30 2 1 2 3
M  V30 3 1 3 4
M  V30 4 1 4 5
M  V30 5 1 5 6
M  V30 6 1 6 7
M  V30 7 1 7 8
M  V30 8 2 8 9
M  V30 9 1 8 10
M  V30 10 1 10 11
M  V30 11 1 11 12
M  V30 12 2 12 13
M  V30 13 1 12 14
M  V30 14 2 14 15
M  V30 15 1 15 16
M  V30 16 1 15 17
M  V30 17 2 17 18
M  V30 18 1 18 19
M  V30 19 1 19 20
M  V30 20 2 19 21
M  V30 21 1 21 22
M  V30 22 2 22 23
M  V30 23 1 23 24
M  V30 24 1 24 25
M  V30 25 1 24 26
M  V30 26 2 26 27
M  V30 27 1 26 14
M  V30 28 1 23 17
M  V30 29 1 1 28
M  V30 30 1 1 29
M  V30 31 1 1 30
M  V30 32 1 2 31
M  V30 33 1 2 32
M  V30 34 1 3 33
M  V30 35 1 3 34
M  V30 36 1 4 35
M  V30 37 1 4 36
M  V30 38 1 5 37
M  V30 39 1 5 38
M  V30 40 1 6 39
M  V30 41 1 6 40
M  V30 42 1 7 41
M  V30 43 1 7 42
M  V30 44 1 10 43
M  V30 45 1 11 44
M  V30 46 1 16 45
M  V30 47 1 18 46
M  V30 48 1 21 47
M  V30 49 1 22 48
M  V30 50 1 25 49
M  V30 51 1 25 50
M  V30 52 1 25 51
M  V30 END BOND
M  V30 END CTAB
M  END
>  <Dataset>  (894) 
ChEMBL_Kinases

>  <Ligand_Instance>  (894) 
nan

>  <PDB_ID>  (894) 
nan

>  <Standardized_SMILES>  (894) 
CCCCCCCC(=O)NNC(=O)c1c(O)c2cc(Br)ccc2n(C)c1=O

>  <Name>  (894) 
nan

>  <Pocket>  (894) 
nan

>  <ATP_Site>  (894) 
nan

>  <Peripheral>  (894) 
nan

>  <Num_H_Atoms_ProtBoundConf>  (894) 
nan

>  <Num_Resolved_Atoms>  (894) 
nan

>  <Num_Not_Resolved_Atoms>  (894) 
nan

$$$$
CHEMBL4096077
     RDKit          3D

  0  0  0  0  0  0  0  0  0  0999 V3000
M  V30 BEGIN CTAB
M  V30 COUNTS 35 38 0 0 0
M  V30 BEGIN ATOM
M  V30 1 C 0.450830 -3.400382 4.200069 0
M  V30 2 C 0.996895 -4.331051 3.182368 0
M  V30 3 N 1.256692 -5.647667 3.432035 0
M  V30 4 N 1.729150 -6.169849 2.313582 0
M  V30 5 C 1.770781 -5.215859 1.375116 0
M  V30 6 C 1.308299 -4.004822 1.882117 0
M  V30 7 C 1.206060 -2.753717 1.168533 0
M  V30 8 C 0.804229 -1.519905 1.457368 0
M  V30 9 C 0.844312 -0.550491 0.511270 0
M  V30 10 N 0.501620 0.750361 0.549733 0
M  V30 11 C 0.605038 1.570004 -0.478619 0
M  V30 12 C 0.183567 3.007271 -0.292310 0
M  V30 13 N -1.195481 3.232144 -0.597025 0
M  V30 14 C -1.755234 3.568601 -1.774857 0
M  V30 15 C -3.111807 3.678502 -1.595826 0
M  V30 16 C -3.360217 3.397156 -0.266792 0
M  V30 17 C -2.161121 3.119006 0.353249 0
M  V30 18 N 1.060398 1.235130 -1.698805 0
M  V30 19 C 1.436002 -0.043632 -1.864330 0
M  V30 20 O 1.882508 -0.576964 -2.888872 0
M  V30 21 C 1.313256 -0.892786 -0.747401 0
M  V30 22 S 1.697654 -2.652442 -0.537283 0
M  V30 23 H 0.255608 -3.926854 5.161858 0
M  V30 24 H 1.163330 -2.551800 4.351438 0
M  V30 25 H -0.508411 -2.957404 3.874001 0
M  V30 26 H 2.016660 -7.168387 2.204711 0
M  V30 27 H 2.133852 -5.432165 0.360282 0
M  V30 28 H 0.450104 -1.322118 2.458905 0
M  V30 29 H 0.821225 3.664172 -0.939955 0
M  V30 30 H 0.439189 3.270488 0.753299 0
M  V30 31 H -1.235667 3.728970 -2.713995 0
M  V30 32 H -3.903866 3.927476 -2.285954 0
M  V30 33 H -4.324031 3.383058 0.256747 0
M  V30 34 H -2.032715 2.862561 1.394188 0
M  V30 35 H 1.155455 1.851944 -2.529554 0
M  V30 END ATOM
M  V30 BEGIN BOND
M  V30 1 1 1 2
M  V30 2 2 2 3
M  V30 3 1 3 4
M  V30 4 1 4 5
M  V30 5 2 5 6
M  V30 6 1 6 7
M  V30 7 2 7 8
M  V30 8 1 8 9
M  V30 9 1 9 10
M  V30 10 2 10 11
M  V30 11 1 11 12
M  V30 12 1 12 13
M  V30 13 1 13 14
M  V30 14 2 14 15
M  V30 15 1 15 16
M  V30 16 2 16 17
M  V30 17 1 11 18
M  V30 18 1 18 19
M  V30 19 2 19 20
M  V30 20 1 19 21
M  V30 21 1 21 22
M  V30 22 1 6 2
M  V30 23 1 22 7
M  V30 24 2 21 9
M  V30 25 1 17 13
M  V30 26 1 1 23
M  V30 27 1 1 24
M  V30 28 1 1 25
M  V30 29 1 4 26
M  V30 30 1 5 27
M  V30 31 1 8 28
M  V30 32 1 12 29
M  V30 33 1 12 30
M  V30 34 1 14 31
M  V30 35 1 15 32
M  V30 36 1 16 33
M  V30 37 1 17 34
M  V30 38 1 18 35
M  V30 END BOND
M  V30 END CTAB
M  END
>  <Dataset>  (895) 
ChEMBL_Kinases

>  <Ligand_Instance>  (895) 
nan

>  <PDB_ID>  (895) 
nan

>  <Standardized_SMILES>  (895) 
Cc1n[nH]cc1-c1cc2nc(Cn3cccc3)[nH]c(=O)c2s1

>  <Name>  (895) 
nan

>  <Pocket>  (895) 
nan

>  <ATP_Site>  (895) 
nan

>  <Peripheral>  (895) 
nan

>  <Num_H_Atoms_ProtBoundConf>  (895) 
nan

>  <Num_Resolved_Atoms>  (895) 
nan

>  <Num_Not_Resolved_Atoms>  (895) 
nan

$$$$
CHEMBL4093930
     RDKit          3D

  0  0  0  0  0  0  0  0  0  0999 V3000
M  V30 BEGIN CTAB
M  V30 COUNTS 48 51 0 0 0
M  V30 BEGIN ATOM
M  V30 1 C 1.214316 -2.995128 0.206261 0
M  V30 2 C 0.400975 -1.762088 -0.120677 0 CFG=2
M  V30 3 C 1.278024 -0.868493 -1.001748 0
M  V30 4 N 2.349456 -0.279649 -0.185993 0
M  V30 5 C 3.736465 -0.483315 -0.455223 0
M  V30 6 C 4.742289 0.047193 0.328422 0
M  V30 7 C 6.071635 -0.194704 0.000839 0
M  V30 8 C 6.349966 -0.966023 -1.109394 0
M  V30 9 C 5.314928 -1.489899 -1.883699 0
M  V30 10 N 4.016724 -1.242694 -1.548046 0
M  V30 11 C 1.804222 0.501902 0.879736 0
M  V30 12 C 0.961186 -0.349228 1.800447 0
M  V30 13 N -0.068616 -1.066967 1.055817 0
M  V30 14 C -1.402449 -0.998859 1.566294 0
M  V30 15 N -2.215499 -0.005152 1.098754 0
M  V30 16 C -3.471289 0.136341 1.518873 0
M  V30 17 C -4.340465 1.193759 1.019135 0
M  V30 18 C -3.942019 2.122529 0.083469 0
M  V30 19 C -4.712563 3.138951 -0.424939 0
M  V30 20 N -5.980018 3.199760 0.066441 0
M  V30 21 C -6.397356 2.308858 0.978889 0
M  V30 22 N -5.611946 1.305496 1.470231 0
M  V30 23 C -3.952842 -0.747403 2.448995 0
M  V30 24 C -3.127759 -1.755516 2.923179 0
M  V30 25 O -3.600528 -2.560110 3.785016 0
M  V30 26 N -1.852421 -1.878765 2.479702 0
M  V30 27 C -0.993177 -2.937196 2.981591 0
M  V30 28 H 1.966046 -3.226403 -0.563388 0
M  V30 29 H 1.701552 -2.959772 1.182124 0
M  V30 30 H 0.504690 -3.859379 0.205944 0
M  V30 31 H -0.466838 -2.029083 -0.789172 0
M  V30 32 H 0.683916 -0.067979 -1.458862 0
M  V30 33 H 1.702154 -1.552000 -1.765001 0
M  V30 34 H 4.497977 0.636720 1.176122 0
M  V30 35 H 6.812131 0.250830 0.657341 0
M  V30 36 H 7.391104 -1.149077 -1.357247 0
M  V30 37 H 5.617186 -2.082602 -2.735292 0
M  V30 38 H 2.526824 1.055722 1.482298 0
M  V30 39 H 1.112528 1.254015 0.407441 0
M  V30 40 H 1.618673 -1.048597 2.377777 0
M  V30 41 H 0.515779 0.333237 2.558046 0
M  V30 42 H -2.930216 2.061094 -0.297371 0
M  V30 43 H -4.335362 3.836674 -1.160932 0
M  V30 44 H -7.406556 2.362693 1.365704 0
M  V30 45 H -4.955655 -0.666318 2.810516 0
M  V30 46 H -0.051159 -2.529810 3.409071 0
M  V30 47 H -1.511979 -3.451441 3.823008 0
M  V30 48 H -0.820010 -3.709337 2.204225 0
M  V30 END ATOM
M  V30 BEGIN BOND
M  V30 1 1 1 2
M  V30 2 1 2 3
M  V30 3 1 3 4
M  V30 4 1 4 5
M  V30 5 2 5 6
M  V30 6 1 6 7
M  V30 7 2 7 8
M  V30 8 1 8 9
M  V30 9 2 9 10
M  V30 10 1 4 11
M  V30 11 1 11 12
M  V30 12 1 12 13
M  V30 13 1 13 14
M  V30 14 2 14 15
M  V30 15 1 15 16
M  V30 16 1 16 17
M  V30 17 2 17 18
M  V30 18 1 18 19
M  V30 19 2 19 20
M  V30 20 1 20 21
M  V30 21 2 21 22
M  V30 22 2 16 23
M  V30 23 1 23 24
M  V30 24 2 24 25
M  V30 25 1 24 26
M  V30 26 1 26 27
M  V30 27 1 13 2
M  V30 28 1 26 14
M  V30 29 1 10 5
M  V30 30 1 22 17
M  V30 31 1 1 28
M  V30 32 1 1 29
M  V30 33 1 1 30
M  V30 34 1 2 31 CFG=3
M  V30 35 1 3 32
M  V30 36 1 3 33
M  V30 37 1 6 34
M  V30 38 1 7 35
M  V30 39 1 8 36
M  V30 40 1 9 37
M  V30 41 1 11 38
M  V30 42 1 11 39
M  V30 43 1 12 40
M  V30 44 1 12 41
M  V30 45 1 18 42
M  V30 46 1 19 43
M  V30 47 1 21 44
M  V30 48 1 23 45
M  V30 49 1 27 46
M  V30 50 1 27 47
M  V30 51 1 27 48
M  V30 END BOND
M  V30 END CTAB
M  END
>  <Dataset>  (896) 
ChEMBL_Kinases

>  <Ligand_Instance>  (896) 
nan

>  <PDB_ID>  (896) 
nan

>  <Standardized_SMILES>  (896) 
C[C@@H]1CN(c2ccccn2)CCN1c1nc(-c2ccncn2)cc(=O)n1C

>  <Name>  (896) 
nan

>  <Pocket>  (896) 
nan

>  <ATP_Site>  (896) 
nan

>  <Peripheral>  (896) 
nan

>  <Num_H_Atoms_ProtBoundConf>  (896) 
nan

>  <Num_Resolved_Atoms>  (896) 
nan

>  <Num_Not_Resolved_Atoms>  (896) 
nan

$$$$
CHEMBL4093914
     RDKit          3D

  0  0  0  0  0  0  0  0  0  0999 V3000
M  V30 BEGIN CTAB
M  V30 COUNTS 69 73 0 0 0
M  V30 BEGIN ATOM
M  V30 1 O 6.746259 -1.729390 4.284433 0
M  V30 2 C 5.484264 -1.872123 4.402057 0
M  V30 3 N 5.152587 -3.022466 5.162553 0
M  V30 4 C 6.418942 -3.615454 5.521950 0
M  V30 5 C 6.178084 -4.852518 6.340985 0
M  V30 6 O 5.418172 -5.766383 5.585512 0
M  V30 7 C 5.492546 -4.613092 7.645430 0
M  V30 8 O 6.198872 -3.711917 8.443281 0
M  V30 9 C 4.651543 -0.864517 3.754980 0
M  V30 10 C 5.292562 0.211030 3.173106 0
M  V30 11 C 4.511389 1.155755 2.546394 0
M  V30 12 C 3.131707 1.127590 2.443689 0
M  V30 13 C 2.559010 0.002897 3.060973 0
M  V30 14 C 3.267199 -1.013778 3.725222 0
M  V30 15 C 1.109326 -0.335121 3.107739 0
M  V30 16 O 0.709138 -0.973339 4.109157 0
M  V30 17 C 0.183899 0.068205 2.012918 0
M  V30 18 C -0.980197 -0.666577 2.169020 0
M  V30 19 C -2.009143 -0.477154 1.240801 0
M  V30 20 C -1.878629 0.416100 0.193802 0
M  V30 21 N -2.788859 0.689527 -0.835286 0
M  V30 22 C -3.686937 -0.157982 -1.546064 0
M  V30 23 C -3.632630 -1.528597 -1.423841 0
M  V30 24 C -4.463022 -2.423320 -2.089096 0
M  V30 25 C -5.425023 -1.903796 -2.944633 0
M  V30 26 F -6.287564 -2.674854 -3.646589 0
M  V30 27 C -5.489095 -0.549069 -3.075276 0
M  V30 28 N -6.425180 0.136896 -3.942553 0
M  V30 29 C -5.650216 0.249984 -5.146734 0
M  V30 30 O -4.504507 -0.285478 -4.942425 0
M  V30 31 C -6.069900 0.873842 -6.423482 0
M  V30 32 C -7.324164 1.400053 -6.647570 0
M  V30 33 C -7.559597 1.966410 -7.908878 0
M  V30 34 C -6.599653 2.009785 -8.894802 0
M  V30 35 C -5.353241 1.457986 -8.591751 0
M  V30 36 C -5.062317 0.886028 -7.369926 0
M  V30 37 C -4.647483 0.323554 -2.398971 0
M  V30 38 C -0.673026 1.132610 0.092244 0
M  V30 39 C 0.393946 0.985876 0.988801 0
M  V30 40 C 1.532312 1.834768 0.652662 0
M  V30 41 C 2.455765 2.206658 1.744832 0
M  V30 42 H 4.110249 -3.146279 5.264026 0
M  V30 43 H 7.008299 -3.909284 4.625334 0
M  V30 44 H 7.055002 -2.926651 6.097955 0
M  V30 45 H 7.143274 -5.357838 6.574861 0
M  V30 46 H 4.496118 -5.771733 5.955053 0
M  V30 47 H 5.498128 -5.583795 8.226681 0
M  V30 48 H 4.438497 -4.313371 7.581288 0
M  V30 49 H 5.769342 -2.828303 8.438068 0
M  V30 50 H 6.371832 0.349637 3.183473 0
M  V30 51 H 4.965984 2.025626 2.066035 0
M  V30 52 H 2.750540 -1.825417 4.163946 0
M  V30 53 H -1.099710 -1.365567 2.979912 0
M  V30 54 H -2.935651 -1.005288 1.306875 0
M  V30 55 H -2.845075 1.707244 -1.155248 0
M  V30 56 H -2.922581 -2.047798 -0.794970 0
M  V30 57 H -4.409631 -3.489962 -1.981891 0
M  V30 58 H -7.400269 0.552994 -4.009016 0
M  V30 59 H -8.039745 1.343165 -5.847049 0
M  V30 60 H -8.551668 2.378437 -8.077018 0
M  V30 61 H -6.813600 2.454659 -9.865709 0
M  V30 62 H -4.555315 1.473497 -9.349677 0
M  V30 63 H -4.073823 0.477156 -7.205199 0
M  V30 64 H -4.713270 1.415443 -2.514993 0
M  V30 65 H -0.484908 1.852265 -0.697202 0
M  V30 66 H 2.150583 1.229890 -0.080842 0
M  V30 67 H 1.188381 2.696903 0.050364 0
M  V30 68 H 3.234130 2.890802 1.312447 0
M  V30 69 H 1.896592 2.819165 2.482157 0
M  V30 END ATOM
M  V30 BEGIN BOND
M  V30 1 2 1 2
M  V30 2 1 2 3
M  V30 3 1 3 4
M  V30 4 1 4 5
M  V30 5 1 5 6
M  V30 6 1 5 7
M  V30 7 1 7 8
M  V30 8 1 2 9
M  V30 9 2 9 10
M  V30 10 1 10 11
M  V30 11 2 11 12
M  V30 12 1 12 13
M  V30 13 2 13 14
M  V30 14 1 13 15
M  V30 15 2 15 16
M  V30 16 1 15 17
M  V30 17 2 17 18
M  V30 18 1 18 19
M  V30 19 2 19 20
M  V30 20 1 20 21
M  V30 21 1 21 22
M  V30 22 2 22 23
M  V30 23 1 23 24
M  V30 24 2 24 25
M  V30 25 1 25 26
M  V30 26 1 25 27
M  V30 27 1 27 28
M  V30 28 1 28 29
M  V30 29 2 29 30
M  V30 30 1 29 31
M  V30 31 2 31 32
M  V30 32 1 32 33
M  V30 33 2 33 34
M  V30 34 1 34 35
M  V30 35 2 35 36
M  V30 36 2 27 37
M  V30 37 1 20 38
M  V30 38 2 38 39
M  V30 39 1 39 40
M  V30 40 1 40 41
M  V30 41 1 14 9
M  V30 42 1 39 17
M  V30 43 1 41 12
M  V30 44 1 37 22
M  V30 45 1 36 31
M  V30 46 1 3 42
M  V30 47 1 4 43
M  V30 48 1 4 44
M  V30 49 1 5 45
M  V30 50 1 6 46
M  V30 51 1 7 47
M  V30 52 1 7 48
M  V30 53 1 8 49
M  V30 54 1 10 50
M  V30 55 1 11 51
M  V30 56 1 14 52
M  V30 57 1 18 53
M  V30 58 1 19 54
M  V30 59 1 21 55
M  V30 60 1 23 56
M  V30 61 1 24 57
M  V30 62 1 28 58
M  V30 63 1 32 59
M  V30 64 1 33 60
M  V30 65 1 34 61
M  V30 66 1 35 62
M  V30 67 1 36 63
M  V30 68 1 37 64
M  V30 69 1 38 65
M  V30 70 1 40 66
M  V30 71 1 40 67
M  V30 72 1 41 68
M  V30 73 1 41 69
M  V30 END BOND
M  V30 END CTAB
M  END
>  <Dataset>  (897) 
ChEMBL_Kinases

>  <Ligand_Instance>  (897) 
nan

>  <PDB_ID>  (897) 
nan

>  <Standardized_SMILES>  (897) 
O=C(NCC(O)CO)c1ccc2c(c1)C(=O)c1ccc(Nc3ccc(F)c(NC(=O)c4ccccc4)c3)cc1CC2

>  <Name>  (897) 
nan

>  <Pocket>  (897) 
nan

>  <ATP_Site>  (897) 
nan

>  <Peripheral>  (897) 
nan

>  <Num_H_Atoms_ProtBoundConf>  (897) 
nan

>  <Num_Resolved_Atoms>  (897) 
nan

>  <Num_Not_Resolved_Atoms>  (897) 
nan

$$$$
CHEMBL4093878
     RDKit          3D

  0  0  0  0  0  0  0  0  0  0999 V3000
M  V30 BEGIN CTAB
M  V30 COUNTS 47 49 0 0 0
M  V30 BEGIN ATOM
M  V30 1 C 1.388722 -7.166218 -1.449604 0
M  V30 2 O 2.186601 -6.219775 -2.063009 0
M  V30 3 C 1.466084 -5.136754 -2.523293 0
M  V30 4 C 2.404263 -4.144857 -3.181246 0
M  V30 5 C 3.448877 -3.652198 -2.192179 0
M  V30 6 N 2.796164 -2.999206 -1.069651 0
M  V30 7 C 2.456343 -1.707562 -0.905527 0
M  V30 8 C 1.853210 -1.485741 0.300210 0
M  V30 9 N 1.341242 -0.294786 0.880907 0
M  V30 10 C 1.356340 0.988466 0.281593 0
M  V30 11 O 1.871844 1.057860 -0.863306 0
M  V30 12 C 0.808952 2.187704 0.935193 0
M  V30 13 C 0.872065 3.442889 0.244584 0
M  V30 14 S 0.040688 4.527272 1.562665 0
M  V30 15 C -0.199247 3.164169 2.683088 0
M  V30 16 C -0.830032 3.218895 4.022239 0
M  V30 17 N -0.217631 3.249045 5.225626 0
M  V30 18 N -1.138304 3.295930 6.188507 0
M  V30 19 C -2.345400 3.295520 5.590670 0
M  V30 20 N -2.167398 3.247871 4.244630 0
M  V30 21 C -3.158303 3.229348 3.207271 0
M  V30 22 C -4.518174 3.548201 3.792307 0
M  V30 23 C -3.248200 1.909100 2.473601 0
M  V30 24 N 0.261360 2.122371 2.147557 0
M  V30 25 C 1.837820 -2.734574 0.884977 0
M  V30 26 N 2.409935 -3.609125 0.034546 0
M  V30 27 H 1.973443 -8.042254 -1.077561 0
M  V30 28 H 0.949760 -6.718255 -0.512894 0
M  V30 29 H 0.518823 -7.467364 -2.053116 0
M  V30 30 H 0.924921 -4.620353 -1.692959 0
M  V30 31 H 0.749074 -5.466743 -3.307864 0
M  V30 32 H 1.791272 -3.271222 -3.498969 0
M  V30 33 H 2.907408 -4.604898 -4.031943 0
M  V30 34 H 4.059766 -2.899555 -2.700169 0
M  V30 35 H 4.070272 -4.483703 -1.863193 0
M  V30 36 H 2.657696 -0.973598 -1.664889 0
M  V30 37 H 0.909751 -0.337172 1.832304 0
M  V30 38 H 1.282341 3.650645 -0.733883 0
M  V30 39 H -3.288409 3.327958 6.108419 0
M  V30 40 H -2.980107 3.995458 2.425736 0
M  V30 41 H -5.186511 4.023336 3.030212 0
M  V30 42 H -4.333298 4.275463 4.633348 0
M  V30 43 H -4.954002 2.598782 4.163415 0
M  V30 44 H -4.281819 1.826962 2.063237 0
M  V30 45 H -2.587017 1.885015 1.576762 0
M  V30 46 H -3.018261 1.040986 3.118854 0
M  V30 47 H 1.447161 -3.017606 1.854393 0
M  V30 END ATOM
M  V30 BEGIN BOND
M  V30 1 1 1 2
M  V30 2 1 2 3
M  V30 3 1 3 4
M  V30 4 1 4 5
M  V30 5 1 5 6
M  V30 6 1 6 7
M  V30 7 2 7 8
M  V30 8 1 8 9
M  V30 9 1 9 10
M  V30 10 2 10 11
M  V30 11 1 10 12
M  V30 12 2 12 13
M  V30 13 1 13 14
M  V30 14 1 14 15
M  V30 15 1 15 16
M  V30 16 2 16 17
M  V30 17 1 17 18
M  V30 18 2 18 19
M  V30 19 1 19 20
M  V30 20 1 20 21
M  V30 21 1 21 22
M  V30 22 1 21 23
M  V30 23 2 15 24
M  V30 24 1 8 25
M  V30 25 2 25 26
M  V30 26 1 26 6
M  V30 27 1 24 12
M  V30 28 1 20 16
M  V30 29 1 1 27
M  V30 30 1 1 28
M  V30 31 1 1 29
M  V30 32 1 3 30
M  V30 33 1 3 31
M  V30 34 1 4 32
M  V30 35 1 4 33
M  V30 36 1 5 34
M  V30 37 1 5 35
M  V30 38 1 7 36
M  V30 39 1 9 37
M  V30 40 1 13 38
M  V30 41 1 19 39
M  V30 42 1 21 40
M  V30 43 1 22 41
M  V30 44 1 22 42
M  V30 45 1 22 43
M  V30 46 1 23 44
M  V30 47 1 23 45
M  V30 48 1 23 46
M  V30 49 1 25 47
M  V30 END BOND
M  V30 END CTAB
M  END
>  <Dataset>  (898) 
ChEMBL_Kinases

>  <Ligand_Instance>  (898) 
nan

>  <PDB_ID>  (898) 
nan

>  <Standardized_SMILES>  (898) 
COCCCn1cc(NC(=O)c2csc(-c3nncn3C(C)C)n2)cn1

>  <Name>  (898) 
nan

>  <Pocket>  (898) 
nan

>  <ATP_Site>  (898) 
nan

>  <Peripheral>  (898) 
nan

>  <Num_H_Atoms_ProtBoundConf>  (898) 
nan

>  <Num_Resolved_Atoms>  (898) 
nan

>  <Num_Not_Resolved_Atoms>  (898) 
nan

$$$$
CHEMBL4093852
     RDKit          3D

  0  0  0  0  0  0  0  0  0  0999 V3000
M  V30 BEGIN CTAB
M  V30 COUNTS 60 61 0 0 0
M  V30 BEGIN ATOM
M  V30 1 C -0.880313 2.213698 4.962517 0
M  V30 2 C 0.384863 2.893747 4.453139 0
M  V30 3 C 1.310490 1.795993 3.978876 0
M  V30 4 C 2.599120 2.305990 3.448089 0
M  V30 5 C 2.505550 3.226732 2.276720 0
M  V30 6 C 1.851833 2.633378 1.065425 0
M  V30 7 C 1.849248 3.703718 -0.003807 0
M  V30 8 C 1.204893 3.219766 -1.284612 0
M  V30 9 C 1.885046 2.039194 -1.894008 0
M  V30 10 C 1.221003 1.579001 -3.174837 0
M  V30 11 C -0.216125 1.177463 -2.952498 0
M  V30 12 C -0.339664 0.063199 -1.980325 0
M  V30 13 O 0.421664 -0.652714 -1.278700 0
M  V30 14 N -1.687738 -0.373996 -1.717879 0
M  V30 15 N -1.771606 -1.439686 -0.784890 0
M  V30 16 C -1.726236 -2.766658 -1.264720 0
M  V30 17 O -1.610582 -2.835375 -2.531903 0
M  V30 18 C -1.791864 -4.017269 -0.528542 0
M  V30 19 C -1.720421 -5.176712 -1.294052 0
M  V30 20 O -1.592480 -5.208450 -2.696182 0
M  V30 21 C -1.777327 -6.413789 -0.651868 0
M  V30 22 C -1.707815 -7.573918 -1.395776 0
M  V30 23 C -1.760951 -8.815402 -0.794694 0
M  V30 24 F -1.696375 -9.985814 -1.484583 0
M  V30 25 C -1.884207 -8.939064 0.557598 0
M  V30 26 C -1.955790 -7.791850 1.324456 0
M  V30 27 C -1.901507 -6.548403 0.711035 0
M  V30 28 N -1.966867 -5.406922 1.409956 0
M  V30 29 C -1.913216 -4.210105 0.804076 0
M  V30 30 O -1.980575 -3.200645 1.527263 0
M  V30 31 H -1.741641 2.901501 4.906652 0
M  V30 32 H -1.059835 1.300560 4.380650 0
M  V30 33 H -0.722874 1.986246 6.037194 0
M  V30 34 H 0.864049 3.441159 5.275245 0
M  V30 35 H 0.086531 3.594175 3.657632 0
M  V30 36 H 0.798329 1.059470 3.334499 0
M  V30 37 H 1.559918 1.222417 4.904517 0
M  V30 38 H 3.093696 2.866461 4.268618 0
M  V30 39 H 3.265121 1.440962 3.252582 0
M  V30 40 H 1.995418 4.167489 2.567509 0
M  V30 41 H 3.543522 3.503708 1.995467 0
M  V30 42 H 2.478943 1.783222 0.705884 0
M  V30 43 H 0.829703 2.298798 1.200724 0
M  V30 44 H 2.925089 3.873489 -0.263010 0
M  V30 45 H 1.420728 4.646605 0.332436 0
M  V30 46 H 0.155046 2.937354 -0.992633 0
M  V30 47 H 1.096656 4.030816 -2.027363 0
M  V30 48 H 2.029802 1.201248 -1.182684 0
M  V30 49 H 2.911567 2.379824 -2.183523 0
M  V30 50 H 1.804626 0.723865 -3.557138 0
M  V30 51 H 1.257973 2.406232 -3.890769 0
M  V30 52 H -0.820437 2.041554 -2.654412 0
M  V30 53 H -0.618571 0.804082 -3.916540 0
M  V30 54 H -2.579431 0.016016 -2.143749 0
M  V30 55 H -1.863999 -1.315417 0.226675 0
M  V30 56 H -2.451510 -5.416571 -3.208061 0
M  V30 57 H -1.608610 -7.563395 -2.482843 0
M  V30 58 H -1.929337 -9.901127 1.066960 0
M  V30 59 H -2.053208 -7.813613 2.390327 0
M  V30 60 H -2.062640 -5.457202 2.458749 0
M  V30 END ATOM
M  V30 BEGIN BOND
M  V30 1 1 1 2
M  V30 2 1 2 3
M  V30 3 1 3 4
M  V30 4 1 4 5
M  V30 5 1 5 6
M  V30 6 1 6 7
M  V30 7 1 7 8
M  V30 8 1 8 9
M  V30 9 1 9 10
M  V30 10 1 10 11
M  V30 11 1 11 12
M  V30 12 2 12 13
M  V30 13 1 12 14
M  V30 14 1 14 15
M  V30 15 1 15 16
M  V30 16 2 16 17
M  V30 17 1 16 18
M  V30 18 2 18 19
M  V30 19 1 19 20
M  V30 20 1 19 21
M  V30 21 2 21 22
M  V30 22 1 22 23
M  V30 23 1 23 24
M  V30 24 2 23 25
M  V30 25 1 25 26
M  V30 26 2 26 27
M  V30 27 1 27 28
M  V30 28 1 28 29
M  V30 29 2 29 30
M  V30 30 1 29 18
M  V30 31 1 27 21
M  V30 32 1 1 31
M  V30 33 1 1 32
M  V30 34 1 1 33
M  V30 35 1 2 34
M  V30 36 1 2 35
M  V30 37 1 3 36
M  V30 38 1 3 37
M  V30 39 1 4 38
M  V30 40 1 4 39
M  V30 41 1 5 40
M  V30 42 1 5 41
M  V30 43 1 6 42
M  V30 44 1 6 43
M  V30 45 1 7 44
M  V30 46 1 7 45
M  V30 47 1 8 46
M  V30 48 1 8 47
M  V30 49 1 9 48
M  V30 50 1 9 49
M  V30 51 1 10 50
M  V30 52 1 10 51
M  V30 53 1 11 52
M  V30 54 1 11 53
M  V30 55 1 14 54
M  V30 56 1 15 55
M  V30 57 1 20 56
M  V30 58 1 22 57
M  V30 59 1 25 58
M  V30 60 1 26 59
M  V30 61 1 28 60
M  V30 END BOND
M  V30 END CTAB
M  END
>  <Dataset>  (899) 
ChEMBL_Kinases

>  <Ligand_Instance>  (899) 
nan

>  <PDB_ID>  (899) 
nan

>  <Standardized_SMILES>  (899) 
CCCCCCCCCCCC(=O)NNC(=O)c1c(O)c2cc(F)ccc2[nH]c1=O

>  <Name>  (899) 
nan

>  <Pocket>  (899) 
nan

>  <ATP_Site>  (899) 
nan

>  <Peripheral>  (899) 
nan

>  <Num_H_Atoms_ProtBoundConf>  (899) 
nan

>  <Num_Resolved_Atoms>  (899) 
nan

>  <Num_Not_Resolved_Atoms>  (899) 
nan

$$$$
CHEMBL4093832
     RDKit          3D

  0  0  0  0  0  0  0  0  0  0999 V3000
M  V30 BEGIN CTAB
M  V30 COUNTS 61 65 0 0 0
M  V30 BEGIN ATOM
M  V30 1 O 0.287868 -1.404664 1.317958 0
M  V30 2 C -0.467349 -1.235263 2.316589 0
M  V30 3 C 0.505405 -0.527966 3.192278 0
M  V30 4 C 1.793883 -0.430933 2.405153 0
M  V30 5 C 2.813715 0.277070 3.175787 0
M  V30 6 C 3.650167 -0.542416 3.902654 0
M  V30 7 N 4.597268 -0.001114 4.686130 0
M  V30 8 C 4.790529 1.319307 4.813443 0
M  V30 9 C 3.930897 2.092984 4.066924 0
M  V30 10 C 2.913203 1.636537 3.220987 0
M  V30 11 C 2.111492 2.577187 2.480090 0
M  V30 12 C 2.851535 3.575160 1.813539 0
M  V30 13 N 2.020415 4.418546 1.146778 0
M  V30 14 N 0.775779 4.017210 1.347951 0
M  V30 15 C -0.465983 4.577486 0.856112 0
M  V30 16 C -1.145648 5.509953 1.862493 0
M  V30 17 C -0.558106 6.037510 0.587330 0
M  V30 18 C 0.835857 2.930742 2.134965 0
M  V30 19 N -1.813264 -1.633117 2.461304 0
M  V30 20 C -2.171774 -2.284672 1.222779 0
M  V30 21 C -1.927700 -3.641411 1.191766 0
M  V30 22 C -2.228460 -4.372928 0.057584 0
M  V30 23 C -2.768411 -3.650143 -0.985473 0
M  V30 24 C -3.108616 -4.395042 -2.240369 0
M  V30 25 N -1.985113 -4.378120 -3.119909 0
M  V30 26 C -2.307675 -5.107712 -4.333914 0
M  V30 27 C -1.169128 -5.040896 -5.328136 0
M  V30 28 O -0.057105 -4.428991 -4.729479 0
M  V30 29 C 0.302236 -5.117916 -3.575569 0
M  V30 30 C -0.788555 -4.931199 -2.548531 0
M  V30 31 C -3.027920 -2.295926 -0.995283 0
M  V30 32 C -2.716631 -1.585465 0.156166 0
M  V30 33 H 0.716498 -1.238389 4.053958 0
M  V30 34 H 0.154857 0.378949 3.653674 0
M  V30 35 H 1.605173 0.083714 1.420182 0
M  V30 36 H 2.068638 -1.465007 2.139990 0
M  V30 37 H 3.611582 -1.616680 3.901209 0
M  V30 38 H 5.537831 1.796525 5.431829 0
M  V30 39 H 4.054509 3.172755 4.142595 0
M  V30 40 H 3.903932 3.844559 1.693305 0
M  V30 41 H -1.157188 3.921513 0.304228 0
M  V30 42 H -2.268947 5.452637 1.944884 0
M  V30 43 H -0.591020 5.787784 2.781002 0
M  V30 44 H 0.357257 6.672750 0.614370 0
M  V30 45 H -1.303166 6.357387 -0.165136 0
M  V30 46 H 0.027801 2.346510 2.502220 0
M  V30 47 H -2.140726 -1.340203 3.408501 0
M  V30 48 H -1.500041 -4.182116 2.033685 0
M  V30 49 H -2.052558 -5.425274 -0.000810 0
M  V30 50 H -3.359712 -5.458987 -2.006137 0
M  V30 51 H -3.978601 -3.973466 -2.768964 0
M  V30 52 H -2.573543 -6.148845 -4.111465 0
M  V30 53 H -3.199663 -4.643051 -4.804736 0
M  V30 54 H -0.937834 -6.073765 -5.639696 0
M  V30 55 H -1.450997 -4.447408 -6.232753 0
M  V30 56 H 0.495371 -6.197370 -3.782272 0
M  V30 57 H 1.226671 -4.648100 -3.182238 0
M  V30 58 H -0.418808 -4.285846 -1.716604 0
M  V30 59 H -0.986775 -5.954230 -2.111512 0
M  V30 60 H -3.455089 -1.810244 -1.861716 0
M  V30 61 H -2.886081 -0.530516 0.233740 0
M  V30 END ATOM
M  V30 BEGIN BOND
M  V30 1 2 1 2
M  V30 2 1 2 3
M  V30 3 1 3 4
M  V30 4 1 4 5
M  V30 5 2 5 6
M  V30 6 1 6 7
M  V30 7 2 7 8
M  V30 8 1 8 9
M  V30 9 2 9 10
M  V30 10 1 10 11
M  V30 11 1 11 12
M  V30 12 2 12 13
M  V30 13 1 13 14
M  V30 14 1 14 15
M  V30 15 1 15 16
M  V30 16 1 16 17
M  V30 17 1 14 18
M  V30 18 1 2 19
M  V30 19 1 19 20
M  V30 20 2 20 21
M  V30 21 1 21 22
M  V30 22 2 22 23
M  V30 23 1 23 24
M  V30 24 1 24 25
M  V30 25 1 25 26
M  V30 26 1 26 27
M  V30 27 1 27 28
M  V30 28 1 28 29
M  V30 29 1 29 30
M  V30 30 1 23 31
M  V30 31 2 31 32
M  V30 32 1 10 5
M  V30 33 2 18 11
M  V30 34 1 32 20
M  V30 35 1 17 15
M  V30 36 1 30 25
M  V30 37 1 3 33
M  V30 38 1 3 34
M  V30 39 1 4 35
M  V30 40 1 4 36
M  V30 41 1 6 37
M  V30 42 1 8 38
M  V30 43 1 9 39
M  V30 44 1 12 40
M  V30 45 1 15 41
M  V30 46 1 16 42
M  V30 47 1 16 43
M  V30 48 1 17 44
M  V30 49 1 17 45
M  V30 50 1 18 46
M  V30 51 1 19 47
M  V30 52 1 21 48
M  V30 53 1 22 49
M  V30 54 1 24 50
M  V30 55 1 24 51
M  V30 56 1 26 52
M  V30 57 1 26 53
M  V30 58 1 27 54
M  V30 59 1 27 55
M  V30 60 1 29 56
M  V30 61 1 29 57
M  V30 62 1 30 58
M  V30 63 1 30 59
M  V30 64 1 31 60
M  V30 65 1 32 61
M  V30 END BOND
M  V30 END CTAB
M  END
>  <Dataset>  (900) 
ChEMBL_Kinases

>  <Ligand_Instance>  (900) 
nan

>  <PDB_ID>  (900) 
nan

>  <Standardized_SMILES>  (900) 
O=C(CCc1cnccc1-c1cnn(C2CC2)c1)Nc1ccc(CN2CCOCC2)cc1

>  <Name>  (900) 
nan

>  <Pocket>  (900) 
nan

>  <ATP_Site>  (900) 
nan

>  <Peripheral>  (900) 
nan

>  <Num_H_Atoms_ProtBoundConf>  (900) 
nan

>  <Num_Resolved_Atoms>  (900) 
nan

>  <Num_Not_Resolved_Atoms>  (900) 
nan

$$$$
CHEMBL4093805
     RDKit          3D

  0  0  0  0  0  0  0  0  0  0999 V3000
M  V30 BEGIN CTAB
M  V30 COUNTS 52 56 0 0 0
M  V30 BEGIN ATOM
M  V30 1 N 0.427388 -2.847129 -1.992233 0
M  V30 2 C 1.878957 -2.711670 -1.866377 0
M  V30 3 C 2.246308 -1.443388 -1.134005 0
M  V30 4 C 2.199581 -1.690290 0.366159 0
M  V30 5 N 1.188525 -2.709470 0.563919 0
M  V30 6 C -0.145376 -2.575856 0.976446 0
M  V30 7 N -0.723128 -1.397180 1.208077 0
M  V30 8 C -1.995093 -1.253363 1.605070 0
M  V30 9 N -2.633091 -0.017088 1.854836 0
M  V30 10 C -2.013209 1.251577 1.704051 0
M  V30 11 C -0.715123 1.461547 1.288264 0
M  V30 12 C -0.449262 2.814930 1.257574 0
M  V30 13 C 0.768768 3.532452 0.888857 0
M  V30 14 C 0.744376 4.910306 0.951855 0
M  V30 15 C 1.941326 5.528113 0.586078 0
M  V30 16 C 3.067682 4.838620 0.191101 0
M  V30 17 C 3.039376 3.462603 0.145378 0
M  V30 18 C 1.881688 2.816332 0.497194 0
M  V30 19 N -1.584572 3.418416 1.653938 0
M  V30 20 N -2.478529 2.482336 1.907434 0
M  V30 21 C -2.709005 -2.417473 1.770577 0
M  V30 22 C -4.023731 -2.495066 2.170432 0
M  V30 23 C -4.730329 -3.655678 2.333821 0
M  V30 24 Cl -6.398552 -3.684810 2.844514 0
M  V30 25 C -4.120693 -4.857827 2.091342 0
M  V30 26 C -2.814146 -4.849093 1.690788 0
M  V30 27 C -2.136422 -3.657309 1.537704 0
M  V30 28 N -0.851770 -3.686605 1.142046 0
M  V30 29 C 1.767919 -4.020148 0.252005 0
M  V30 30 C 2.391352 -3.941916 -1.130233 0
M  V30 31 H 0.025951 -2.065184 -2.525101 0
M  V30 32 H 0.178399 -3.792048 -2.299201 0
M  V30 33 H 2.282673 -2.744972 -2.898384 0
M  V30 34 H 1.520582 -0.630314 -1.339195 0
M  V30 35 H 3.230753 -1.058698 -1.477737 0
M  V30 36 H 1.847723 -0.766287 0.889554 0
M  V30 37 H 3.209018 -1.990703 0.716206 0
M  V30 38 H -3.613849 0.082661 2.172157 0
M  V30 39 H 0.064774 0.804370 1.005217 0
M  V30 40 H -0.089311 5.517525 1.248259 0
M  V30 41 H 2.025157 6.620255 0.602285 0
M  V30 42 H 3.985581 5.336222 -0.088381 0
M  V30 43 H 3.900021 2.882512 -0.158469 0
M  V30 44 H 1.799537 1.745574 0.481186 0
M  V30 45 H -1.818126 4.428425 1.772363 0
M  V30 46 H -4.566671 -1.595439 2.378425 0
M  V30 47 H -4.589052 -5.820023 2.190641 0
M  V30 48 H -2.275889 -5.766866 1.483160 0
M  V30 49 H 1.011363 -4.814413 0.331552 0
M  V30 50 H 2.609355 -4.142156 0.981155 0
M  V30 51 H 3.498918 -3.909429 -1.091780 0
M  V30 52 H 2.106217 -4.823425 -1.746834 0
M  V30 END ATOM
M  V30 BEGIN BOND
M  V30 1 1 1 2
M  V30 2 1 2 3
M  V30 3 1 3 4
M  V30 4 1 4 5
M  V30 5 1 5 6
M  V30 6 2 6 7
M  V30 7 1 7 8
M  V30 8 1 8 9
M  V30 9 1 9 10
M  V30 10 1 10 11
M  V30 11 2 11 12
M  V30 12 1 12 13
M  V30 13 2 13 14
M  V30 14 1 14 15
M  V30 15 2 15 16
M  V30 16 1 16 17
M  V30 17 2 17 18
M  V30 18 1 12 19
M  V30 19 1 19 20
M  V30 20 2 8 21
M  V30 21 1 21 22
M  V30 22 2 22 23
M  V30 23 1 23 24
M  V30 24 1 23 25
M  V30 25 2 25 26
M  V30 26 1 26 27
M  V30 27 2 27 28
M  V30 28 1 5 29
M  V30 29 1 29 30
M  V30 30 1 30 2
M  V30 31 1 28 6
M  V30 32 2 20 10
M  V30 33 1 27 21
M  V30 34 1 18 13
M  V30 35 1 1 31
M  V30 36 1 1 32
M  V30 37 1 2 33
M  V30 38 1 3 34
M  V30 39 1 3 35
M  V30 40 1 4 36
M  V30 41 1 4 37
M  V30 42 1 9 38
M  V30 43 1 11 39
M  V30 44 1 14 40
M  V30 45 1 15 41
M  V30 46 1 16 42
M  V30 47 1 17 43
M  V30 48 1 18 44
M  V30 49 1 19 45
M  V30 50 1 22 46
M  V30 51 1 25 47
M  V30 52 1 26 48
M  V30 53 1 29 49
M  V30 54 1 29 50
M  V30 55 1 30 51
M  V30 56 1 30 52
M  V30 END BOND
M  V30 END CTAB
M  END
>  <Dataset>  (901) 
ChEMBL_Kinases

>  <Ligand_Instance>  (901) 
nan

>  <PDB_ID>  (901) 
nan

>  <Standardized_SMILES>  (901) 
NC1CCN(c2nc(Nc3cc(-c4ccccc4)[nH]n3)c3cc(Cl)ccc3n2)CC1

>  <Name>  (901) 
nan

>  <Pocket>  (901) 
nan

>  <ATP_Site>  (901) 
nan

>  <Peripheral>  (901) 
nan

>  <Num_H_Atoms_ProtBoundConf>  (901) 
nan

>  <Num_Resolved_Atoms>  (901) 
nan

>  <Num_Not_Resolved_Atoms>  (901) 
nan

$$$$
CHEMBL4093766
     RDKit          3D

  0  0  0  0  0  0  0  0  0  0999 V3000
M  V30 BEGIN CTAB
M  V30 COUNTS 70 74 0 0 0
M  V30 BEGIN ATOM
M  V30 1 C 0.527628 0.166105 4.982358 0
M  V30 2 C 1.824422 -0.079281 4.780575 0
M  V30 3 C 2.962482 -0.218990 3.892189 0
M  V30 4 O 4.202181 -0.534478 4.015140 0
M  V30 5 N 3.027150 -0.000504 2.472131 0
M  V30 6 C 4.293261 -0.317697 1.874589 0
M  V30 7 C 4.162787 0.214431 0.453541 0
M  V30 8 C 2.677553 0.297807 0.130487 0 CFG=2
M  V30 9 N 2.489569 1.507922 -0.670410 0
M  V30 10 C 3.548976 2.088733 -1.299118 0
M  V30 11 O 4.706399 1.639452 -1.423722 0
M  V30 12 C 3.427385 3.311149 -1.918800 0
M  V30 13 C 2.210353 4.011699 -1.931637 0
M  V30 14 C 2.105535 5.329576 -2.620673 0
M  V30 15 C 1.104205 3.449689 -1.308459 0
M  V30 16 C -0.079437 4.087747 -1.479487 0
M  V30 17 N -1.192393 3.435454 -1.047957 0
M  V30 18 C -1.017859 2.219180 -0.500030 0
M  V30 19 N -2.025028 1.277902 -0.399350 0
M  V30 20 C -3.082100 0.296674 -0.295732 0
M  V30 21 C -4.107483 0.103807 0.537672 0
M  V30 22 C -4.633463 -1.190548 0.634130 0
M  V30 23 C -4.036146 -2.117484 -0.144355 0
M  V30 24 N -4.027323 -3.574090 0.060714 0
M  V30 25 C -4.169613 -4.888352 -0.467578 0
M  V30 26 C -2.781993 -5.555985 -0.232957 0
M  V30 27 N -2.589551 -5.810737 1.162879 0
M  V30 28 C -1.233857 -5.641152 1.596905 0
M  V30 29 C -3.460289 -5.014243 1.996923 0
M  V30 30 C -3.573212 -3.636597 1.465412 0
M  V30 31 C -2.984615 -2.119482 -1.078370 0
M  V30 32 C -2.500262 -0.758429 -1.119127 0
M  V30 33 O -1.442930 -0.394487 -1.969960 0
M  V30 34 C -0.805473 -1.262966 -2.852251 0
M  V30 35 N 0.239171 1.638067 -0.345827 0
M  V30 36 C 1.384610 2.245482 -0.749596 0
M  V30 37 C 2.090090 0.513058 1.515014 0
M  V30 38 H 0.157767 0.358599 3.954899 0
M  V30 39 H 0.151039 0.124946 5.990844 0
M  V30 40 H 2.370679 -0.258459 5.728460 0
M  V30 41 H 4.479127 -1.387268 1.940583 0
M  V30 42 H 5.085740 0.277420 2.436746 0
M  V30 43 H 4.691561 -0.469055 -0.220281 0
M  V30 44 H 4.630536 1.239854 0.542208 0
M  V30 45 H 2.331710 -0.614336 -0.321438 0
M  V30 46 H 4.249893 3.821275 -2.444987 0
M  V30 47 H 2.330871 6.171411 -1.939775 0
M  V30 48 H 2.892243 5.371392 -3.436186 0
M  V30 49 H 1.155820 5.435561 -3.174401 0
M  V30 50 H -0.278514 5.046983 -1.892526 0
M  V30 51 H -1.559899 0.741709 0.422565 0
M  V30 52 H -4.456104 0.946539 1.050787 0
M  V30 53 H -5.446949 -1.455590 1.256110 0
M  V30 54 H -4.896555 -5.490443 0.074798 0
M  V30 55 H -4.277469 -4.898792 -1.571816 0
M  V30 56 H -2.021304 -4.886649 -0.650713 0
M  V30 57 H -2.789494 -6.524555 -0.760158 0
M  V30 58 H -0.952305 -4.608122 1.849555 0
M  V30 59 H -0.567234 -5.979852 0.753600 0
M  V30 60 H -0.996464 -6.254550 2.514961 0
M  V30 61 H -4.444769 -5.441066 2.196652 0
M  V30 62 H -2.965932 -4.911460 3.012673 0
M  V30 63 H -2.490505 -3.228622 1.376251 0
M  V30 64 H -4.104827 -2.931813 2.119963 0
M  V30 65 H -2.514853 -2.811836 -1.704060 0
M  V30 66 H -0.776203 -2.313633 -2.598605 0
M  V30 67 H 0.245889 -0.922268 -3.062965 0
M  V30 68 H -1.303759 -1.234031 -3.877404 0
M  V30 69 H 1.087271 0.096126 1.647983 0
M  V30 70 H 2.024036 1.637832 1.688918 0
M  V30 END ATOM
M  V30 BEGIN BOND
M  V30 1 2 1 2
M  V30 2 1 2 3
M  V30 3 2 3 4
M  V30 4 1 3 5
M  V30 5 1 5 6
M  V30 6 1 6 7
M  V30 7 1 7 8
M  V30 8 1 8 9
M  V30 9 1 9 10
M  V30 10 2 10 11
M  V30 11 1 10 12
M  V30 12 2 12 13
M  V30 13 1 13 14
M  V30 14 1 13 15
M  V30 15 2 15 16
M  V30 16 1 16 17
M  V30 17 2 17 18
M  V30 18 1 18 19
M  V30 19 1 19 20
M  V30 20 2 20 21
M  V30 21 1 21 22
M  V30 22 2 22 23
M  V30 23 1 23 24
M  V30 24 1 24 25
M  V30 25 1 25 26
M  V30 26 1 26 27
M  V30 27 1 27 28
M  V30 28 1 27 29
M  V30 29 1 29 30
M  V30 30 1 23 31
M  V30 31 2 31 32
M  V30 32 1 32 33
M  V30 33 1 33 34
M  V30 34 1 18 35
M  V30 35 2 35 36
M  V30 36 1 8 37
M  V30 37 1 37 5
M  V30 38 1 36 9
M  V30 39 1 36 15
M  V30 40 1 32 20
M  V30 41 1 30 24
M  V30 42 1 1 38
M  V30 43 1 1 39
M  V30 44 1 2 40
M  V30 45 1 6 41
M  V30 46 1 6 42
M  V30 47 1 7 43
M  V30 48 1 7 44
M  V30 49 1 8 45 CFG=3
M  V30 50 1 12 46
M  V30 51 1 14 47
M  V30 52 1 14 48
M  V30 53 1 14 49
M  V30 54 1 16 50
M  V30 55 1 19 51
M  V30 56 1 21 52
M  V30 57 1 22 53
M  V30 58 1 25 54
M  V30 59 1 25 55
M  V30 60 1 26 56
M  V30 61 1 26 57
M  V30 62 1 28 58
M  V30 63 1 28 59
M  V30 64 1 28 60
M  V30 65 1 29 61
M  V30 66 1 29 62
M  V30 67 1 30 63
M  V30 68 1 30 64
M  V30 69 1 31 65
M  V30 70 1 34 66
M  V30 71 1 34 67
M  V30 72 1 34 68
M  V30 73 1 37 69
M  V30 74 1 37 70
M  V30 END BOND
M  V30 END CTAB
M  END
>  <Dataset>  (902) 
ChEMBL_Kinases

>  <Ligand_Instance>  (902) 
nan

>  <PDB_ID>  (902) 
nan

>  <Standardized_SMILES>  (902) 
C=CC(=O)N1CC[C@H](n2c(=O)cc(C)c3cnc(Nc4ccc(N5CCN(C)CC5)cc4OC)nc32)C1

>  <Name>  (902) 
nan

>  <Pocket>  (902) 
nan

>  <ATP_Site>  (902) 
nan

>  <Peripheral>  (902) 
nan

>  <Num_H_Atoms_ProtBoundConf>  (902) 
nan

>  <Num_Resolved_Atoms>  (902) 
nan

>  <Num_Not_Resolved_Atoms>  (902) 
nan

$$$$
CHEMBL4093737
     RDKit          3D

  0  0  0  0  0  0  0  0  0  0999 V3000
M  V30 BEGIN CTAB
M  V30 COUNTS 85 90 0 0 0
M  V30 BEGIN ATOM
M  V30 1 C 3.120386 -3.888038 0.520257 0
M  V30 2 C 1.782322 -4.535902 0.293162 0
M  V30 3 C 0.686158 -3.680767 -0.159851 0 CFG=2
M  V30 4 C -0.535315 -4.583379 -0.248824 0
M  V30 5 C -0.804417 -5.863448 0.191578 0
M  V30 6 C 0.104088 -6.830118 0.719442 0
M  V30 7 O -0.157091 -7.136197 1.919860 0
M  V30 8 N 1.046235 -7.764065 1.107953 0
M  V30 9 C 1.019014 -8.328364 2.455811 0
M  V30 10 O 2.021969 -8.177774 0.244930 0
M  V30 11 N -2.113588 -6.138982 0.053383 0
M  V30 12 C -2.689924 -5.069591 -0.467770 0
M  V30 13 N -1.707627 -4.143795 -0.645395 0
M  V30 14 C -1.791544 -2.938506 -1.354072 0
M  V30 15 C -3.010451 -2.427013 -1.714780 0
M  V30 16 N -3.053994 -1.250169 -2.359936 0
M  V30 17 C -1.912557 -0.603243 -2.636814 0
M  V30 18 N -1.773162 0.660950 -3.306372 0
M  V30 19 C -1.658500 1.871094 -2.531950 0
M  V30 20 C -1.651929 1.785260 -1.164056 0
M  V30 21 C -1.540983 2.845483 -0.291722 0
M  V30 22 C -1.426573 4.101641 -0.846231 0
M  V30 23 C -1.293618 5.310682 -0.056849 0
M  V30 24 O -1.237655 6.467123 -0.550248 0
M  V30 25 N -1.216043 5.266647 1.344310 0
M  V30 26 C -1.084378 6.280222 2.358682 0
M  V30 27 C -2.082046 6.194519 3.462541 0
M  V30 28 C -1.678681 5.383050 4.642635 0
M  V30 29 N -0.602700 4.478034 4.468075 0
M  V30 30 C -0.911168 3.089236 4.464308 0
M  V30 31 C 0.480776 4.885610 3.651354 0
M  V30 32 C 0.315539 6.186164 2.939407 0
M  V30 33 C -1.428593 4.237696 -2.215662 0
M  V30 34 C -1.541340 3.155728 -3.062340 0
M  V30 35 O -1.547616 3.244732 -4.446832 0
M  V30 36 C -1.434736 4.506471 -5.045039 0
M  V30 37 N -0.731946 -1.116561 -2.279108 0
M  V30 38 C -0.561084 -2.305998 -1.619450 0
M  V30 39 N 0.790696 -2.776535 -1.254919 0
M  V30 40 C 1.732229 -2.123218 -2.107862 0
M  V30 41 C 3.086605 -2.512237 -2.359393 0
M  V30 42 C 3.036748 -3.838057 -3.134408 0
M  V30 43 C 2.057748 -3.356477 -4.217963 0
M  V30 44 C 1.188736 -2.301606 -3.572423 0
M  V30 45 H 3.583260 -4.161691 1.501030 0
M  V30 46 H 3.874813 -4.237520 -0.223598 0
M  V30 47 H 3.019239 -2.790033 0.472966 0
M  V30 48 H 1.539005 -4.962618 1.324483 0
M  V30 49 H 1.911875 -5.484339 -0.282665 0
M  V30 50 H 0.397241 -3.061959 0.783002 0
M  V30 51 H 1.173705 -7.547441 3.215967 0
M  V30 52 H 1.801752 -9.134697 2.538779 0
M  V30 53 H 0.063677 -8.855134 2.683145 0
M  V30 54 H 1.723117 -8.805642 -0.429231 0
M  V30 55 H -3.742166 -4.976717 -0.698220 0
M  V30 56 H -3.884246 -2.973330 -1.474511 0
M  V30 57 H -1.744300 0.807209 -4.340704 0
M  V30 58 H -1.740994 0.796649 -0.717961 0
M  V30 59 H -1.542312 2.713513 0.779826 0
M  V30 60 H -1.248395 4.384395 1.896352 0
M  V30 61 H -1.100759 7.286146 1.844335 0
M  V30 62 H -3.102865 5.928432 3.061446 0
M  V30 63 H -2.235632 7.247175 3.843006 0
M  V30 64 H -1.452034 6.009456 5.551495 0
M  V30 65 H -2.575698 4.764582 4.941213 0
M  V30 66 H -0.074280 2.582388 5.029507 0
M  V30 67 H -0.911577 2.601437 3.474799 0
M  V30 68 H -1.843501 2.865968 4.995660 0
M  V30 69 H 0.795934 4.068570 2.954131 0
M  V30 70 H 1.371710 5.016736 4.333280 0
M  V30 71 H 1.002138 6.190360 2.058966 0
M  V30 72 H 0.584214 7.071940 3.539189 0
M  V30 73 H -1.339469 5.219763 -2.663488 0
M  V30 74 H -1.769906 4.445159 -6.107317 0
M  V30 75 H -0.398792 4.864838 -4.970944 0
M  V30 76 H -2.086379 5.285484 -4.562157 0
M  V30 77 H 1.631098 -1.034114 -1.928433 0
M  V30 78 H 3.406513 -1.814410 -3.233315 0
M  V30 79 H 3.910628 -2.386623 -1.698099 0
M  V30 80 H 4.036464 -4.027981 -3.520733 0
M  V30 81 H 2.540307 -4.642232 -2.607567 0
M  V30 82 H 2.667623 -2.972420 -5.061670 0
M  V30 83 H 1.496323 -4.233515 -4.596581 0
M  V30 84 H 0.177877 -2.757077 -3.549942 0
M  V30 85 H 1.268879 -1.381940 -4.136418 0
M  V30 END ATOM
M  V30 BEGIN BOND
M  V30 1 1 1 2
M  V30 2 1 2 3
M  V30 3 1 3 4
M  V30 4 2 4 5
M  V30 5 1 5 6
M  V30 6 2 6 7
M  V30 7 1 6 8
M  V30 8 1 8 9
M  V30 9 1 8 10
M  V30 10 1 5 11
M  V30 11 2 11 12
M  V30 12 1 12 13
M  V30 13 1 13 14
M  V30 14 2 14 15
M  V30 15 1 15 16
M  V30 16 2 16 17
M  V30 17 1 17 18
M  V30 18 1 18 19
M  V30 19 2 19 20
M  V30 20 1 20 21
M  V30 21 2 21 22
M  V30 22 1 22 23
M  V30 23 2 23 24
M  V30 24 1 23 25
M  V30 25 1 25 26
M  V30 26 1 26 27
M  V30 27 1 27 28
M  V30 28 1 28 29
M  V30 29 1 29 30
M  V30 30 1 29 31
M  V30 31 1 31 32
M  V30 32 1 22 33
M  V30 33 2 33 34
M  V30 34 1 34 35
M  V30 35 1 35 36
M  V30 36 1 17 37
M  V30 37 2 37 38
M  V30 38 1 38 39
M  V30 39 1 39 40
M  V30 40 1 40 41
M  V30 41 1 41 42
M  V30 42 1 42 43
M  V30 43 1 43 44
M  V30 44 1 39 3
M  V30 45 1 44 40
M  V30 46 1 13 4
M  V30 47 1 38 14
M  V30 48 1 34 19
M  V30 49 1 32 26
M  V30 50 1 1 45
M  V30 51 1 1 46
M  V30 52 1 1 47
M  V30 53 1 2 48
M  V30 54 1 2 49
M  V30 55 1 3 50 CFG=1
M  V30 56 1 9 51
M  V30 57 1 9 52
M  V30 58 1 9 53
M  V30 59 1 10 54
M  V30 60 1 12 55
M  V30 61 1 15 56
M  V30 62 1 18 57
M  V30 63 1 20 58
M  V30 64 1 21 59
M  V30 65 1 25 60
M  V30 66 1 26 61
M  V30 67 1 27 62
M  V30 68 1 27 63
M  V30 69 1 28 64
M  V30 70 1 28 65
M  V30 71 1 30 66
M  V30 72 1 30 67
M  V30 73 1 30 68
M  V30 74 1 31 69
M  V30 75 1 31 70
M  V30 76 1 32 71
M  V30 77 1 32 72
M  V30 78 1 33 73
M  V30 79 1 36 74
M  V30 80 1 36 75
M  V30 81 1 36 76
M  V30 82 1 40 77
M  V30 83 1 41 78
M  V30 84 1 41 79
M  V30 85 1 42 80
M  V30 86 1 42 81
M  V30 87 1 43 82
M  V30 88 1 43 83
M  V30 89 1 44 84
M  V30 90 1 44 85
M  V30 END BOND
M  V30 END CTAB
M  END
>  <Dataset>  (903) 
ChEMBL_Kinases

>  <Ligand_Instance>  (903) 
nan

>  <PDB_ID>  (903) 
nan

>  <Standardized_SMILES>  (903) 
CC[C@@H]1c2c(C(=O)N(C)O)ncn2-c2cnc(Nc3ccc(C(=O)NC4CCN(C)CC4)cc3OC)nc2N1C1CCCC1

>  <Name>  (903) 
nan

>  <Pocket>  (903) 
nan

>  <ATP_Site>  (903) 
nan

>  <Peripheral>  (903) 
nan

>  <Num_H_Atoms_ProtBoundConf>  (903) 
nan

>  <Num_Resolved_Atoms>  (903) 
nan

>  <Num_Not_Resolved_Atoms>  (903) 
nan

$$$$
CHEMBL482301
     RDKit          3D

  0  0  0  0  0  0  0  0  0  0999 V3000
M  V30 BEGIN CTAB
M  V30 COUNTS 50 54 0 0 0
M  V30 BEGIN ATOM
M  V30 1 N 3.328403 -4.509316 2.347579 0
M  V30 2 C 3.545416 -3.733803 1.518612 0
M  V30 3 C 3.798347 -2.770972 0.469244 0
M  V30 4 C 5.108135 -2.541725 0.119563 0
M  V30 5 C 5.334686 -1.612031 -0.892025 0
M  V30 6 C 4.313096 -0.940029 -1.528439 0
M  V30 7 C 2.983621 -1.176690 -1.169253 0
M  V30 8 C 1.821052 -0.505518 -1.792387 0
M  V30 9 N 1.454125 0.730404 -1.102951 0
M  V30 10 C 1.940455 1.969337 -1.390502 0
M  V30 11 N 1.381806 2.876193 -0.552026 0
M  V30 12 C 0.527561 2.231500 0.287077 0
M  V30 13 C -0.323175 2.717764 1.367298 0
M  V30 14 C 0.072851 3.351147 2.528591 0
M  V30 15 C -0.849487 3.759166 3.468496 0
M  V30 16 C -2.215930 3.548155 3.282640 0
M  V30 17 F -3.131946 3.939376 4.188844 0
M  V30 18 C -2.626376 2.916785 2.127588 0
M  V30 19 C -1.689043 2.513728 1.194799 0
M  V30 20 C 0.586501 0.885617 -0.074067 0
M  V30 21 C -0.153478 -0.193735 0.539652 0
M  V30 22 C 0.066662 -0.501780 1.862865 0
M  V30 23 C -0.685629 -1.544197 2.354994 0
M  V30 24 N -1.570894 -2.220117 1.616238 0
M  V30 25 C -1.780657 -1.918431 0.335955 0
M  V30 26 N -2.690754 -2.578413 -0.514625 0
M  V30 27 C -3.576678 -3.685503 -0.270743 0
M  V30 28 C -4.616744 -3.570345 0.795821 0
M  V30 29 C -3.411088 -4.484208 0.953251 0
M  V30 30 N -1.055515 -0.913580 -0.138557 0
M  V30 31 C 2.753871 -2.104160 -0.159791 0
M  V30 32 H 5.973303 -3.013640 0.554782 0
M  V30 33 H 6.360708 -1.409492 -1.190120 0
M  V30 34 H 4.480256 -0.216507 -2.315064 0
M  V30 35 H 0.963719 -1.191728 -1.890938 0
M  V30 36 H 2.137750 -0.211223 -2.814495 0
M  V30 37 H 2.658386 2.194011 -2.164696 0
M  V30 38 H 1.148477 3.487129 2.616093 0
M  V30 39 H -0.493352 4.251206 4.363166 0
M  V30 40 H -3.688304 2.724692 1.928156 0
M  V30 41 H -2.070416 2.014153 0.288556 0
M  V30 42 H 0.778954 0.036663 2.470470 0
M  V30 43 H -0.555079 -1.834930 3.398847 0
M  V30 44 H -2.752864 -2.209486 -1.513982 0
M  V30 45 H -3.900294 -4.248555 -1.195760 0
M  V30 46 H -5.602875 -4.053037 0.628156 0
M  V30 47 H -4.661058 -2.680859 1.468775 0
M  V30 48 H -3.630233 -5.590895 0.860462 0
M  V30 49 H -2.651656 -4.256709 1.703275 0
M  V30 50 H 1.766909 -2.366850 0.199838 0
M  V30 END ATOM
M  V30 BEGIN BOND
M  V30 1 3 1 2
M  V30 2 1 2 3
M  V30 3 2 3 4
M  V30 4 1 4 5
M  V30 5 2 5 6
M  V30 6 1 6 7
M  V30 7 1 7 8
M  V30 8 1 8 9
M  V30 9 1 9 10
M  V30 10 2 10 11
M  V30 11 1 11 12
M  V30 12 1 12 13
M  V30 13 2 13 14
M  V30 14 1 14 15
M  V30 15 2 15 16
M  V30 16 1 16 17
M  V30 17 1 16 18
M  V30 18 2 18 19
M  V30 19 2 12 20
M  V30 20 1 20 21
M  V30 21 2 21 22
M  V30 22 1 22 23
M  V30 23 2 23 24
M  V30 24 1 24 25
M  V30 25 1 25 26
M  V30 26 1 26 27
M  V30 27 1 27 28
M  V30 28 1 28 29
M  V30 29 2 25 30
M  V30 30 2 7 31
M  V30 31 1 31 3
M  V30 32 1 20 9
M  V30 33 1 30 21
M  V30 34 1 19 13
M  V30 35 1 29 27
M  V30 36 1 4 32
M  V30 37 1 5 33
M  V30 38 1 6 34
M  V30 39 1 8 35
M  V30 40 1 8 36
M  V30 41 1 10 37
M  V30 42 1 14 38
M  V30 43 1 15 39
M  V30 44 1 18 40
M  V30 45 1 19 41
M  V30 46 1 22 42
M  V30 47 1 23 43
M  V30 48 1 26 44
M  V30 49 1 27 45
M  V30 50 1 28 46
M  V30 51 1 28 47
M  V30 52 1 29 48
M  V30 53 1 29 49
M  V30 54 1 31 50
M  V30 END BOND
M  V30 END CTAB
M  END
>  <Dataset>  (904) 
ChEMBL_Kinases

>  <Ligand_Instance>  (904) 
nan

>  <PDB_ID>  (904) 
nan

>  <Standardized_SMILES>  (904) 
N#Cc1cccc(Cn2cnc(-c3ccc(F)cc3)c2-c2ccnc(NC3CC3)n2)c1

>  <Name>  (904) 
nan

>  <Pocket>  (904) 
nan

>  <ATP_Site>  (904) 
nan

>  <Peripheral>  (904) 
nan

>  <Num_H_Atoms_ProtBoundConf>  (904) 
nan

>  <Num_Resolved_Atoms>  (904) 
nan

>  <Num_Not_Resolved_Atoms>  (904) 
nan

$$$$
CHEMBL4093670
     RDKit          3D

  0  0  0  0  0  0  0  0  0  0999 V3000
M  V30 BEGIN CTAB
M  V30 COUNTS 38 40 0 0 0
M  V30 BEGIN ATOM
M  V30 1 C -2.804381 -3.157195 6.138983 0
M  V30 2 C -2.216345 -3.094346 4.775634 0
M  V30 3 N -2.139862 -4.063439 3.823468 0
M  V30 4 C -1.518217 -3.540185 2.744528 0
M  V30 5 C -1.183377 -2.201458 3.001843 0
M  V30 6 C -0.525371 -1.444656 1.954267 0
M  V30 7 C 0.540019 -0.678187 2.025424 0
M  V30 8 C 1.281522 -0.450684 3.230993 0
M  V30 9 O 1.058835 -0.927049 4.356264 0
M  V30 10 N 2.351459 0.432708 2.938426 0
M  V30 11 C 2.271831 0.749782 1.556138 0
M  V30 12 C 3.014861 1.544443 0.684728 0
M  V30 13 C 2.693570 1.666858 -0.652315 0
M  V30 14 C 1.596546 0.993943 -1.206026 0
M  V30 15 O 1.498396 1.285359 -2.548293 0
M  V30 16 C 0.505767 0.758028 -3.355236 0
M  V30 17 C 1.095608 -0.118447 -4.461397 0
M  V30 18 C -0.271079 1.891498 -4.031328 0
M  V30 19 C 0.864714 0.210942 -0.345941 0
M  V30 20 C 1.197409 0.098903 0.984475 0
M  V30 21 N -1.641382 -2.013144 4.249705 0
M  V30 22 H -3.551472 -3.985039 6.209321 0
M  V30 23 H -1.970173 -3.324909 6.861688 0
M  V30 24 H -3.269734 -2.187581 6.384999 0
M  V30 25 H -1.373199 -4.182867 1.885451 0
M  V30 26 H -0.959005 -1.498404 0.940789 0
M  V30 27 H 3.063004 0.782048 3.615572 0
M  V30 28 H 3.857222 2.050054 1.152319 0
M  V30 29 H 3.392747 2.334916 -1.179985 0
M  V30 30 H -0.169367 0.104837 -2.783352 0
M  V30 31 H 1.438653 -1.064296 -3.963770 0
M  V30 32 H 0.290335 -0.301038 -5.189984 0
M  V30 33 H 1.917107 0.411176 -4.984169 0
M  V30 34 H 0.031914 1.984039 -5.095158 0
M  V30 35 H -0.038638 2.824465 -3.509612 0
M  V30 36 H -1.337780 1.665103 -4.018087 0
M  V30 37 H 0.035150 -0.279220 -0.830067 0
M  V30 38 H -1.552572 -1.098091 4.721883 0
M  V30 END ATOM
M  V30 BEGIN BOND
M  V30 1 1 1 2
M  V30 2 2 2 3
M  V30 3 1 3 4
M  V30 4 2 4 5
M  V30 5 1 5 6
M  V30 6 2 6 7
M  V30 7 1 7 8
M  V30 8 2 8 9
M  V30 9 1 8 10
M  V30 10 1 10 11
M  V30 11 2 11 12
M  V30 12 1 12 13
M  V30 13 2 13 14
M  V30 14 1 14 15
M  V30 15 1 15 16
M  V30 16 1 16 17
M  V30 17 1 16 18
M  V30 18 1 14 19
M  V30 19 2 19 20
M  V30 20 1 5 21
M  V30 21 1 21 2
M  V30 22 1 20 7
M  V30 23 1 20 11
M  V30 24 1 1 22
M  V30 25 1 1 23
M  V30 26 1 1 24
M  V30 27 1 4 25
M  V30 28 1 6 26
M  V30 29 1 10 27
M  V30 30 1 12 28
M  V30 31 1 13 29
M  V30 32 1 16 30
M  V30 33 1 17 31
M  V30 34 1 17 32
M  V30 35 1 17 33
M  V30 36 1 18 34
M  V30 37 1 18 35
M  V30 38 1 18 36
M  V30 39 1 19 37
M  V30 40 1 21 38
M  V30 END BOND
M  V30 END CTAB
M  END
>  <Dataset>  (905) 
ChEMBL_Kinases

>  <Ligand_Instance>  (905) 
nan

>  <PDB_ID>  (905) 
nan

>  <Standardized_SMILES>  (905) 
Cc1ncc(/C=C2\C(=O)Nc3ccc(OC(C)C)cc32)[nH]1

>  <Name>  (905) 
nan

>  <Pocket>  (905) 
nan

>  <ATP_Site>  (905) 
nan

>  <Peripheral>  (905) 
nan

>  <Num_H_Atoms_ProtBoundConf>  (905) 
nan

>  <Num_Resolved_Atoms>  (905) 
nan

>  <Num_Not_Resolved_Atoms>  (905) 
nan

$$$$
CHEMBL4093649
     RDKit          3D

  0  0  0  0  0  0  0  0  0  0999 V3000
M  V30 BEGIN CTAB
M  V30 COUNTS 43 46 0 0 0
M  V30 BEGIN ATOM
M  V30 1 C 0.168815 -5.043038 5.228695 0
M  V30 2 C -0.442658 -4.194884 4.171478 0
M  V30 3 C 0.182649 -3.106766 3.593798 0
M  V30 4 C -0.734123 -2.625801 2.685265 0
M  V30 5 N -0.728510 -1.533014 1.795219 0
M  V30 6 C -0.166355 -1.137270 0.520964 0
M  V30 7 N 1.008679 -0.448139 0.484833 0
M  V30 8 C 1.606124 -0.044041 -0.650591 0
M  V30 9 C 2.837436 0.660576 -0.200761 0
M  V30 10 O 3.915213 0.066039 0.041255 0
M  V30 11 N 2.379132 2.031348 -0.164918 0
M  V30 12 C 1.159639 2.754390 -0.456473 0
M  V30 13 C 1.021121 3.898942 0.503248 0
M  V30 14 O 1.514987 3.520016 1.748784 0
M  V30 15 C 2.915122 3.456180 1.719337 0
M  V30 16 C 3.367819 2.999928 0.331371 0
M  V30 17 N 1.002067 -0.344011 -1.808875 0
M  V30 18 C -0.154820 -1.022274 -1.768641 0
M  V30 19 C -0.708115 -1.281982 -3.007880 0
M  V30 20 C -1.917991 -1.977304 -3.061831 0
M  V30 21 C -2.555807 -2.402441 -1.917734 0
M  V30 22 Cl -4.086792 -3.266141 -2.050445 0
M  V30 23 C -2.026542 -2.158724 -0.667900 0
M  V30 24 C -0.838701 -1.475297 -0.637071 0
M  V30 25 N -1.843926 -3.426492 2.751532 0
M  V30 26 N -1.673237 -4.369682 3.642781 0
M  V30 27 H 1.104528 -5.503447 4.843944 0
M  V30 28 H -0.554402 -5.780397 5.581351 0
M  V30 29 H 0.449121 -4.383050 6.082848 0
M  V30 30 H 1.138171 -2.649356 3.731628 0
M  V30 31 H -1.307282 -0.732980 2.117770 0
M  V30 32 H 1.120721 3.127229 -1.513916 0
M  V30 33 H 0.310967 2.037849 -0.277649 0
M  V30 34 H -0.046359 4.194414 0.654765 0
M  V30 35 H 1.659556 4.765172 0.187744 0
M  V30 36 H 3.268972 2.799961 2.531450 0
M  V30 37 H 3.297394 4.470461 1.885279 0
M  V30 38 H 3.441534 3.869943 -0.337888 0
M  V30 39 H 4.370846 2.570088 0.452275 0
M  V30 40 H -0.255099 -0.975183 -3.935914 0
M  V30 41 H -2.329718 -2.165509 -4.056437 0
M  V30 42 H -2.485433 -2.460950 0.261472 0
M  V30 43 H -2.409777 -5.093748 3.854629 0
M  V30 END ATOM
M  V30 BEGIN BOND
M  V30 1 1 1 2
M  V30 2 2 2 3
M  V30 3 1 3 4
M  V30 4 1 4 5
M  V30 5 1 5 6
M  V30 6 2 6 7
M  V30 7 1 7 8
M  V30 8 1 8 9
M  V30 9 2 9 10
M  V30 10 1 9 11
M  V30 11 1 11 12
M  V30 12 1 12 13
M  V30 13 1 13 14
M  V30 14 1 14 15
M  V30 15 1 15 16
M  V30 16 2 8 17
M  V30 17 1 17 18
M  V30 18 2 18 19
M  V30 19 1 19 20
M  V30 20 2 20 21
M  V30 21 1 21 22
M  V30 22 1 21 23
M  V30 23 2 23 24
M  V30 24 2 4 25
M  V30 25 1 25 26
M  V30 26 1 26 2
M  V30 27 1 24 6
M  V30 28 1 16 11
M  V30 29 1 24 18
M  V30 30 1 1 27
M  V30 31 1 1 28
M  V30 32 1 1 29
M  V30 33 1 3 30
M  V30 34 1 5 31
M  V30 35 1 12 32
M  V30 36 1 12 33
M  V30 37 1 13 34
M  V30 38 1 13 35
M  V30 39 1 15 36
M  V30 40 1 15 37
M  V30 41 1 16 38
M  V30 42 1 16 39
M  V30 43 1 19 40
M  V30 44 1 20 41
M  V30 45 1 23 42
M  V30 46 1 26 43
M  V30 END BOND
M  V30 END CTAB
M  END
>  <Dataset>  (906) 
ChEMBL_Kinases

>  <Ligand_Instance>  (906) 
nan

>  <PDB_ID>  (906) 
nan

>  <Standardized_SMILES>  (906) 
Cc1cc(Nc2nc(C(=O)N3CCOCC3)nc3ccc(Cl)cc23)n[nH]1

>  <Name>  (906) 
nan

>  <Pocket>  (906) 
nan

>  <ATP_Site>  (906) 
nan

>  <Peripheral>  (906) 
nan

>  <Num_H_Atoms_ProtBoundConf>  (906) 
nan

>  <Num_Resolved_Atoms>  (906) 
nan

>  <Num_Not_Resolved_Atoms>  (906) 
nan

$$$$
CHEMBL4094737
     RDKit          3D

  0  0  0  0  0  0  0  0  0  0999 V3000
M  V30 BEGIN CTAB
M  V30 COUNTS 73 75 0 0 0
M  V30 BEGIN ATOM
M  V30 1 C -4.873812 -5.040192 1.099459 0
M  V30 2 C -3.544674 -5.464637 0.505273 0
M  V30 3 C -3.614229 -5.384761 -1.017619 0
M  V30 4 C -3.917905 -3.972402 -1.473263 0
M  V30 5 C -3.972627 -4.000463 -2.986338 0
M  V30 6 C -4.269614 -2.656386 -3.568686 0
M  V30 7 C -3.206648 -1.612524 -3.197202 0
M  V30 8 C -3.668949 -0.343154 -3.856465 0
M  V30 9 C -2.774502 0.844922 -3.634066 0
M  V30 10 C -1.412061 0.556438 -4.172948 0
M  V30 11 C -0.458871 1.734821 -3.986716 0
M  V30 12 C -0.324402 2.019416 -2.521214 0
M  V30 13 O -0.742354 1.484178 -1.453593 0
M  V30 14 N 0.449517 3.161211 -2.110002 0
M  V30 15 N 0.387130 3.156518 -0.687407 0
M  V30 16 C 1.483647 2.439916 -0.154960 0
M  V30 17 O 2.222050 2.008211 -1.107711 0
M  V30 18 C 1.812662 2.177826 1.238260 0
M  V30 19 C 1.067861 2.472153 2.356659 0
M  V30 20 O -0.143750 3.071761 2.175563 0
M  V30 21 C 1.482487 2.192773 3.634041 0
M  V30 22 C 0.683336 2.527415 4.692761 0
M  V30 23 C 1.099354 2.258831 5.978706 0
M  V30 24 C 2.328868 1.654518 6.121700 0
M  V30 25 C 3.120114 1.324274 5.051833 0
M  V30 26 C 2.726924 1.579668 3.763684 0
M  V30 27 N 3.504739 1.264274 2.707625 0
M  V30 28 C 4.789291 0.604167 2.857928 0
M  V30 29 C 4.709018 -0.870062 2.781208 0
M  V30 30 C 4.411341 -1.734651 3.806621 0
M  V30 31 C 4.362073 -3.099381 3.665706 0
M  V30 32 C 4.608227 -3.722899 2.478778 0
M  V30 33 C 4.914611 -2.919008 1.403526 0
M  V30 34 C 4.957023 -1.537485 1.576344 0
M  V30 35 C 3.026287 1.571938 1.490365 0
M  V30 36 O 3.770222 1.269942 0.524341 0
M  V30 37 H -5.000796 -5.649154 2.017128 0
M  V30 38 H -5.701842 -5.312835 0.416510 0
M  V30 39 H -4.846713 -3.950188 1.315163 0
M  V30 40 H -2.744593 -4.798955 0.860229 0
M  V30 41 H -3.265268 -6.494363 0.774852 0
M  V30 42 H -2.637934 -5.654599 -1.428897 0
M  V30 43 H -4.418781 -6.038946 -1.400423 0
M  V30 44 H -3.166668 -3.269460 -1.110138 0
M  V30 45 H -4.911904 -3.634698 -1.099051 0
M  V30 46 H -2.996421 -4.389138 -3.382362 0
M  V30 47 H -4.748288 -4.753168 -3.240728 0
M  V30 48 H -4.256208 -2.784698 -4.679612 0
M  V30 49 H -5.261641 -2.272107 -3.318259 0
M  V30 50 H -2.224759 -1.946454 -3.606299 0
M  V30 51 H -3.176962 -1.486884 -2.096656 0
M  V30 52 H -3.853470 -0.523191 -4.930829 0
M  V30 53 H -4.703409 -0.147895 -3.432220 0
M  V30 54 H -3.261441 1.673067 -4.240278 0
M  V30 55 H -2.736496 1.149896 -2.569896 0
M  V30 56 H -1.507376 0.331351 -5.241826 0
M  V30 57 H -1.006919 -0.335975 -3.629148 0
M  V30 58 H -0.862455 2.610512 -4.532338 0
M  V30 59 H 0.488779 1.467466 -4.446252 0
M  V30 60 H 0.923131 3.811799 -2.785095 0
M  V30 61 H -0.272614 3.560400 -0.014505 0
M  V30 62 H -0.387426 3.989998 2.488096 0
M  V30 63 H -0.279290 3.002758 4.516933 0
M  V30 64 H 0.482167 2.515718 6.816654 0
M  V30 65 H 2.647437 1.447694 7.153012 0
M  V30 66 H 4.054067 0.869940 5.290792 0
M  V30 67 H 5.374953 0.915906 1.950238 0
M  V30 68 H 5.293493 0.892442 3.781773 0
M  V30 69 H 4.199863 -1.377411 4.783275 0
M  V30 70 H 4.121811 -3.750636 4.504161 0
M  V30 71 H 4.567460 -4.778540 2.371022 0
M  V30 72 H 5.112470 -3.391518 0.460708 0
M  V30 73 H 5.212395 -1.020929 0.665200 0
M  V30 END ATOM
M  V30 BEGIN BOND
M  V30 1 1 1 2
M  V30 2 1 2 3
M  V30 3 1 3 4
M  V30 4 1 4 5
M  V30 5 1 5 6
M  V30 6 1 6 7
M  V30 7 1 7 8
M  V30 8 1 8 9
M  V30 9 1 9 10
M  V30 10 1 10 11
M  V30 11 1 11 12
M  V30 12 2 12 13
M  V30 13 1 12 14
M  V30 14 1 14 15
M  V30 15 1 15 16
M  V30 16 2 16 17
M  V30 17 1 16 18
M  V30 18 2 18 19
M  V30 19 1 19 20
M  V30 20 1 19 21
M  V30 21 2 21 22
M  V30 22 1 22 23
M  V30 23 2 23 24
M  V30 24 1 24 25
M  V30 25 2 25 26
M  V30 26 1 26 27
M  V30 27 1 27 28
M  V30 28 1 28 29
M  V30 29 2 29 30
M  V30 30 1 30 31
M  V30 31 2 31 32
M  V30 32 1 32 33
M  V30 33 2 33 34
M  V30 34 1 27 35
M  V30 35 2 35 36
M  V30 36 1 35 18
M  V30 37 1 26 21
M  V30 38 1 34 29
M  V30 39 1 1 37
M  V30 40 1 1 38
M  V30 41 1 1 39
M  V30 42 1 2 40
M  V30 43 1 2 41
M  V30 44 1 3 42
M  V30 45 1 3 43
M  V30 46 1 4 44
M  V30 47 1 4 45
M  V30 48 1 5 46
M  V30 49 1 5 47
M  V30 50 1 6 48
M  V30 51 1 6 49
M  V30 52 1 7 50
M  V30 53 1 7 51
M  V30 54 1 8 52
M  V30 55 1 8 53
M  V30 56 1 9 54
M  V30 57 1 9 55
M  V30 58 1 10 56
M  V30 59 1 10 57
M  V30 60 1 11 58
M  V30 61 1 11 59
M  V30 62 1 14 60
M  V30 63 1 15 61
M  V30 64 1 20 62
M  V30 65 1 22 63
M  V30 66 1 23 64
M  V30 67 1 24 65
M  V30 68 1 25 66
M  V30 69 1 28 67
M  V30 70 1 28 68
M  V30 71 1 30 69
M  V30 72 1 31 70
M  V30 73 1 32 71
M  V30 74 1 33 72
M  V30 75 1 34 73
M  V30 END BOND
M  V30 END CTAB
M  END
>  <Dataset>  (907) 
ChEMBL_Kinases

>  <Ligand_Instance>  (907) 
nan

>  <PDB_ID>  (907) 
nan

>  <Standardized_SMILES>  (907) 
CCCCCCCCCCCC(=O)NNC(=O)c1c(O)c2ccccc2n(Cc2ccccc2)c1=O

>  <Name>  (907) 
nan

>  <Pocket>  (907) 
nan

>  <ATP_Site>  (907) 
nan

>  <Peripheral>  (907) 
nan

>  <Num_H_Atoms_ProtBoundConf>  (907) 
nan

>  <Num_Resolved_Atoms>  (907) 
nan

>  <Num_Not_Resolved_Atoms>  (907) 
nan

$$$$
CHEMBL4093574
     RDKit          3D

  0  0  0  0  0  0  0  0  0  0999 V3000
M  V30 BEGIN CTAB
M  V30 COUNTS 36 38 0 0 0
M  V30 BEGIN ATOM
M  V30 1 C 1.201101 -5.586802 2.407339 0
M  V30 2 O -0.016219 -4.871453 2.333650 0
M  V30 3 C -0.065392 -3.526447 2.078869 0
M  V30 4 C 0.965043 -2.616048 1.860271 0
M  V30 5 C 0.686522 -1.292357 1.616297 0
M  V30 6 C 1.841719 -0.386519 1.420296 0
M  V30 7 C 1.652223 0.441132 0.406062 0
M  V30 8 O 0.617672 0.619173 -0.481682 0
M  V30 9 C 0.845212 1.616158 -1.396735 0
M  V30 10 C 0.001054 2.046501 -2.429292 0
M  V30 11 C 0.480835 3.076888 -3.213322 0
M  V30 12 C 1.728522 3.662022 -2.999297 0
M  V30 13 C 2.540130 3.212138 -1.966560 0
M  V30 14 C 2.088482 2.168057 -1.149461 0
M  V30 15 C 2.657103 1.451262 0.002240 0
M  V30 16 O 3.786122 1.676804 0.523607 0
M  V30 17 C -0.600653 -0.792986 1.573279 0
M  V30 18 C -1.657926 -1.667817 1.787445 0
M  V30 19 O -2.968754 -1.223958 1.759296 0
M  V30 20 C -3.287952 0.116795 1.519565 0
M  V30 21 C -1.359640 -3.001623 2.032275 0
M  V30 22 O -2.488306 -3.820042 2.239446 0
M  V30 23 H 1.501360 -5.893202 1.369423 0
M  V30 24 H 2.046757 -4.981968 2.813256 0
M  V30 25 H 1.093736 -6.499793 3.063933 0
M  V30 26 H 1.940832 -3.072288 1.907555 0
M  V30 27 H 2.774172 -0.347558 2.006980 0
M  V30 28 H -0.965805 1.569906 -2.572236 0
M  V30 29 H -0.194271 3.404442 -4.021690 0
M  V30 30 H 2.050133 4.476091 -3.656115 0
M  V30 31 H 3.510048 3.650466 -1.781434 0
M  V30 32 H -0.797163 0.246698 1.379173 0
M  V30 33 H -3.124912 0.449805 0.479519 0
M  V30 34 H -4.362836 0.327662 1.776567 0
M  V30 35 H -2.707324 0.807238 2.197129 0
M  V30 36 H -3.197961 -3.565252 2.909337 0
M  V30 END ATOM
M  V30 BEGIN BOND
M  V30 1 1 1 2
M  V30 2 1 2 3
M  V30 3 2 3 4
M  V30 4 1 4 5
M  V30 5 1 5 6
M  V30 6 2 6 7
M  V30 7 1 7 8
M  V30 8 1 8 9
M  V30 9 2 9 10
M  V30 10 1 10 11
M  V30 11 2 11 12
M  V30 12 1 12 13
M  V30 13 2 13 14
M  V30 14 1 14 15
M  V30 15 2 15 16
M  V30 16 2 5 17
M  V30 17 1 17 18
M  V30 18 1 18 19
M  V30 19 1 19 20
M  V30 20 2 18 21
M  V30 21 1 21 22
M  V30 22 1 21 3
M  V30 23 1 15 7
M  V30 24 1 14 9
M  V30 25 1 1 23
M  V30 26 1 1 24
M  V30 27 1 1 25
M  V30 28 1 4 26
M  V30 29 1 6 27
M  V30 30 1 10 28
M  V30 31 1 11 29
M  V30 32 1 12 30
M  V30 33 1 13 31
M  V30 34 1 17 32
M  V30 35 1 20 33
M  V30 36 1 20 34
M  V30 37 1 20 35
M  V30 38 1 22 36
M  V30 END BOND
M  V30 END CTAB
M  END
>  <Dataset>  (908) 
ChEMBL_Kinases

>  <Ligand_Instance>  (908) 
nan

>  <PDB_ID>  (908) 
nan

>  <Standardized_SMILES>  (908) 
COc1cc(/C=C2\Oc3ccccc3C2=O)cc(OC)c1O

>  <Name>  (908) 
nan

>  <Pocket>  (908) 
nan

>  <ATP_Site>  (908) 
nan

>  <Peripheral>  (908) 
nan

>  <Num_H_Atoms_ProtBoundConf>  (908) 
nan

>  <Num_Resolved_Atoms>  (908) 
nan

>  <Num_Not_Resolved_Atoms>  (908) 
nan

$$$$
CHEMBL4093559
     RDKit          3D

  0  0  0  0  0  0  0  0  0  0999 V3000
M  V30 BEGIN CTAB
M  V30 COUNTS 50 53 0 0 0
M  V30 BEGIN ATOM
M  V30 1 C -0.595444 0.744696 2.731084 0
M  V30 2 C 0.226703 -0.359495 2.152654 0 CFG=2
M  V30 3 C 1.701763 -0.153025 2.198540 0
M  V30 4 N 2.152952 0.699814 1.120238 0
M  V30 5 C 3.556891 0.872468 0.997194 0
M  V30 6 C 4.382383 0.251922 1.906625 0
M  V30 7 C 5.774182 0.368577 1.856893 0
M  V30 8 C 6.372549 1.128393 0.869425 0
M  V30 9 C 7.792782 1.291418 0.758786 0
M  V30 10 N 8.951717 1.431310 0.681104 0
M  V30 11 C 5.570157 1.761991 -0.055881 0
M  V30 12 C 4.203687 1.616066 0.035695 0
M  V30 13 C 1.154587 1.304151 0.265067 0
M  V30 14 C 0.270315 0.172166 -0.250270 0
M  V30 15 N -0.273461 -0.641411 0.819228 0
M  V30 16 C -1.218880 -1.579941 0.312522 0
M  V30 17 N -2.556914 -1.314920 0.224453 0
M  V30 18 C -3.429554 -2.191149 -0.248703 0
M  V30 19 C -4.846229 -1.856424 -0.319008 0
M  V30 20 C -5.343360 -0.637945 0.093824 0
M  V30 21 C -6.671068 -0.272862 0.048847 0
M  V30 22 N -7.522005 -1.200994 -0.441546 0
M  V30 23 C -7.066038 -2.402884 -0.853672 0
M  V30 24 N -5.752610 -2.737599 -0.798676 0
M  V30 25 C -3.023294 -3.431676 -0.681670 0
M  V30 26 C -1.664465 -3.710731 -0.596080 0
M  V30 27 O -1.204779 -4.820724 -0.969498 0
M  V30 28 N -0.809496 -2.787524 -0.106845 0
M  V30 29 C 0.593507 -3.121716 -0.036993 0
M  V30 30 H -1.221583 0.392919 3.580753 0
M  V30 31 H -0.006936 1.591087 3.108680 0
M  V30 32 H -1.334808 1.174359 1.993853 0
M  V30 33 H 0.027479 -1.292499 2.760019 0
M  V30 34 H 1.941092 0.362225 3.154747 0
M  V30 35 H 2.261673 -1.129479 2.232519 0
M  V30 36 H 4.073424 -0.362081 2.720189 0
M  V30 37 H 6.448725 -0.093285 2.538544 0
M  V30 38 H 6.024251 2.356848 -0.829948 0
M  V30 39 H 3.614584 2.125771 -0.703971 0
M  V30 40 H 1.636125 1.780977 -0.589479 0
M  V30 41 H 0.563120 2.054646 0.826820 0
M  V30 42 H -0.534741 0.632941 -0.863765 0
M  V30 43 H 0.956396 -0.407306 -0.923340 0
M  V30 44 H -4.644234 0.101126 0.487421 0
M  V30 45 H -6.989463 0.704295 0.391862 0
M  V30 46 H -7.787180 -3.107233 -1.236688 0
M  V30 47 H -3.722405 -4.168139 -1.074405 0
M  V30 48 H 1.065878 -2.811456 -0.990439 0
M  V30 49 H 1.075215 -2.731403 0.871019 0
M  V30 50 H 0.728334 -4.237701 0.001538 0
M  V30 END ATOM
M  V30 BEGIN BOND
M  V30 1 1 1 2
M  V30 2 1 2 3
M  V30 3 1 3 4
M  V30 4 1 4 5
M  V30 5 2 5 6
M  V30 6 1 6 7
M  V30 7 2 7 8
M  V30 8 1 8 9
M  V30 9 3 9 10
M  V30 10 1 8 11
M  V30 11 2 11 12
M  V30 12 1 4 13
M  V30 13 1 13 14
M  V30 14 1 14 15
M  V30 15 1 15 16
M  V30 16 2 16 17
M  V30 17 1 17 18
M  V30 18 1 18 19
M  V30 19 2 19 20
M  V30 20 1 20 21
M  V30 21 2 21 22
M  V30 22 1 22 23
M  V30 23 2 23 24
M  V30 24 2 18 25
M  V30 25 1 25 26
M  V30 26 2 26 27
M  V30 27 1 26 28
M  V30 28 1 28 29
M  V30 29 1 15 2
M  V30 30 1 28 16
M  V30 31 1 12 5
M  V30 32 1 24 19
M  V30 33 1 1 30
M  V30 34 1 1 31
M  V30 35 1 1 32
M  V30 36 1 2 33 CFG=1
M  V30 37 1 3 34
M  V30 38 1 3 35
M  V30 39 1 6 36
M  V30 40 1 7 37
M  V30 41 1 11 38
M  V30 42 1 12 39
M  V30 43 1 13 40
M  V30 44 1 13 41
M  V30 45 1 14 42
M  V30 46 1 14 43
M  V30 47 1 20 44
M  V30 48 1 21 45
M  V30 49 1 23 46
M  V30 50 1 25 47
M  V30 51 1 29 48
M  V30 52 1 29 49
M  V30 53 1 29 50
M  V30 END BOND
M  V30 END CTAB
M  END
>  <Dataset>  (909) 
ChEMBL_Kinases

>  <Ligand_Instance>  (909) 
nan

>  <PDB_ID>  (909) 
nan

>  <Standardized_SMILES>  (909) 
C[C@@H]1CN(c2ccc(C#N)cc2)CCN1c1nc(-c2ccncn2)cc(=O)n1C

>  <Name>  (909) 
nan

>  <Pocket>  (909) 
nan

>  <ATP_Site>  (909) 
nan

>  <Peripheral>  (909) 
nan

>  <Num_H_Atoms_ProtBoundConf>  (909) 
nan

>  <Num_Resolved_Atoms>  (909) 
nan

>  <Num_Not_Resolved_Atoms>  (909) 
nan

$$$$
CHEMBL482350
     RDKit          3D

  0  0  0  0  0  0  0  0  0  0999 V3000
M  V30 BEGIN CTAB
M  V30 COUNTS 59 64 0 0 0
M  V30 BEGIN ATOM
M  V30 1 C 5.859493 -2.548807 4.270361 0
M  V30 2 O 5.085041 -1.459340 3.796394 0
M  V30 3 C 5.420842 -0.165659 4.170638 0
M  V30 4 C 6.475992 0.169786 4.990227 0
M  V30 5 C 6.764931 1.480210 5.331079 0
M  V30 6 F 7.803942 1.771066 6.134370 0
M  V30 7 C 5.975296 2.493874 4.838551 0
M  V30 8 C 4.895751 2.201556 4.004875 0
M  V30 9 C 4.628382 0.867838 3.677898 0
M  V30 10 C 3.500437 0.547980 2.805516 0
M  V30 11 C 3.625655 -0.357126 1.769065 0
M  V30 12 C 2.540147 -0.635067 0.965579 0
M  V30 13 C 1.303644 -0.056489 1.128878 0
M  V30 14 C 0.130250 -0.215687 0.430558 0
M  V30 15 C -0.241734 -1.028312 -0.709069 0
M  V30 16 N -1.490832 -0.995864 -1.209162 0
M  V30 17 C -1.610903 -1.816086 -2.249231 0
M  V30 18 C -2.692087 -2.120352 -3.082575 0
M  V30 19 N -3.954528 -1.495361 -2.874513 0
M  V30 20 C -4.408070 -0.140159 -2.878056 0
M  V30 21 C -5.230887 0.277163 -1.712385 0
M  V30 22 N -6.125667 -0.743217 -1.225623 0
M  V30 23 C -6.775260 -0.396286 -0.002218 0
M  V30 24 C -5.469906 -2.034912 -1.171133 0
M  V30 25 C -5.070730 -2.381655 -2.591065 0
M  V30 26 C -2.502089 -3.029295 -4.095709 0
M  V30 27 C -1.268480 -3.635050 -4.293024 0
M  V30 28 C -0.186181 -3.337975 -3.467873 0
M  V30 29 C -0.398055 -2.430803 -2.466312 0
M  V30 30 N 0.371978 -1.906476 -1.502187 0
M  V30 31 N -0.699091 0.636349 1.099118 0
M  V30 32 N -0.083118 1.236623 2.088243 0
M  V30 33 C 1.199963 0.843628 2.168620 0
M  V30 34 C 2.267119 1.143527 2.990638 0
M  V30 35 H 5.281861 -3.510545 4.176304 0
M  V30 36 H 6.790363 -2.699080 3.710170 0
M  V30 37 H 6.134081 -2.428333 5.353055 0
M  V30 38 H 7.094814 -0.629061 5.375794 0
M  V30 39 H 6.163017 3.523540 5.077029 0
M  V30 40 H 4.272767 3.013616 3.617463 0
M  V30 41 H 4.592441 -0.851266 1.591105 0
M  V30 42 H 2.712171 -1.346296 0.182950 0
M  V30 43 H -3.570836 0.576637 -3.007344 0
M  V30 44 H -5.013794 -0.013993 -3.822532 0
M  V30 45 H -4.651956 0.691004 -0.861628 0
M  V30 46 H -5.895962 1.113906 -2.068925 0
M  V30 47 H -7.782504 0.033935 -0.114247 0
M  V30 48 H -6.890868 -1.326712 0.616845 0
M  V30 49 H -6.098517 0.249696 0.600335 0
M  V30 50 H -6.110343 -2.784878 -0.710499 0
M  V30 51 H -4.536822 -1.903611 -0.593034 0
M  V30 52 H -4.806303 -3.452347 -2.632905 0
M  V30 53 H -5.922390 -2.206609 -3.286952 0
M  V30 54 H -3.321222 -3.277175 -4.747975 0
M  V30 55 H -1.101982 -4.352620 -5.085752 0
M  V30 56 H 0.796220 -3.773626 -3.568688 0
M  V30 57 H 1.364727 -2.185906 -1.410313 0
M  V30 58 H -0.564172 1.923440 2.708101 0
M  V30 59 H 2.092834 1.861728 3.780717 0
M  V30 END ATOM
M  V30 BEGIN BOND
M  V30 1 1 1 2
M  V30 2 1 2 3
M  V30 3 2 3 4
M  V30 4 1 4 5
M  V30 5 1 5 6
M  V30 6 2 5 7
M  V30 7 1 7 8
M  V30 8 2 8 9
M  V30 9 1 9 10
M  V30 10 2 10 11
M  V30 11 1 11 12
M  V30 12 2 12 13
M  V30 13 1 13 14
M  V30 14 1 14 15
M  V30 15 2 15 16
M  V30 16 1 16 17
M  V30 17 2 17 18
M  V30 18 1 18 19
M  V30 19 1 19 20
M  V30 20 1 20 21
M  V30 21 1 21 22
M  V30 22 1 22 23
M  V30 23 1 22 24
M  V30 24 1 24 25
M  V30 25 1 18 26
M  V30 26 2 26 27
M  V30 27 1 27 28
M  V30 28 2 28 29
M  V30 29 1 29 30
M  V30 30 2 14 31
M  V30 31 1 31 32
M  V30 32 1 32 33
M  V30 33 2 33 34
M  V30 34 1 9 3
M  V30 35 1 34 10
M  V30 36 1 33 13
M  V30 37 1 30 15
M  V30 38 1 29 17
M  V30 39 1 25 19
M  V30 40 1 1 35
M  V30 41 1 1 36
M  V30 42 1 1 37
M  V30 43 1 4 38
M  V30 44 1 7 39
M  V30 45 1 8 40
M  V30 46 1 11 41
M  V30 47 1 12 42
M  V30 48 1 20 43
M  V30 49 1 20 44
M  V30 50 1 21 45
M  V30 51 1 21 46
M  V30 52 1 23 47
M  V30 53 1 23 48
M  V30 54 1 23 49
M  V30 55 1 24 50
M  V30 56 1 24 51
M  V30 57 1 25 52
M  V30 58 1 25 53
M  V30 59 1 26 54
M  V30 60 1 27 55
M  V30 61 1 28 56
M  V30 62 1 30 57
M  V30 63 1 32 58
M  V30 64 1 34 59
M  V30 END BOND
M  V30 END CTAB
M  END
>  <Dataset>  (910) 
ChEMBL_Kinases

>  <Ligand_Instance>  (910) 
nan

>  <PDB_ID>  (910) 
nan

>  <Standardized_SMILES>  (910) 
COc1cc(F)ccc1-c1ccc2c(-c3nc4c(N5CCN(C)CC5)cccc4[nH]3)n[nH]c2c1

>  <Name>  (910) 
nan

>  <Pocket>  (910) 
nan

>  <ATP_Site>  (910) 
nan

>  <Peripheral>  (910) 
nan

>  <Num_H_Atoms_ProtBoundConf>  (910) 
nan

>  <Num_Resolved_Atoms>  (910) 
nan

>  <Num_Not_Resolved_Atoms>  (910) 
nan

$$$$
CHEMBL4093321
     RDKit          3D

  0  0  0  0  0  0  0  0  0  0999 V3000
M  V30 BEGIN CTAB
M  V30 COUNTS 54 58 0 0 0
M  V30 BEGIN ATOM
M  V30 1 C -0.586165 -5.724073 2.407016 0
M  V30 2 C 0.446741 -6.516560 1.625816 0
M  V30 3 O 1.795189 -6.276459 1.912519 0
M  V30 4 C 2.465701 -5.089574 1.796322 0
M  V30 5 C 3.813205 -5.022979 2.124608 0
M  V30 6 C 4.442438 -3.790052 1.986651 0
M  V30 7 C 3.784997 -2.658325 1.544346 0
M  V30 8 N 4.177280 -1.387196 1.336385 0
M  V30 9 N 3.136517 -0.672822 0.897170 0
M  V30 10 C 2.051416 -1.469401 0.812996 0
M  V30 11 C 0.697587 -1.109935 0.379527 0
M  V30 12 C 0.483654 0.221474 0.000027 0
M  V30 13 C -0.788316 0.523956 -0.399160 0
M  V30 14 N -1.147771 1.835282 -0.811688 0
M  V30 15 C -0.352091 3.030923 -0.900669 0
M  V30 16 C -0.828230 4.150648 -0.049098 0
M  V30 17 N -2.220393 4.208065 0.217586 0
M  V30 18 S -2.800435 5.818010 0.405937 0
M  V30 19 C -2.548144 6.743830 -1.088953 0
M  V30 20 O -4.234447 5.868396 0.769433 0
M  V30 21 O -1.997584 6.467739 1.499338 0
M  V30 22 C -3.071065 3.380213 -0.552905 0
M  V30 23 C -2.466763 2.222177 -1.243945 0
M  V30 24 N -1.781426 -0.382780 -0.432038 0
M  V30 25 C -1.561153 -1.670122 -0.061671 0
M  V30 26 N -0.317001 -1.992073 0.335132 0
M  V30 27 C 2.440193 -2.733683 1.218911 0
M  V30 28 C 1.797819 -3.952534 1.350093 0
M  V30 29 C 0.096273 -7.987736 1.402861 0
M  V30 30 C 0.028679 -6.989771 0.277483 0
M  V30 31 H -0.137084 -5.068566 3.154194 0
M  V30 32 H -1.249070 -5.138455 1.753852 0
M  V30 33 H -1.253461 -6.447659 2.952495 0
M  V30 34 H 4.380447 -5.887659 2.479196 0
M  V30 35 H 5.492550 -3.717173 2.237373 0
M  V30 36 H 5.162082 -1.045293 1.505249 0
M  V30 37 H 1.271669 0.931827 0.028372 0
M  V30 38 H -0.267041 3.330312 -1.977866 0
M  V30 39 H 0.679777 2.777027 -0.582707 0
M  V30 40 H -0.580710 5.097129 -0.615123 0
M  V30 41 H -0.277478 4.246665 0.906649 0
M  V30 42 H -2.753017 6.126326 -1.987167 0
M  V30 43 H -1.531480 7.213679 -1.117766 0
M  V30 44 H -3.261554 7.585935 -1.083114 0
M  V30 45 H -3.862140 2.977895 0.146208 0
M  V30 46 H -3.637878 4.058882 -1.255096 0
M  V30 47 H -2.404144 2.492642 -2.338344 0
M  V30 48 H -3.133452 1.312524 -1.237535 0
M  V30 49 H -2.335854 -2.419057 -0.077047 0
M  V30 50 H 0.746693 -3.983048 1.088821 0
M  V30 51 H -0.842063 -8.379974 1.849138 0
M  V30 52 H 0.911857 -8.739184 1.388142 0
M  V30 53 H 0.806328 -7.126247 -0.502778 0
M  V30 54 H -0.990720 -6.766618 -0.066477 0
M  V30 END ATOM
M  V30 BEGIN BOND
M  V30 1 1 1 2
M  V30 2 1 2 3
M  V30 3 1 3 4
M  V30 4 2 4 5
M  V30 5 1 5 6
M  V30 6 2 6 7
M  V30 7 1 7 8
M  V30 8 1 8 9
M  V30 9 2 9 10
M  V30 10 1 10 11
M  V30 11 2 11 12
M  V30 12 1 12 13
M  V30 13 1 13 14
M  V30 14 1 14 15
M  V30 15 1 15 16
M  V30 16 1 16 17
M  V30 17 1 17 18
M  V30 18 1 18 19
M  V30 19 2 18 20
M  V30 20 2 18 21
M  V30 21 1 17 22
M  V30 22 1 22 23
M  V30 23 2 13 24
M  V30 24 1 24 25
M  V30 25 2 25 26
M  V30 26 1 10 27
M  V30 27 2 27 28
M  V30 28 1 2 29
M  V30 29 1 29 30
M  V30 30 1 30 2
M  V30 31 1 28 4
M  V30 32 1 27 7
M  V30 33 1 26 11
M  V30 34 1 23 14
M  V30 35 1 1 31
M  V30 36 1 1 32
M  V30 37 1 1 33
M  V30 38 1 5 34
M  V30 39 1 6 35
M  V30 40 1 8 36
M  V30 41 1 12 37
M  V30 42 1 15 38
M  V30 43 1 15 39
M  V30 44 1 16 40
M  V30 45 1 16 41
M  V30 46 1 19 42
M  V30 47 1 19 43
M  V30 48 1 19 44
M  V30 49 1 22 45
M  V30 50 1 22 46
M  V30 51 1 23 47
M  V30 52 1 23 48
M  V30 53 1 25 49
M  V30 54 1 28 50
M  V30 55 1 29 51
M  V30 56 1 29 52
M  V30 57 1 30 53
M  V30 58 1 30 54
M  V30 END BOND
M  V30 END CTAB
M  END
>  <Dataset>  (911) 
ChEMBL_Kinases

>  <Ligand_Instance>  (911) 
nan

>  <PDB_ID>  (911) 
nan

>  <Standardized_SMILES>  (911) 
CC1(Oc2ccc3[nH]nc(-c4cc(N5CCN(S(C)(=O)=O)CC5)ncn4)c3c2)CC1

>  <Name>  (911) 
nan

>  <Pocket>  (911) 
nan

>  <ATP_Site>  (911) 
nan

>  <Peripheral>  (911) 
nan

>  <Num_H_Atoms_ProtBoundConf>  (911) 
nan

>  <Num_Resolved_Atoms>  (911) 
nan

>  <Num_Not_Resolved_Atoms>  (911) 
nan

$$$$
CHEMBL409329
     RDKit          3D

  0  0  0  0  0  0  0  0  0  0999 V3000
M  V30 BEGIN CTAB
M  V30 COUNTS 45 48 0 0 0
M  V30 BEGIN ATOM
M  V30 1 C 0.252100 -3.726784 3.626559 0
M  V30 2 N 0.915872 -2.536167 3.126542 0
M  V30 3 C 2.298003 -2.238276 3.171023 0
M  V30 4 O 3.013724 -3.103347 3.703856 0
M  V30 5 C 2.879916 -1.020013 2.641826 0
M  V30 6 C 4.247232 -0.840743 2.744001 0
M  V30 7 C 4.816007 0.318376 2.234178 0
M  V30 8 C 4.065752 1.299929 1.627749 0
M  V30 9 C 4.698333 2.526011 1.092439 0
M  V30 10 C 2.694407 1.144763 1.512417 0
M  V30 11 N 1.814462 2.077017 0.903199 0
M  V30 12 C 0.429502 1.755384 0.886575 0
M  V30 13 N -0.475900 2.250350 1.783018 0
M  V30 14 C -1.771084 1.890024 1.728620 0
M  V30 15 N -2.244418 1.021831 0.786765 0
M  V30 16 C -1.387205 0.508407 -0.118521 0
M  V30 17 C -0.030255 0.865123 -0.087585 0
M  V30 18 C 0.535134 0.166250 -1.131027 0
M  V30 19 N -0.415093 -0.559626 -1.745329 0
M  V30 20 N -1.591222 -0.355563 -1.131935 0
M  V30 21 C -2.781744 -1.003480 -1.563094 0
M  V30 22 C -2.710271 -2.369902 -1.335572 0
M  V30 23 C -3.759458 -3.208258 -1.675800 0
M  V30 24 C -4.901846 -2.648051 -2.258162 0
M  V30 25 C -4.974684 -1.292670 -2.484640 0
M  V30 26 C -3.918361 -0.478053 -2.137566 0
M  V30 27 F -3.869624 0.862893 -2.306878 0
M  V30 28 C 2.164267 -0.015883 2.029178 0
M  V30 29 H -0.099017 -3.612140 4.657484 0
M  V30 30 H 0.937278 -4.613337 3.598753 0
M  V30 31 H -0.631280 -4.000467 2.992041 0
M  V30 32 H 0.238581 -1.863841 2.698298 0
M  V30 33 H 4.897973 -1.591618 3.217278 0
M  V30 34 H 5.907931 0.441895 2.325276 0
M  V30 35 H 3.980071 3.259367 0.683635 0
M  V30 36 H 5.471590 2.291890 0.330124 0
M  V30 37 H 5.264715 2.963195 1.967138 0
M  V30 38 H 1.997028 2.976774 0.453575 0
M  V30 39 H -2.426414 2.340338 2.493084 0
M  V30 40 H 1.593099 0.263882 -1.332026 0
M  V30 41 H -1.912814 -2.980967 -0.898101 0
M  V30 42 H -3.858151 -4.274228 -1.566815 0
M  V30 43 H -5.784039 -3.233059 -2.563727 0
M  V30 44 H -5.844065 -0.826587 -2.933301 0
M  V30 45 H 1.102799 -0.203644 1.975592 0
M  V30 END ATOM
M  V30 BEGIN BOND
M  V30 1 1 1 2
M  V30 2 1 2 3
M  V30 3 2 3 4
M  V30 4 1 3 5
M  V30 5 2 5 6
M  V30 6 1 6 7
M  V30 7 2 7 8
M  V30 8 1 8 9
M  V30 9 1 8 10
M  V30 10 1 10 11
M  V30 11 1 11 12
M  V30 12 2 12 13
M  V30 13 1 13 14
M  V30 14 2 14 15
M  V30 15 1 15 16
M  V30 16 2 16 17
M  V30 17 1 17 18
M  V30 18 2 18 19
M  V30 19 1 19 20
M  V30 20 1 20 21
M  V30 21 2 21 22
M  V30 22 1 22 23
M  V30 23 2 23 24
M  V30 24 1 24 25
M  V30 25 2 25 26
M  V30 26 1 26 27
M  V30 27 2 10 28
M  V30 28 1 28 5
M  V30 29 1 17 12
M  V30 30 1 26 21
M  V30 31 1 20 16
M  V30 32 1 1 29
M  V30 33 1 1 30
M  V30 34 1 1 31
M  V30 35 1 2 32
M  V30 36 1 6 33
M  V30 37 1 7 34
M  V30 38 1 9 35
M  V30 39 1 9 36
M  V30 40 1 9 37
M  V30 41 1 11 38
M  V30 42 1 14 39
M  V30 43 1 18 40
M  V30 44 1 22 41
M  V30 45 1 23 42
M  V30 46 1 24 43
M  V30 47 1 25 44
M  V30 48 1 28 45
M  V30 END BOND
M  V30 END CTAB
M  END
>  <Dataset>  (912) 
ChEMBL_Kinases

>  <Ligand_Instance>  (912) 
nan

>  <PDB_ID>  (912) 
nan

>  <Standardized_SMILES>  (912) 
CNC(=O)c1ccc(C)c(Nc2ncnc3c2cnn3-c2ccccc2F)c1

>  <Name>  (912) 
nan

>  <Pocket>  (912) 
nan

>  <ATP_Site>  (912) 
nan

>  <Peripheral>  (912) 
nan

>  <Num_H_Atoms_ProtBoundConf>  (912) 
nan

>  <Num_Resolved_Atoms>  (912) 
nan

>  <Num_Not_Resolved_Atoms>  (912) 
nan

$$$$
CHEMBL409328
     RDKit          3D

  0  0  0  0  0  0  0  0  0  0999 V3000
M  V30 BEGIN CTAB
M  V30 COUNTS 54 57 0 0 0
M  V30 BEGIN ATOM
M  V30 1 C 5.188933 -2.892276 -3.804230 0
M  V30 2 N 4.636943 -1.917611 -2.888179 0
M  V30 3 C 5.318732 -1.413886 -1.750425 0
M  V30 4 O 6.468844 -1.855173 -1.550572 0
M  V30 5 C 4.759201 -0.433262 -0.828404 0
M  V30 6 C 5.556158 -0.004833 0.210322 0
M  V30 7 C 5.036788 0.931935 1.106974 0
M  V30 8 C 3.762281 1.455200 1.010311 0
M  V30 9 C 3.280438 2.450030 1.996296 0
M  V30 10 C 2.973864 1.016815 -0.035743 0
M  V30 11 N 1.638584 1.517172 -0.199439 0
M  V30 12 C 0.463127 1.482338 0.621827 0
M  V30 13 N 0.064824 2.323833 1.590817 0
M  V30 14 C -1.094036 2.094883 2.233981 0
M  V30 15 N -1.916895 1.062068 1.983746 0
M  V30 16 C -1.555700 0.195754 1.021673 0
M  V30 17 C -0.359281 0.388859 0.322164 0
M  V30 18 C -0.338762 -0.687033 -0.568640 0
M  V30 19 N -1.439283 -1.432793 -0.387825 0
M  V30 20 N -2.185306 -0.908293 0.573409 0
M  V30 21 C -3.429166 -1.414338 1.046235 0
M  V30 22 C -4.692557 -0.886972 0.852175 0
M  V30 23 C -4.696997 0.365855 0.043955 0
M  V30 24 C -5.800094 -1.515983 1.384872 0
M  V30 25 C -5.670526 -2.678132 2.118174 0
M  V30 26 C -6.863323 -3.345107 2.681938 0
M  V30 27 C -4.389672 -3.209170 2.312681 0
M  V30 28 C -3.266609 -2.586218 1.782236 0
M  V30 29 C -2.012928 -3.280791 2.085117 0
M  V30 30 C 3.489906 0.081710 -0.933042 0
M  V30 31 H 5.324047 -3.895379 -3.345432 0
M  V30 32 H 6.118121 -2.545581 -4.266528 0
M  V30 33 H 4.449050 -3.042433 -4.616720 0
M  V30 34 H 3.665009 -1.522424 -3.031987 0
M  V30 35 H 6.557102 -0.352770 0.368032 0
M  V30 36 H 5.651044 1.289986 1.944543 0
M  V30 37 H 2.639524 2.034934 2.785083 0
M  V30 38 H 2.708955 3.220842 1.441003 0
M  V30 39 H 4.169899 2.994375 2.429317 0
M  V30 40 H 1.646670 1.974654 -1.137636 0
M  V30 41 H -1.362754 2.813457 3.010256 0
M  V30 42 H 0.469657 -0.841309 -1.273127 0
M  V30 43 H -4.397357 1.203627 0.718101 0
M  V30 44 H -3.941913 0.338728 -0.753510 0
M  V30 45 H -5.726611 0.546567 -0.345235 0
M  V30 46 H -6.749120 -1.041841 1.187537 0
M  V30 47 H -7.749483 -3.240438 2.038960 0
M  V30 48 H -7.147059 -3.002219 3.681471 0
M  V30 49 H -6.710823 -4.460223 2.769324 0
M  V30 50 H -4.365486 -4.123209 2.899121 0
M  V30 51 H -1.130045 -2.885674 1.584579 0
M  V30 52 H -2.077801 -4.361305 1.796654 0
M  V30 53 H -1.923093 -3.308860 3.210225 0
M  V30 54 H 2.845939 -0.221538 -1.717736 0
M  V30 END ATOM
M  V30 BEGIN BOND
M  V30 1 1 1 2
M  V30 2 1 2 3
M  V30 3 2 3 4
M  V30 4 1 3 5
M  V30 5 2 5 6
M  V30 6 1 6 7
M  V30 7 2 7 8
M  V30 8 1 8 9
M  V30 9 1 8 10
M  V30 10 1 10 11
M  V30 11 1 11 12
M  V30 12 2 12 13
M  V30 13 1 13 14
M  V30 14 2 14 15
M  V30 15 1 15 16
M  V30 16 2 16 17
M  V30 17 1 17 18
M  V30 18 2 18 19
M  V30 19 1 19 20
M  V30 20 1 20 21
M  V30 21 2 21 22
M  V30 22 1 22 23
M  V30 23 1 22 24
M  V30 24 2 24 25
M  V30 25 1 25 26
M  V30 26 1 25 27
M  V30 27 2 27 28
M  V30 28 1 28 29
M  V30 29 2 10 30
M  V30 30 1 30 5
M  V30 31 1 17 12
M  V30 32 1 28 21
M  V30 33 1 20 16
M  V30 34 1 1 31
M  V30 35 1 1 32
M  V30 36 1 1 33
M  V30 37 1 2 34
M  V30 38 1 6 35
M  V30 39 1 7 36
M  V30 40 1 9 37
M  V30 41 1 9 38
M  V30 42 1 9 39
M  V30 43 1 11 40
M  V30 44 1 14 41
M  V30 45 1 18 42
M  V30 46 1 23 43
M  V30 47 1 23 44
M  V30 48 1 23 45
M  V30 49 1 24 46
M  V30 50 1 26 47
M  V30 51 1 26 48
M  V30 52 1 26 49
M  V30 53 1 27 50
M  V30 54 1 29 51
M  V30 55 1 29 52
M  V30 56 1 29 53
M  V30 57 1 30 54
M  V30 END BOND
M  V30 END CTAB
M  END
>  <Dataset>  (913) 
ChEMBL_Kinases

>  <Ligand_Instance>  (913) 
nan

>  <PDB_ID>  (913) 
nan

>  <Standardized_SMILES>  (913) 
CNC(=O)c1ccc(C)c(Nc2ncnc3c2cnn3-c2c(C)cc(C)cc2C)c1

>  <Name>  (913) 
nan

>  <Pocket>  (913) 
nan

>  <ATP_Site>  (913) 
nan

>  <Peripheral>  (913) 
nan

>  <Num_H_Atoms_ProtBoundConf>  (913) 
nan

>  <Num_Resolved_Atoms>  (913) 
nan

>  <Num_Not_Resolved_Atoms>  (913) 
nan

$$$$
CHEMBL4093249
     RDKit          3D

  0  0  0  0  0  0  0  0  0  0999 V3000
M  V30 BEGIN CTAB
M  V30 COUNTS 68 73 0 0 0
M  V30 BEGIN ATOM
M  V30 1 C 9.554809 -0.241064 3.223977 0
M  V30 2 C 8.154430 -0.043414 2.741121 0
M  V30 3 N 7.754974 -0.526152 1.545984 0
M  V30 4 N 6.489011 -0.219626 1.360004 0
M  V30 5 C 5.542863 -0.453721 0.314480 0
M  V30 6 C 4.896147 -1.660932 0.542376 0
M  V30 7 C 3.918326 -2.130139 -0.337373 0
M  V30 8 C 3.629472 -1.333312 -1.441881 0
M  V30 9 C 4.269989 -0.139969 -1.665478 0
M  V30 10 C 5.230033 0.301412 -0.784427 0
M  V30 11 C 5.998833 0.465366 2.398162 0
M  V30 12 O 4.860206 1.078320 2.891753 0
M  V30 13 C 3.641685 1.132290 2.238305 0
M  V30 14 C 2.716890 0.106860 2.461402 0
M  V30 15 C 1.486072 0.115489 1.833602 0
M  V30 16 C 1.120208 1.130115 0.965500 0
M  V30 17 C -0.172232 1.177481 0.286428 0
M  V30 18 N -1.119925 0.231710 0.442027 0
M  V30 19 C -2.200589 0.520515 -0.293266 0
M  V30 20 C -3.408262 -0.120968 -0.469719 0
M  V30 21 C -4.408585 0.357457 -1.289168 0
M  V30 22 C -5.704933 -0.256569 -1.534891 0
M  V30 23 O -6.550580 0.319563 -2.265517 0
M  V30 24 N -6.048825 -1.510791 -0.963936 0
M  V30 25 C -7.325071 -2.206066 -1.150925 0
M  V30 26 C -7.123622 -3.521256 -1.871998 0
M  V30 27 C -6.294439 -4.464643 -1.007943 0
M  V30 28 C -6.998999 -4.830788 0.261534 0
M  V30 29 C -8.232229 -3.952979 0.411209 0
M  V30 30 C -7.859445 -2.505594 0.228475 0
M  V30 31 C -4.104195 1.559246 -1.938015 0
M  V30 32 C -2.907397 2.223475 -1.782435 0
M  V30 33 C -1.935319 1.706830 -0.951991 0
M  V30 34 N -0.697433 2.067161 -0.571384 0
M  V30 35 C 2.029925 2.157533 0.733075 0
M  V30 36 C 3.251940 2.129888 1.369212 0
M  V30 37 C 7.050502 0.598363 3.313090 0
M  V30 38 N 7.276600 1.187940 4.609670 0 CHG=1 VAL=4
M  V30 39 O 6.948704 0.907373 5.776844 0
M  V30 40 O 8.016552 2.344931 4.752686 0 CHG=-1 VAL=1
M  V30 41 H 10.279520 -0.022866 2.436703 0
M  V30 42 H 9.739456 -1.292118 3.552372 0
M  V30 43 H 9.753888 0.387272 4.118975 0
M  V30 44 H 5.040376 -2.362939 1.368743 0
M  V30 45 H 3.375506 -3.057504 -0.223438 0
M  V30 46 H 2.885857 -1.623380 -2.171822 0
M  V30 47 H 4.072768 0.507635 -2.513640 0
M  V30 48 H 5.808321 1.207936 -0.832167 0
M  V30 49 H 2.916529 -0.741782 3.134325 0
M  V30 50 H 0.724124 -0.629736 1.950909 0
M  V30 51 H -3.609291 -1.048188 0.048609 0
M  V30 52 H -5.354790 -1.995211 -0.357861 0
M  V30 53 H -8.048086 -1.615339 -1.720959 0
M  V30 54 H -8.109460 -3.981725 -2.014970 0
M  V30 55 H -6.540675 -3.375608 -2.813030 0
M  V30 56 H -6.016461 -5.379938 -1.610687 0
M  V30 57 H -5.329954 -3.982225 -0.753075 0
M  V30 58 H -7.300968 -5.910568 0.260553 0
M  V30 59 H -6.355623 -4.608752 1.112561 0
M  V30 60 H -9.076035 -4.259277 -0.213781 0
M  V30 61 H -8.551554 -4.045737 1.489953 0
M  V30 62 H -8.818405 -1.932176 0.358109 0
M  V30 63 H -7.205847 -2.138369 1.040740 0
M  V30 64 H -4.802796 2.042900 -2.609742 0
M  V30 65 H -2.681585 3.144488 -2.283560 0
M  V30 66 H -0.188171 2.919727 -0.884976 0
M  V30 67 H 1.837958 2.993720 0.072893 0
M  V30 68 H 3.992083 2.917561 1.212462 0
M  V30 END ATOM
M  V30 BEGIN BOND
M  V30 1 1 1 2
M  V30 2 2 2 3
M  V30 3 1 3 4
M  V30 4 1 4 5
M  V30 5 2 5 6
M  V30 6 1 6 7
M  V30 7 2 7 8
M  V30 8 1 8 9
M  V30 9 2 9 10
M  V30 10 1 4 11
M  V30 11 1 11 12
M  V30 12 1 12 13
M  V30 13 2 13 14
M  V30 14 1 14 15
M  V30 15 2 15 16
M  V30 16 1 16 17
M  V30 17 2 17 18
M  V30 18 1 18 19
M  V30 19 2 19 20
M  V30 20 1 20 21
M  V30 21 1 21 22
M  V30 22 2 22 23
M  V30 23 1 22 24
M  V30 24 1 24 25
M  V30 25 1 25 26
M  V30 26 1 26 27
M  V30 27 1 27 28
M  V30 28 1 28 29
M  V30 29 1 29 30
M  V30 30 2 21 31
M  V30 31 1 31 32
M  V30 32 2 32 33
M  V30 33 1 33 34
M  V30 34 1 16 35
M  V30 35 2 35 36
M  V30 36 2 11 37
M  V30 37 1 37 38
M  V30 38 2 38 39
M  V30 39 1 38 40
M  V30 40 1 37 2
M  V30 41 1 10 5
M  V30 42 1 36 13
M  V30 43 1 34 17
M  V30 44 1 33 19
M  V30 45 1 30 25
M  V30 46 1 1 41
M  V30 47 1 1 42
M  V30 48 1 1 43
M  V30 49 1 6 44
M  V30 50 1 7 45
M  V30 51 1 8 46
M  V30 52 1 9 47
M  V30 53 1 10 48
M  V30 54 1 14 49
M  V30 55 1 15 50
M  V30 56 1 20 51
M  V30 57 1 24 52
M  V30 58 1 25 53
M  V30 59 1 26 54
M  V30 60 1 26 55
M  V30 61 1 27 56
M  V30 62 1 27 57
M  V30 63 1 28 58
M  V30 64 1 28 59
M  V30 65 1 29 60
M  V30 66 1 29 61
M  V30 67 1 30 62
M  V30 68 1 30 63
M  V30 69 1 31 64
M  V30 70 1 32 65
M  V30 71 1 34 66
M  V30 72 1 35 67
M  V30 73 1 36 68
M  V30 END BOND
M  V30 END CTAB
M  END
>  <Dataset>  (914) 
ChEMBL_Kinases

>  <Ligand_Instance>  (914) 
nan

>  <PDB_ID>  (914) 
nan

>  <Standardized_SMILES>  (914) 
Cc1nn(-c2ccccc2)c(Oc2ccc(-c3nc4cc(C(=O)NC5CCCCC5)ccc4[nH]3)cc2)c1[N+](=O)[O-]

>  <Name>  (914) 
nan

>  <Pocket>  (914) 
nan

>  <ATP_Site>  (914) 
nan

>  <Peripheral>  (914) 
nan

>  <Num_H_Atoms_ProtBoundConf>  (914) 
nan

>  <Num_Resolved_Atoms>  (914) 
nan

>  <Num_Not_Resolved_Atoms>  (914) 
nan

$$$$
CHEMBL4093185
     RDKit          3D

  0  0  0  0  0  0  0  0  0  0999 V3000
M  V30 BEGIN CTAB
M  V30 COUNTS 51 54 0 0 0
M  V30 BEGIN ATOM
M  V30 1 C 1.214525 -3.108129 4.318581 0
M  V30 2 C 1.165077 -3.220065 2.793507 0
M  V30 3 C 0.500311 -4.554376 2.514062 0
M  V30 4 O 2.471589 -3.184791 2.296471 0
M  V30 5 C 2.933413 -2.195628 1.457127 0
M  V30 6 C 4.275597 -2.456702 1.148810 0
M  V30 7 C 5.003609 -1.608921 0.309175 0
M  V30 8 C 4.412343 -0.484011 -0.241389 0
M  V30 9 N 4.750766 0.539712 -1.059469 0
M  V30 10 N 3.719779 1.347263 -1.235166 0
M  V30 11 C 2.643374 0.900444 -0.542095 0
M  V30 12 C 1.335806 1.546994 -0.508167 0
M  V30 13 C 1.325469 2.930423 -0.331164 0
M  V30 14 C 0.088078 3.534335 -0.300253 0
M  V30 15 N -1.046972 2.838961 -0.432083 0
M  V30 16 C -1.095511 1.493123 -0.606458 0
M  V30 17 N -2.312513 0.766800 -0.745349 0
M  V30 18 C -2.282876 -0.660459 -0.921280 0
M  V30 19 C -3.611471 -1.314405 -0.652268 0
M  V30 20 N -4.263166 -0.563351 0.394019 0
M  V30 21 C -3.432869 -0.580300 1.559915 0
M  V30 22 C -4.642053 0.762977 -0.033661 0
M  V30 23 C -3.530094 1.530634 -0.699695 0
M  V30 24 C 0.125300 0.898448 -0.636820 0
M  V30 25 C 3.091990 -0.255374 0.081047 0
M  V30 26 C 2.367374 -1.086724 0.908341 0
M  V30 27 H 1.424588 -4.095099 4.749960 0
M  V30 28 H 1.922091 -2.315228 4.572324 0
M  V30 29 H 0.204531 -2.794941 4.674374 0
M  V30 30 H 0.591771 -2.374426 2.428641 0
M  V30 31 H 1.284473 -5.332283 2.612810 0
M  V30 32 H -0.010783 -4.589037 1.531274 0
M  V30 33 H -0.254418 -4.757932 3.293811 0
M  V30 34 H 4.902423 -3.295221 1.491589 0
M  V30 35 H 6.035503 -1.761773 0.039801 0
M  V30 36 H 5.728992 0.575620 -1.437608 0
M  V30 37 H 2.202146 3.536649 -0.220499 0
M  V30 38 H -0.076696 4.610312 -0.168661 0
M  V30 39 H -1.500183 -1.088456 -0.228804 0
M  V30 40 H -1.900724 -0.849349 -1.947773 0
M  V30 41 H -3.422199 -2.323799 -0.240612 0
M  V30 42 H -4.199053 -1.425876 -1.565890 0
M  V30 43 H -3.092612 0.457544 1.758958 0
M  V30 44 H -2.559488 -1.261167 1.505250 0
M  V30 45 H -4.003502 -0.905967 2.459492 0
M  V30 46 H -5.517235 0.612092 -0.721656 0
M  V30 47 H -5.050530 1.289320 0.859618 0
M  V30 48 H -3.854910 1.742843 -1.745284 0
M  V30 49 H -3.387843 2.531163 -0.241109 0
M  V30 50 H 0.232143 -0.161681 -0.769170 0
M  V30 51 H 1.342343 -0.966891 1.198084 0
M  V30 END ATOM
M  V30 BEGIN BOND
M  V30 1 1 1 2
M  V30 2 1 2 3
M  V30 3 1 2 4
M  V30 4 1 4 5
M  V30 5 2 5 6
M  V30 6 1 6 7
M  V30 7 2 7 8
M  V30 8 1 8 9
M  V30 9 1 9 10
M  V30 10 2 10 11
M  V30 11 1 11 12
M  V30 12 2 12 13
M  V30 13 1 13 14
M  V30 14 2 14 15
M  V30 15 1 15 16
M  V30 16 1 16 17
M  V30 17 1 17 18
M  V30 18 1 18 19
M  V30 19 1 19 20
M  V30 20 1 20 21
M  V30 21 1 20 22
M  V30 22 1 22 23
M  V30 23 2 16 24
M  V30 24 1 11 25
M  V30 25 2 25 26
M  V30 26 1 26 5
M  V30 27 1 25 8
M  V30 28 1 24 12
M  V30 29 1 23 17
M  V30 30 1 1 27
M  V30 31 1 1 28
M  V30 32 1 1 29
M  V30 33 1 2 30
M  V30 34 1 3 31
M  V30 35 1 3 32
M  V30 36 1 3 33
M  V30 37 1 6 34
M  V30 38 1 7 35
M  V30 39 1 9 36
M  V30 40 1 13 37
M  V30 41 1 14 38
M  V30 42 1 18 39
M  V30 43 1 18 40
M  V30 44 1 19 41
M  V30 45 1 19 42
M  V30 46 1 21 43
M  V30 47 1 21 44
M  V30 48 1 21 45
M  V30 49 1 22 46
M  V30 50 1 22 47
M  V30 51 1 23 48
M  V30 52 1 23 49
M  V30 53 1 24 50
M  V30 54 1 26 51
M  V30 END BOND
M  V30 END CTAB
M  END
>  <Dataset>  (915) 
ChEMBL_Kinases

>  <Ligand_Instance>  (915) 
nan

>  <PDB_ID>  (915) 
nan

>  <Standardized_SMILES>  (915) 
CC(C)Oc1ccc2[nH]nc(-c3ccnc(N4CCN(C)CC4)c3)c2c1

>  <Name>  (915) 
nan

>  <Pocket>  (915) 
nan

>  <ATP_Site>  (915) 
nan

>  <Peripheral>  (915) 
nan

>  <Num_H_Atoms_ProtBoundConf>  (915) 
nan

>  <Num_Resolved_Atoms>  (915) 
nan

>  <Num_Not_Resolved_Atoms>  (915) 
nan

$$$$
CHEMBL482557
     RDKit          3D

  0  0  0  0  0  0  0  0  0  0999 V3000
M  V30 BEGIN CTAB
M  V30 COUNTS 40 43 0 0 0
M  V30 BEGIN ATOM
M  V30 1 C 1.997093 -3.645956 3.974689 0
M  V30 2 C 1.831767 -4.119740 2.689424 0
M  V30 3 C 1.650460 -3.216895 1.671116 0
M  V30 4 C 1.622292 -1.848994 1.850542 0
M  V30 5 C 1.426435 -0.933716 0.733913 0
M  V30 6 C 2.222451 -1.305736 -0.361231 0
M  V30 7 C 2.178250 -0.560898 -1.518964 0
M  V30 8 C 2.937030 -0.874736 -2.631743 0
M  V30 9 C 2.818073 -0.053457 -3.756425 0
M  V30 10 N 2.003632 1.020478 -3.802253 0
M  V30 11 C 1.253220 1.347387 -2.729562 0
M  V30 12 C 1.365960 0.544933 -1.623116 0
M  V30 13 C 0.607969 0.871141 -0.532863 0
M  V30 14 C 0.583056 0.191433 0.664196 0
M  V30 15 O -0.052331 0.310506 1.838592 0
M  V30 16 C -0.970329 1.159704 2.385221 0
M  V30 17 C -2.234504 1.152931 1.622052 0
M  V30 18 C -2.684508 1.969176 0.608003 0
M  V30 19 C -3.907820 1.771932 0.025441 0
M  V30 20 N -4.736274 0.773636 0.409471 0
M  V30 21 C -4.352712 -0.055900 1.394701 0
M  V30 22 C -3.123245 0.143826 1.978612 0
M  V30 23 C 1.789221 -1.369542 3.148584 0
M  V30 24 C 1.970914 -2.284227 4.166325 0
M  V30 25 H 2.139732 -4.363072 4.773939 0
M  V30 26 H 1.836610 -5.172267 2.433775 0
M  V30 27 H 1.518744 -3.576244 0.652100 0
M  V30 28 H 2.893458 -2.141777 -0.405303 0
M  V30 29 H 3.582320 -1.731005 -2.586390 0
M  V30 30 H 3.429548 -0.329404 -4.614415 0
M  V30 31 H 0.605792 2.189811 -2.747001 0
M  V30 32 H -0.045451 1.707203 -0.514835 0
M  V30 33 H -1.164408 0.807878 3.444858 0
M  V30 34 H -0.632420 2.218714 2.492390 0
M  V30 35 H -1.976988 2.754303 0.350852 0
M  V30 36 H -4.128762 2.476648 -0.746331 0
M  V30 37 H -5.026788 -0.843150 1.684844 0
M  V30 38 H -2.901284 -0.576528 2.765140 0
M  V30 39 H 1.772854 -0.293732 3.330140 0
M  V30 40 H 2.104422 -1.963111 5.187341 0
M  V30 END ATOM
M  V30 BEGIN BOND
M  V30 1 2 1 2
M  V30 2 1 2 3
M  V30 3 2 3 4
M  V30 4 1 4 5
M  V30 5 2 5 6
M  V30 6 1 6 7
M  V30 7 2 7 8
M  V30 8 1 8 9
M  V30 9 2 9 10
M  V30 10 1 10 11
M  V30 11 2 11 12
M  V30 12 1 12 13
M  V30 13 2 13 14
M  V30 14 1 14 15
M  V30 15 1 15 16
M  V30 16 1 16 17
M  V30 17 2 17 18
M  V30 18 1 18 19
M  V30 19 2 19 20
M  V30 20 1 20 21
M  V30 21 2 21 22
M  V30 22 1 4 23
M  V30 23 2 23 24
M  V30 24 1 24 1
M  V30 25 1 14 5
M  V30 26 1 22 17
M  V30 27 1 12 7
M  V30 28 1 1 25
M  V30 29 1 2 26
M  V30 30 1 3 27
M  V30 31 1 6 28
M  V30 32 1 8 29
M  V30 33 1 9 30
M  V30 34 1 11 31
M  V30 35 1 13 32
M  V30 36 1 16 33
M  V30 37 1 16 34
M  V30 38 1 18 35
M  V30 39 1 19 36
M  V30 40 1 21 37
M  V30 41 1 22 38
M  V30 42 1 23 39
M  V30 43 1 24 40
M  V30 END BOND
M  V30 END CTAB
M  END
>  <Dataset>  (916) 
ChEMBL_Kinases

>  <Ligand_Instance>  (916) 
nan

>  <PDB_ID>  (916) 
nan

>  <Standardized_SMILES>  (916) 
c1ccc(-c2cc3ccncc3cc2OCc2ccncc2)cc1

>  <Name>  (916) 
nan

>  <Pocket>  (916) 
nan

>  <ATP_Site>  (916) 
nan

>  <Peripheral>  (916) 
nan

>  <Num_H_Atoms_ProtBoundConf>  (916) 
nan

>  <Num_Resolved_Atoms>  (916) 
nan

>  <Num_Not_Resolved_Atoms>  (916) 
nan

$$$$
CHEMBL4093131
     RDKit          3D

  0  0  0  0  0  0  0  0  0  0999 V3000
M  V30 BEGIN CTAB
M  V30 COUNTS 51 54 0 0 0
M  V30 BEGIN ATOM
M  V30 1 C 0.666227 -3.027561 4.853973 0
M  V30 2 C 1.109215 -3.664795 3.588702 0
M  V30 3 C 1.391304 -5.019744 3.518922 0
M  V30 4 C 1.796220 -5.527740 2.304709 0
M  V30 5 C 1.913741 -4.712574 1.205934 0
M  V30 6 F 2.318817 -5.247732 0.012255 0
M  V30 7 C 1.640632 -3.361541 1.243074 0
M  V30 8 C 1.792515 -2.572062 0.027527 0
M  V30 9 C 1.535332 -1.217072 -0.001311 0
M  V30 10 C 1.692331 -0.509372 -1.174064 0
M  V30 11 N 1.430014 0.885407 -1.214831 0
M  V30 12 C 1.001889 1.753044 -0.194829 0
M  V30 13 C 1.765374 2.851964 0.207634 0
M  V30 14 C 1.406361 3.747263 1.202455 0
M  V30 15 N 0.230167 3.533111 1.822463 0
M  V30 16 C -0.574921 2.499478 1.502994 0
M  V30 17 C -1.806551 2.055205 1.967154 0
M  V30 18 N -2.123302 0.956012 1.260377 0
M  V30 19 C -3.354701 0.270059 1.521674 0
M  V30 20 C -4.470446 0.826967 0.650698 0 CFG=2
M  V30 21 C -4.083700 0.636265 -0.804086 0
M  V30 22 O -4.628223 2.159703 0.946044 0
M  V30 23 N -1.162611 0.713553 0.404301 0
M  V30 24 C -0.180532 1.628379 0.504439 0
M  V30 25 C 2.102890 -1.088190 -2.356621 0
M  V30 26 C 2.269289 -0.318595 -3.614765 0
M  V30 27 C 2.346768 -2.462607 -2.259851 0
M  V30 28 N 2.194021 -3.150476 -1.119392 0
M  V30 29 C 1.237713 -2.876616 2.467240 0
M  V30 30 H 1.339276 -2.161593 5.099854 0
M  V30 31 H -0.388334 -2.694216 4.809068 0
M  V30 32 H 0.753220 -3.717565 5.701740 0
M  V30 33 H 1.274175 -5.596071 4.430798 0
M  V30 34 H 2.019267 -6.592673 2.244727 0
M  V30 35 H 1.214423 -0.687573 0.864852 0
M  V30 36 H 1.524555 1.474054 -2.042073 0
M  V30 37 H 2.717328 2.998887 -0.316283 0
M  V30 38 H 2.071456 4.560781 1.432495 0
M  V30 39 H -2.322385 2.579305 2.757188 0
M  V30 40 H -3.211978 -0.784815 1.186382 0
M  V30 41 H -3.615608 0.261070 2.581822 0
M  V30 42 H -5.364945 0.224900 0.864209 0
M  V30 43 H -3.755833 -0.415426 -0.971365 0
M  V30 44 H -3.218679 1.265678 -1.047701 0
M  V30 45 H -4.912687 0.902965 -1.471510 0
M  V30 46 H -3.843200 2.660981 0.663699 0
M  V30 47 H 3.028712 0.475214 -3.558875 0
M  V30 48 H 1.319485 0.201370 -3.930277 0
M  V30 49 H 2.475730 -1.032546 -4.432323 0
M  V30 50 H 2.674394 -2.987045 -3.154848 0
M  V30 51 H 1.013498 -1.822121 2.540263 0
M  V30 END ATOM
M  V30 BEGIN BOND
M  V30 1 1 1 2
M  V30 2 2 2 3
M  V30 3 1 3 4
M  V30 4 2 4 5
M  V30 5 1 5 6
M  V30 6 1 5 7
M  V30 7 1 7 8
M  V30 8 2 8 9
M  V30 9 1 9 10
M  V30 10 1 10 11
M  V30 11 1 11 12
M  V30 12 2 12 13
M  V30 13 1 13 14
M  V30 14 2 14 15
M  V30 15 1 15 16
M  V30 16 2 16 17
M  V30 17 1 17 18
M  V30 18 1 18 19
M  V30 19 1 19 20
M  V30 20 1 20 21
M  V30 21 1 20 22
M  V30 22 1 18 23
M  V30 23 2 23 24
M  V30 24 2 10 25
M  V30 25 1 25 26
M  V30 26 1 25 27
M  V30 27 2 27 28
M  V30 28 2 7 29
M  V30 29 1 29 2
M  V30 30 1 28 8
M  V30 31 1 24 12
M  V30 32 1 24 16
M  V30 33 1 1 30
M  V30 34 1 1 31
M  V30 35 1 1 32
M  V30 36 1 3 33
M  V30 37 1 4 34
M  V30 38 1 9 35
M  V30 39 1 11 36
M  V30 40 1 13 37
M  V30 41 1 14 38
M  V30 42 1 17 39
M  V30 43 1 19 40
M  V30 44 1 19 41
M  V30 45 1 20 42 CFG=3
M  V30 46 1 21 43
M  V30 47 1 21 44
M  V30 48 1 21 45
M  V30 49 1 22 46
M  V30 50 1 26 47
M  V30 51 1 26 48
M  V30 52 1 26 49
M  V30 53 1 27 50
M  V30 54 1 29 51
M  V30 END BOND
M  V30 END CTAB
M  END
>  <Dataset>  (917) 
ChEMBL_Kinases

>  <Ligand_Instance>  (917) 
nan

>  <PDB_ID>  (917) 
nan

>  <Standardized_SMILES>  (917) 
Cc1ccc(F)c(-c2cc(Nc3ccnc4cn(C[C@H](C)O)nc34)c(C)cn2)c1

>  <Name>  (917) 
nan

>  <Pocket>  (917) 
nan

>  <ATP_Site>  (917) 
nan

>  <Peripheral>  (917) 
nan

>  <Num_H_Atoms_ProtBoundConf>  (917) 
nan

>  <Num_Resolved_Atoms>  (917) 
nan

>  <Num_Not_Resolved_Atoms>  (917) 
nan

$$$$
CHEMBL4093090
     RDKit          3D

  0  0  0  0  0  0  0  0  0  0999 V3000
M  V30 BEGIN CTAB
M  V30 COUNTS 45 48 0 0 0
M  V30 BEGIN ATOM
M  V30 1 C 1.939188 -4.065629 0.366153 0
M  V30 2 N 2.858807 -2.986512 -0.001214 0
M  V30 3 C 2.494651 -1.610842 0.209939 0
M  V30 4 O 1.418625 -1.992895 0.671774 0
M  V30 5 N 3.462333 -0.680333 -0.184071 0
M  V30 6 N 4.647618 -0.930249 -0.710602 0
M  V30 7 C 5.306394 0.195127 -0.948909 0
M  V30 8 C 4.511480 1.239426 -0.558335 0
M  V30 9 N 4.682186 2.533456 -0.572582 0
M  V30 10 C 3.758834 3.386000 -0.129922 0
M  V30 11 C 2.584753 2.796857 0.354253 0
M  V30 12 C 2.364881 1.401430 0.384419 0
M  V30 13 N 1.117046 1.160156 0.900080 0
M  V30 14 C -0.184380 0.697772 0.850166 0
M  V30 15 C -0.895313 -0.215785 1.582431 0
M  V30 16 C -2.189037 -0.554963 1.366670 0
M  V30 17 C -2.882201 -1.526630 2.168143 0
M  V30 18 C -4.208828 -1.769820 1.809518 0
M  V30 19 C -5.008557 -2.670462 2.475628 0
M  V30 20 Cl -6.663751 -2.946231 1.995716 0
M  V30 21 C -4.544164 -3.396432 3.550276 0
M  V30 22 C -3.237547 -3.177030 3.927083 0
M  V30 23 C -2.470432 -2.268299 3.235678 0
M  V30 24 F -1.208544 -2.104138 3.655869 0
M  V30 25 N -2.797633 0.051805 0.369590 0
M  V30 26 C -2.200898 0.959926 -0.409474 0
M  V30 27 C -0.862260 1.328964 -0.207947 0
M  V30 28 C -0.281855 2.344542 -1.122662 0
M  V30 29 C 3.385913 0.640193 -0.094950 0
M  V30 30 H 1.694763 -4.028733 1.462165 0
M  V30 31 H 0.994351 -3.971126 -0.196334 0
M  V30 32 H 2.424211 -5.037133 0.135355 0
M  V30 33 H 3.810722 -3.253570 -0.432067 0
M  V30 34 H 6.287234 0.117225 -1.378867 0
M  V30 35 H 3.957668 4.443212 -0.166894 0
M  V30 36 H 1.902887 3.575343 0.688255 0
M  V30 37 H 1.048678 1.486067 1.920172 0
M  V30 38 H -0.268153 -0.622429 2.355271 0
M  V30 39 H -4.697890 -1.258681 0.974323 0
M  V30 40 H -5.122027 -4.108081 4.102805 0
M  V30 41 H -2.825907 -3.720281 4.762365 0
M  V30 42 H -2.830950 1.381676 -1.200086 0
M  V30 43 H -0.982036 2.506540 -1.964364 0
M  V30 44 H -0.112096 3.329794 -0.652637 0
M  V30 45 H 0.650070 1.947771 -1.622032 0
M  V30 END ATOM
M  V30 BEGIN BOND
M  V30 1 1 1 2
M  V30 2 1 2 3
M  V30 3 2 3 4
M  V30 4 1 3 5
M  V30 5 1 5 6
M  V30 6 2 6 7
M  V30 7 1 7 8
M  V30 8 2 8 9
M  V30 9 1 9 10
M  V30 10 2 10 11
M  V30 11 1 11 12
M  V30 12 1 12 13
M  V30 13 1 13 14
M  V30 14 2 14 15
M  V30 15 1 15 16
M  V30 16 1 16 17
M  V30 17 2 17 18
M  V30 18 1 18 19
M  V30 19 1 19 20
M  V30 20 2 19 21
M  V30 21 1 21 22
M  V30 22 2 22 23
M  V30 23 1 23 24
M  V30 24 2 16 25
M  V30 25 1 25 26
M  V30 26 2 26 27
M  V30 27 1 27 28
M  V30 28 2 12 29
M  V30 29 1 29 5
M  V30 30 1 29 8
M  V30 31 1 27 14
M  V30 32 1 23 17
M  V30 33 1 1 30
M  V30 34 1 1 31
M  V30 35 1 1 32
M  V30 36 1 2 33
M  V30 37 1 7 34
M  V30 38 1 10 35
M  V30 39 1 11 36
M  V30 40 1 13 37
M  V30 41 1 15 38
M  V30 42 1 18 39
M  V30 43 1 21 40
M  V30 44 1 22 41
M  V30 45 1 26 42
M  V30 46 1 28 43
M  V30 47 1 28 44
M  V30 48 1 28 45
M  V30 END BOND
M  V30 END CTAB
M  END
>  <Dataset>  (918) 
ChEMBL_Kinases

>  <Ligand_Instance>  (918) 
nan

>  <PDB_ID>  (918) 
nan

>  <Standardized_SMILES>  (918) 
CNC(=O)n1ncc2nccc(Nc3cc(-c4cc(Cl)ccc4F)ncc3C)c21

>  <Name>  (918) 
nan

>  <Pocket>  (918) 
nan

>  <ATP_Site>  (918) 
nan

>  <Peripheral>  (918) 
nan

>  <Num_H_Atoms_ProtBoundConf>  (918) 
nan

>  <Num_Resolved_Atoms>  (918) 
nan

>  <Num_Not_Resolved_Atoms>  (918) 
nan

$$$$
CHEMBL482632
     RDKit          3D

  0  0  0  0  0  0  0  0  0  0999 V3000
M  V30 BEGIN CTAB
M  V30 COUNTS 47 51 0 0 0
M  V30 BEGIN ATOM
M  V30 1 C -3.912179 -1.175509 5.351552 0
M  V30 2 O -3.622187 -1.336141 3.988020 0
M  V30 3 C -2.388413 -1.618042 3.446492 0
M  V30 4 C -1.148750 -1.815669 4.060409 0
M  V30 5 C -0.011203 -2.093179 3.342979 0
M  V30 6 C -0.032150 -2.192987 1.961533 0
M  V30 7 C -1.271502 -1.994725 1.363903 0
M  V30 8 C -1.523099 -2.050690 0.009880 0
M  V30 9 C -0.739846 -2.281392 -1.194402 0
M  V30 10 C 0.436878 -1.808783 -1.562836 0
M  V30 11 C 1.420155 -0.903111 -0.980597 0
M  V30 12 C 2.789607 -1.019939 -0.895382 0
M  V30 13 N 3.348085 0.047951 -0.302713 0
M  V30 14 C 4.756702 0.295576 -0.034207 0
M  V30 15 C 2.358394 0.917359 0.028144 0
M  V30 16 C 2.384747 2.153497 0.641128 0
M  V30 17 C 1.234758 2.869267 0.869741 0
M  V30 18 C 1.165388 4.206796 1.520674 0
M  V30 19 F -0.137694 4.632117 1.659630 0
M  V30 20 F 1.864771 5.157722 0.771930 0
M  V30 21 F 1.740938 4.236474 2.770274 0
M  V30 22 C 0.022651 2.303470 0.459095 0
M  V30 23 C 0.042768 1.061293 -0.151873 0
M  V30 24 C 1.183318 0.328416 -0.389562 0
M  V30 25 C 0.815691 -2.341923 -2.879762 0
M  V30 26 O 1.757830 -2.261291 -3.696867 0
M  V30 27 N -0.264308 -3.208108 -3.297398 0
M  V30 28 C -1.236667 -3.181256 -2.262953 0
M  V30 29 O -2.331598 -3.809916 -2.249115 0
M  V30 30 C -2.889715 -1.788494 -0.056029 0
M  V30 31 O -3.385674 -1.599170 1.135462 0
M  V30 32 C -2.448052 -1.711143 2.060283 0
M  V30 33 H -4.767735 -0.471876 5.507164 0
M  V30 34 H -4.282319 -2.136569 5.817610 0
M  V30 35 H -3.000139 -0.805206 5.859321 0
M  V30 36 H -1.254429 -1.714310 5.130469 0
M  V30 37 H 0.870729 -2.223001 3.930433 0
M  V30 38 H 0.854294 -2.409704 1.412058 0
M  V30 39 H 3.330700 -1.895679 -1.277254 0
M  V30 40 H 4.969980 1.389907 -0.034009 0
M  V30 41 H 5.030891 -0.096561 0.988198 0
M  V30 42 H 5.375606 -0.243995 -0.773104 0
M  V30 43 H 3.315539 2.620777 0.971619 0
M  V30 44 H -0.922897 2.845405 0.623973 0
M  V30 45 H -0.922399 0.699677 -0.441160 0
M  V30 46 H -0.424736 -3.798114 -4.168650 0
M  V30 47 H -3.562645 -1.723490 -0.912500 0
M  V30 END ATOM
M  V30 BEGIN BOND
M  V30 1 1 1 2
M  V30 2 1 2 3
M  V30 3 2 3 4
M  V30 4 1 4 5
M  V30 5 2 5 6
M  V30 6 1 6 7
M  V30 7 1 7 8
M  V30 8 1 8 9
M  V30 9 2 9 10
M  V30 10 1 10 11
M  V30 11 2 11 12
M  V30 12 1 12 13
M  V30 13 1 13 14
M  V30 14 1 13 15
M  V30 15 2 15 16
M  V30 16 1 16 17
M  V30 17 1 17 18
M  V30 18 1 18 19
M  V30 19 1 18 20
M  V30 20 1 18 21
M  V30 21 2 17 22
M  V30 22 1 22 23
M  V30 23 2 23 24
M  V30 24 1 10 25
M  V30 25 2 25 26
M  V30 26 1 25 27
M  V30 27 1 27 28
M  V30 28 2 28 29
M  V30 29 2 8 30
M  V30 30 1 30 31
M  V30 31 1 31 32
M  V30 32 1 32 3
M  V30 33 2 32 7
M  V30 34 1 28 9
M  V30 35 1 24 11
M  V30 36 1 24 15
M  V30 37 1 1 33
M  V30 38 1 1 34
M  V30 39 1 1 35
M  V30 40 1 4 36
M  V30 41 1 5 37
M  V30 42 1 6 38
M  V30 43 1 12 39
M  V30 44 1 14 40
M  V30 45 1 14 41
M  V30 46 1 14 42
M  V30 47 1 16 43
M  V30 48 1 22 44
M  V30 49 1 23 45
M  V30 50 1 27 46
M  V30 51 1 30 47
M  V30 END BOND
M  V30 END CTAB
M  END
>  <Dataset>  (919) 
ChEMBL_Kinases

>  <Ligand_Instance>  (919) 
nan

>  <PDB_ID>  (919) 
nan

>  <Standardized_SMILES>  (919) 
COc1cccc2c(C3=C(c4cn(C)c5cc(C(F)(F)F)ccc45)C(=O)NC3=O)coc12

>  <Name>  (919) 
nan

>  <Pocket>  (919) 
nan

>  <ATP_Site>  (919) 
nan

>  <Peripheral>  (919) 
nan

>  <Num_H_Atoms_ProtBoundConf>  (919) 
nan

>  <Num_Resolved_Atoms>  (919) 
nan

>  <Num_Not_Resolved_Atoms>  (919) 
nan

$$$$
CHEMBL4093591
     RDKit          3D

  0  0  0  0  0  0  0  0  0  0999 V3000
M  V30 BEGIN CTAB
M  V30 COUNTS 37 40 0 0 0
M  V30 BEGIN ATOM
M  V30 1 C -0.182413 -2.959332 3.285830 0
M  V30 2 N -0.075489 -2.771280 1.855016 0
M  V30 3 C 0.670755 -3.612451 1.003149 0
M  V30 4 C 0.745760 -3.299655 -0.445648 0
M  V30 5 C 1.591840 -2.192498 -0.932235 0
M  V30 6 O 1.542185 -0.929592 -0.738702 0
M  V30 7 C 1.491766 0.351671 -0.542376 0
M  V30 8 C 2.708045 0.714802 -1.184280 0
M  V30 9 C 3.279364 2.000744 -1.339787 0
M  V30 10 N 2.570856 3.047129 -0.800679 0
M  V30 11 C 1.394784 2.725628 -0.175962 0
M  V30 12 N 0.497686 3.529202 0.453176 0
M  V30 13 C -0.544948 2.801316 0.958442 0
M  V30 14 O -1.424312 3.448375 1.560085 0
M  V30 15 N -0.237583 1.546908 0.607848 0
M  V30 16 C 0.899131 1.453639 -0.062326 0
M  V30 17 C -1.093607 0.487332 0.961526 0
M  V30 18 N -0.277447 -0.538898 1.223250 0
M  V30 19 C -0.897209 -1.657308 1.604372 0
M  V30 20 C -2.267753 -1.753969 1.723888 0
M  V30 21 C -3.051442 -0.657333 1.437463 0
M  V30 22 C -2.459517 0.522568 1.036555 0
M  V30 23 Cl -3.361058 1.948168 0.612515 0
M  V30 24 H 0.214945 -2.061431 3.795698 0
M  V30 25 H -1.236344 -3.137857 3.574109 0
M  V30 26 H 0.482206 -3.790788 3.621268 0
M  V30 27 H 0.256729 -4.664258 1.164636 0
M  V30 28 H 1.737353 -3.754773 1.402932 0
M  V30 29 H -0.323485 -3.179262 -0.854509 0
M  V30 30 H 1.040264 -4.271932 -0.978339 0
M  V30 31 H 2.723107 -2.578037 -0.865211 0
M  V30 32 H 1.533967 -2.354077 -2.110957 0
M  V30 33 H 3.504273 0.139381 -1.710520 0
M  V30 34 H 4.160179 2.406292 -1.786132 0
M  V30 35 H 0.668930 4.567129 0.495281 0
M  V30 36 H -2.564060 -2.727614 2.057218 0
M  V30 37 H -4.119809 -0.754360 1.536378 0
M  V30 END ATOM
M  V30 BEGIN BOND
M  V30 1 1 1 2
M  V30 2 1 2 3
M  V30 3 1 3 4
M  V30 4 1 4 5
M  V30 5 1 5 6
M  V30 6 1 6 7
M  V30 7 2 7 8
M  V30 8 1 8 9
M  V30 9 2 9 10
M  V30 10 1 10 11
M  V30 11 1 11 12
M  V30 12 1 12 13
M  V30 13 2 13 14
M  V30 14 1 13 15
M  V30 15 1 15 16
M  V30 16 1 15 17
M  V30 17 2 17 18
M  V30 18 1 18 19
M  V30 19 2 19 20
M  V30 20 1 20 21
M  V30 21 2 21 22
M  V30 22 1 22 23
M  V30 23 1 19 2
M  V30 24 1 16 7
M  V30 25 1 22 17
M  V30 26 2 16 11
M  V30 27 1 1 24
M  V30 28 1 1 25
M  V30 29 1 1 26
M  V30 30 1 3 27
M  V30 31 1 3 28
M  V30 32 1 4 29
M  V30 33 1 4 30
M  V30 34 1 5 31
M  V30 35 1 5 32
M  V30 36 1 8 33
M  V30 37 1 9 34
M  V30 38 1 12 35
M  V30 39 1 20 36
M  V30 40 1 21 37
M  V30 END BOND
M  V30 END CTAB
M  END
>  <Dataset>  (920) 
ChEMBL_Kinases

>  <Ligand_Instance>  (920) 
nan

>  <PDB_ID>  (920) 
nan

>  <Standardized_SMILES>  (920) 
CN1CCCOc2ccnc3[nH]c(=O)n(c23)-c2nc1ccc2Cl

>  <Name>  (920) 
nan

>  <Pocket>  (920) 
nan

>  <ATP_Site>  (920) 
nan

>  <Peripheral>  (920) 
nan

>  <Num_H_Atoms_ProtBoundConf>  (920) 
nan

>  <Num_Resolved_Atoms>  (920) 
nan

>  <Num_Not_Resolved_Atoms>  (920) 
nan

$$$$
CHEMBL481491
     RDKit          3D

  0  0  0  0  0  0  0  0  0  0999 V3000
M  V30 BEGIN CTAB
M  V30 COUNTS 43 46 0 0 0
M  V30 BEGIN ATOM
M  V30 1 N -0.180246 -1.070374 5.641922 0
M  V30 2 C 0.583893 -0.044640 5.066671 0
M  V30 3 O 1.287441 0.749432 5.735424 0
M  V30 4 C 0.565044 0.117489 3.605283 0
M  V30 5 S 1.417587 1.362431 2.672407 0
M  V30 6 C 0.880913 0.847223 1.082164 0
M  V30 7 N 1.158737 1.379952 -0.188389 0
M  V30 8 C 1.132112 0.663788 -1.324206 0
M  V30 9 N 1.438703 1.477608 -2.320972 0
M  V30 10 C 1.665773 2.726346 -1.831932 0
M  V30 11 C 2.006561 3.846205 -2.527627 0
M  V30 12 C 2.187951 5.012945 -1.806549 0
M  V30 13 C 2.015674 4.982377 -0.432023 0
M  V30 14 C 1.664866 3.822672 0.265526 0
M  V30 15 C 1.482511 2.651114 -0.457791 0
M  V30 16 C 0.085458 -0.240911 1.348302 0
M  V30 17 C -0.102850 -0.649485 2.636934 0
M  V30 18 O -0.871721 -1.722129 3.070914 0
M  V30 19 C -1.570827 -2.556910 2.160428 0
M  V30 20 C -0.637066 -3.246356 1.226273 0
M  V30 21 C 0.715146 -3.241134 1.510965 0
M  V30 22 C 1.665180 -3.871422 0.705153 0
M  V30 23 C 1.258347 -4.535711 -0.431149 0
M  V30 24 C -0.075956 -4.540903 -0.711279 0
M  V30 25 C -1.003891 -3.920115 0.083271 0
M  V30 26 C -2.458283 -3.950000 -0.265596 0
M  V30 27 F -2.604266 -4.675322 -1.444108 0
M  V30 28 F -3.201892 -4.621652 0.680820 0
M  V30 29 F -2.991321 -2.713866 -0.472450 0
M  V30 30 H -0.877033 -0.560769 6.227922 0
M  V30 31 H -0.407545 -2.075215 5.784229 0
M  V30 32 H 0.894875 -0.410793 -1.395524 0
M  V30 33 H 2.128046 3.809356 -3.616966 0
M  V30 34 H 2.454979 5.901527 -2.330079 0
M  V30 35 H 2.159636 5.907265 0.130203 0
M  V30 36 H 1.524540 3.771152 1.324091 0
M  V30 37 H -0.406975 -0.786763 0.522603 0
M  V30 38 H -2.324423 -1.940885 1.611361 0
M  V30 39 H -2.144401 -3.291837 2.758328 0
M  V30 40 H 1.144607 -2.760155 2.367467 0
M  V30 41 H 2.724475 -3.872692 0.918346 0
M  V30 42 H 1.975114 -5.032980 -1.072621 0
M  V30 43 H -0.384507 -5.075246 -1.618954 0
M  V30 END ATOM
M  V30 BEGIN BOND
M  V30 1 1 1 2
M  V30 2 2 2 3
M  V30 3 1 2 4
M  V30 4 1 4 5
M  V30 5 1 5 6
M  V30 6 1 6 7
M  V30 7 1 7 8
M  V30 8 2 8 9
M  V30 9 1 9 10
M  V30 10 2 10 11
M  V30 11 1 11 12
M  V30 12 2 12 13
M  V30 13 1 13 14
M  V30 14 2 14 15
M  V30 15 2 6 16
M  V30 16 1 16 17
M  V30 17 1 17 18
M  V30 18 1 18 19
M  V30 19 1 19 20
M  V30 20 2 20 21
M  V30 21 1 21 22
M  V30 22 2 22 23
M  V30 23 1 23 24
M  V30 24 2 24 25
M  V30 25 1 25 26
M  V30 26 1 26 27
M  V30 27 1 26 28
M  V30 28 1 26 29
M  V30 29 2 17 4
M  V30 30 1 25 20
M  V30 31 1 15 7
M  V30 32 1 15 10
M  V30 33 1 1 30
M  V30 34 1 1 31
M  V30 35 1 8 32
M  V30 36 1 11 33
M  V30 37 1 12 34
M  V30 38 1 13 35
M  V30 39 1 14 36
M  V30 40 1 16 37
M  V30 41 1 19 38
M  V30 42 1 19 39
M  V30 43 1 21 40
M  V30 44 1 22 41
M  V30 45 1 23 42
M  V30 46 1 24 43
M  V30 END BOND
M  V30 END CTAB
M  END
>  <Dataset>  (921) 
ChEMBL_Kinases

>  <Ligand_Instance>  (921) 
nan

>  <PDB_ID>  (921) 
nan

>  <Standardized_SMILES>  (921) 
NC(=O)c1sc(-n2cnc3ccccc32)cc1OCc1ccccc1C(F)(F)F

>  <Name>  (921) 
nan

>  <Pocket>  (921) 
nan

>  <ATP_Site>  (921) 
nan

>  <Peripheral>  (921) 
nan

>  <Num_H_Atoms_ProtBoundConf>  (921) 
nan

>  <Num_Resolved_Atoms>  (921) 
nan

>  <Num_Not_Resolved_Atoms>  (921) 
nan

$$$$
CHEMBL4094705
     RDKit          3D

  0  0  0  0  0  0  0  0  0  0999 V3000
M  V30 BEGIN CTAB
M  V30 COUNTS 60 64 0 0 0
M  V30 BEGIN ATOM
M  V30 1 C -1.507259 -2.112953 4.781376 0
M  V30 2 C -0.509282 -2.568177 5.848182 0
M  V30 3 C 0.487395 -1.473951 6.075220 0
M  V30 4 C 1.281615 -1.093683 4.909764 0
M  V30 5 C 0.806815 -0.110732 4.073487 0
M  V30 6 C 1.462160 0.349358 2.929054 0
M  V30 7 C 2.684024 -0.302988 2.706648 0
M  V30 8 C 3.554321 -0.040914 1.656448 0
M  V30 9 C 3.556061 0.858339 0.509744 0
M  V30 10 C 2.503912 0.987664 -0.278359 0
M  V30 11 O 1.259173 0.449109 -0.332837 0
M  V30 12 C 0.512773 0.966401 -1.426867 0
M  V30 13 C 1.346740 1.851074 -2.052199 0
M  V30 14 C 0.695924 2.407913 -3.139532 0
M  V30 15 C -0.619473 2.101811 -3.529386 0
M  V30 16 C -1.332878 1.158089 -2.759114 0
M  V30 17 O -2.618358 0.855499 -3.146249 0
M  V30 18 C -3.227051 1.486336 -4.291104 0
M  V30 19 C -0.754354 0.538315 -1.633058 0
M  V30 20 C -1.596899 -0.396086 -0.904977 0
M  V30 21 N -1.326897 -1.786570 -1.041419 0
M  V30 22 C -2.306267 -2.542656 -0.358401 0
M  V30 23 C -3.085749 -3.511744 -1.173087 0
M  V30 24 N -2.609751 -3.824068 -2.472126 0
M  V30 25 C -1.168925 -3.708006 -2.495537 0
M  V30 26 C -0.929412 -2.187817 -2.327217 0
M  V30 27 C 2.634233 1.924482 -1.385444 0
M  V30 28 O 3.520402 2.684411 -1.823457 0
M  V30 29 C 4.618588 -0.930309 1.886371 0
M  V30 30 N 4.344916 -1.639162 3.000063 0
M  V30 31 C 3.170706 -1.295993 3.545577 0
M  V30 32 N 2.455852 -1.660052 4.618792 0
M  V30 33 H -0.920558 -1.906326 3.866628 0
M  V30 34 H -2.292086 -2.871023 4.609496 0
M  V30 35 H -1.990731 -1.174267 5.120218 0
M  V30 36 H -0.083089 -3.538956 5.564617 0
M  V30 37 H -1.104048 -2.680565 6.782489 0
M  V30 38 H -0.092511 -0.591537 6.457066 0
M  V30 39 H 1.161869 -1.737861 6.945437 0
M  V30 40 H -0.144817 0.362675 4.292245 0
M  V30 41 H 1.085121 1.122025 2.283478 0
M  V30 42 H 4.499411 1.398138 0.385729 0
M  V30 43 H 1.256237 3.144804 -3.745224 0
M  V30 44 H -0.997294 2.616197 -4.395496 0
M  V30 45 H -4.149471 0.930012 -4.584001 0
M  V30 46 H -2.487590 1.450200 -5.102581 0
M  V30 47 H -3.479566 2.523653 -4.033946 0
M  V30 48 H -1.503961 -0.188805 0.217738 0
M  V30 49 H -2.682655 -0.231003 -1.081070 0
M  V30 50 H -3.003317 -1.945576 0.266346 0
M  V30 51 H -1.742251 -3.164305 0.405608 0
M  V30 52 H -4.136311 -3.101316 -1.275842 0
M  V30 53 H -3.246931 -4.459886 -0.598410 0
M  V30 54 H -2.957446 -3.158155 -3.204557 0
M  V30 55 H -0.793618 -4.235714 -1.583814 0
M  V30 56 H -0.740561 -4.058510 -3.433119 0
M  V30 57 H 0.170983 -2.091731 -2.445346 0
M  V30 58 H -1.494210 -1.720842 -3.152381 0
M  V30 59 H 5.535897 -1.084507 1.321890 0
M  V30 60 H 4.987123 -2.384721 3.411313 0
M  V30 END ATOM
M  V30 BEGIN BOND
M  V30 1 1 1 2
M  V30 2 1 2 3
M  V30 3 1 3 4
M  V30 4 2 4 5
M  V30 5 1 5 6
M  V30 6 2 6 7
M  V30 7 1 7 8
M  V30 8 1 8 9
M  V30 9 2 9 10
M  V30 10 1 10 11
M  V30 11 1 11 12
M  V30 12 2 12 13
M  V30 13 1 13 14
M  V30 14 2 14 15
M  V30 15 1 15 16
M  V30 16 1 16 17
M  V30 17 1 17 18
M  V30 18 2 16 19
M  V30 19 1 19 20
M  V30 20 1 20 21
M  V30 21 1 21 22
M  V30 22 1 22 23
M  V30 23 1 23 24
M  V30 24 1 24 25
M  V30 25 1 25 26
M  V30 26 1 13 27
M  V30 27 2 27 28
M  V30 28 2 8 29
M  V30 29 1 29 30
M  V30 30 1 30 31
M  V30 31 2 31 32
M  V30 32 1 32 4
M  V30 33 1 31 7
M  V30 34 1 27 10
M  V30 35 1 19 12
M  V30 36 1 26 21
M  V30 37 1 1 33
M  V30 38 1 1 34
M  V30 39 1 1 35
M  V30 40 1 2 36
M  V30 41 1 2 37
M  V30 42 1 3 38
M  V30 43 1 3 39
M  V30 44 1 5 40
M  V30 45 1 6 41
M  V30 46 1 9 42
M  V30 47 1 14 43
M  V30 48 1 15 44
M  V30 49 1 18 45
M  V30 50 1 18 46
M  V30 51 1 18 47
M  V30 52 1 20 48
M  V30 53 1 20 49
M  V30 54 1 22 50
M  V30 55 1 22 51
M  V30 56 1 23 52
M  V30 57 1 23 53
M  V30 58 1 24 54
M  V30 59 1 25 55
M  V30 60 1 25 56
M  V30 61 1 26 57
M  V30 62 1 26 58
M  V30 63 1 29 59
M  V30 64 1 30 60
M  V30 END BOND
M  V30 END CTAB
M  END
>  <Dataset>  (922) 
ChEMBL_Kinases

>  <Ligand_Instance>  (922) 
nan

>  <PDB_ID>  (922) 
nan

>  <Standardized_SMILES>  (922) 
CCCc1ccc2c(/C=C3\Oc4c(ccc(OC)c4CN4CCNCC4)C3=O)c[nH]c2n1

>  <Name>  (922) 
nan

>  <Pocket>  (922) 
nan

>  <ATP_Site>  (922) 
nan

>  <Peripheral>  (922) 
nan

>  <Num_H_Atoms_ProtBoundConf>  (922) 
nan

>  <Num_Resolved_Atoms>  (922) 
nan

>  <Num_Not_Resolved_Atoms>  (922) 
nan

$$$$
CHEMBL4094634
     RDKit          3D

  0  0  0  0  0  0  0  0  0  0999 V3000
M  V30 BEGIN CTAB
M  V30 COUNTS 80 85 0 0 0
M  V30 BEGIN ATOM
M  V30 1 C 2.534118 -0.650997 3.977827 0
M  V30 2 C 3.200184 0.664961 3.781006 0
M  V30 3 C 3.986140 0.797057 2.486787 0 CFG=2
M  V30 4 C 4.548617 2.208693 2.560031 0
M  V30 5 C 5.637730 2.673649 3.217508 0
M  V30 6 C 6.658938 1.945782 3.952227 0
M  V30 7 O 7.626232 2.518292 4.519818 0
M  V30 8 O 6.574927 0.559903 4.040377 0
M  V30 9 N 5.590696 4.011657 3.051662 0
M  V30 10 C 4.493429 4.299520 2.309440 0
M  V30 11 N 3.813629 3.163638 1.980644 0
M  V30 12 C 2.694796 3.056710 1.125181 0
M  V30 13 C 2.047230 4.167559 0.658817 0
M  V30 14 N 1.006056 3.932429 -0.116925 0
M  V30 15 C 0.563457 2.693028 -0.460940 0
M  V30 16 N -0.550453 2.655182 -1.324917 0
M  V30 17 C -1.469326 1.642373 -1.698517 0
M  V30 18 C -1.426084 0.464327 -0.951591 0
M  V30 19 C -2.263896 -0.598203 -1.152446 0
M  V30 20 C -3.235460 -0.542128 -2.155287 0
M  V30 21 C -4.207428 -1.575397 -2.490500 0
M  V30 22 O -5.005673 -1.529264 -3.463793 0
M  V30 23 N -4.348530 -2.771889 -1.720052 0
M  V30 24 C -5.308451 -3.795994 -2.054777 0
M  V30 25 C -6.393054 -4.018049 -1.061984 0
M  V30 26 C -5.908955 -4.692385 0.168320 0
M  V30 27 N -4.474850 -4.761145 0.246687 0
M  V30 28 C -4.094603 -5.456853 1.453950 0
M  V30 29 C -3.851755 -5.362289 -0.887767 0
M  V30 30 C -4.543248 -5.089914 -2.203784 0
M  V30 31 C -3.266985 0.622914 -2.883008 0
M  V30 32 C -2.428341 1.691019 -2.684045 0
M  V30 33 O -2.447427 2.873077 -3.407174 0
M  V30 34 C -3.369753 3.073293 -4.443021 0
M  V30 35 N 1.233013 1.613705 0.020560 0
M  V30 36 C 2.303100 1.771131 0.815012 0
M  V30 37 N 3.094012 0.754700 1.384466 0
M  V30 38 C 3.073991 -0.552211 0.772968 0
M  V30 39 C 2.371373 -0.612312 -0.559969 0
M  V30 40 C 2.929553 -1.880329 -1.219851 0
M  V30 41 C 4.329398 -2.019954 -0.714219 0
M  V30 42 C 4.475000 -1.023365 0.423452 0
M  V30 43 H 1.557901 -0.644916 3.453051 0
M  V30 44 H 3.190254 -1.503212 3.711853 0
M  V30 45 H 2.245390 -0.725671 5.073019 0
M  V30 46 H 3.897438 0.859488 4.643077 0
M  V30 47 H 2.445265 1.488386 3.849382 0
M  V30 48 H 4.786156 0.065361 2.479541 0
M  V30 49 H 7.024046 0.004058 4.762459 0
M  V30 50 H 4.235693 5.331292 2.040846 0
M  V30 51 H 2.389611 5.160516 0.925969 0
M  V30 52 H -0.819052 3.533459 -1.846056 0
M  V30 53 H -0.737600 0.308734 -0.150925 0
M  V30 54 H -2.237933 -1.509219 -0.582073 0
M  V30 55 H -3.714263 -2.860950 -0.897840 0
M  V30 56 H -5.815245 -3.559651 -3.035295 0
M  V30 57 H -7.111173 -4.738439 -1.556363 0
M  V30 58 H -7.025017 -3.127070 -0.873321 0
M  V30 59 H -6.267188 -5.761884 0.260475 0
M  V30 60 H -6.277861 -4.208994 1.107057 0
M  V30 61 H -2.982083 -5.364231 1.632421 0
M  V30 62 H -4.553235 -4.912975 2.331074 0
M  V30 63 H -4.411396 -6.522722 1.449224 0
M  V30 64 H -2.797660 -5.003638 -0.945043 0
M  V30 65 H -3.793489 -6.463618 -0.691548 0
M  V30 66 H -3.806217 -5.043223 -3.033132 0
M  V30 67 H -5.238936 -5.957833 -2.373101 0
M  V30 68 H -3.989690 0.735910 -3.672790 0
M  V30 69 H -3.497113 4.161119 -4.648399 0
M  V30 70 H -4.370850 2.669983 -4.168346 0
M  V30 71 H -2.999346 2.541257 -5.339077 0
M  V30 72 H 2.598631 -1.300471 1.424070 0
M  V30 73 H 2.640145 0.243017 -1.226325 0
M  V30 74 H 1.293388 -0.757397 -0.504921 0
M  V30 75 H 2.285152 -2.763774 -1.014485 0
M  V30 76 H 2.871287 -1.707894 -2.314353 0
M  V30 77 H 4.523912 -3.069469 -0.398741 0
M  V30 78 H 5.037433 -1.776772 -1.542848 0
M  V30 79 H 5.101886 -0.191998 0.058974 0
M  V30 80 H 4.901825 -1.577031 1.284128 0
M  V30 END ATOM
M  V30 BEGIN BOND
M  V30 1 1 1 2
M  V30 2 1 2 3
M  V30 3 1 3 4
M  V30 4 2 4 5
M  V30 5 1 5 6
M  V30 6 2 6 7
M  V30 7 1 6 8
M  V30 8 1 5 9
M  V30 9 2 9 10
M  V30 10 1 10 11
M  V30 11 1 11 12
M  V30 12 2 12 13
M  V30 13 1 13 14
M  V30 14 2 14 15
M  V30 15 1 15 16
M  V30 16 1 16 17
M  V30 17 2 17 18
M  V30 18 1 18 19
M  V30 19 2 19 20
M  V30 20 1 20 21
M  V30 21 2 21 22
M  V30 22 1 21 23
M  V30 23 1 23 24
M  V30 24 1 24 25
M  V30 25 1 25 26
M  V30 26 1 26 27
M  V30 27 1 27 28
M  V30 28 1 27 29
M  V30 29 1 29 30
M  V30 30 1 20 31
M  V30 31 2 31 32
M  V30 32 1 32 33
M  V30 33 1 33 34
M  V30 34 1 15 35
M  V30 35 2 35 36
M  V30 36 1 36 37
M  V30 37 1 37 38
M  V30 38 1 38 39
M  V30 39 1 39 40
M  V30 40 1 40 41
M  V30 41 1 41 42
M  V30 42 1 37 3
M  V30 43 1 42 38
M  V30 44 1 11 4
M  V30 45 1 36 12
M  V30 46 1 32 17
M  V30 47 1 30 24
M  V30 48 1 1 43
M  V30 49 1 1 44
M  V30 50 1 1 45
M  V30 51 1 2 46
M  V30 52 1 2 47
M  V30 53 1 3 48 CFG=3
M  V30 54 1 8 49
M  V30 55 1 10 50
M  V30 56 1 13 51
M  V30 57 1 16 52
M  V30 58 1 18 53
M  V30 59 1 19 54
M  V30 60 1 23 55
M  V30 61 1 24 56
M  V30 62 1 25 57
M  V30 63 1 25 58
M  V30 64 1 26 59
M  V30 65 1 26 60
M  V30 66 1 28 61
M  V30 67 1 28 62
M  V30 68 1 28 63
M  V30 69 1 29 64
M  V30 70 1 29 65
M  V30 71 1 30 66
M  V30 72 1 30 67
M  V30 73 1 31 68
M  V30 74 1 34 69
M  V30 75 1 34 70
M  V30 76 1 34 71
M  V30 77 1 38 72
M  V30 78 1 39 73
M  V30 79 1 39 74
M  V30 80 1 40 75
M  V30 81 1 40 76
M  V30 82 1 41 77
M  V30 83 1 41 78
M  V30 84 1 42 79
M  V30 85 1 42 80
M  V30 END BOND
M  V30 END CTAB
M  END
>  <Dataset>  (923) 
ChEMBL_Kinases

>  <Ligand_Instance>  (923) 
nan

>  <PDB_ID>  (923) 
nan

>  <Standardized_SMILES>  (923) 
CC[C@@H]1c2c(C(=O)O)ncn2-c2cnc(Nc3ccc(C(=O)NC4CCN(C)CC4)cc3OC)nc2N1C1CCCC1

>  <Name>  (923) 
nan

>  <Pocket>  (923) 
nan

>  <ATP_Site>  (923) 
nan

>  <Peripheral>  (923) 
nan

>  <Num_H_Atoms_ProtBoundConf>  (923) 
nan

>  <Num_Resolved_Atoms>  (923) 
nan

>  <Num_Not_Resolved_Atoms>  (923) 
nan

$$$$
CHEMBL481513
     RDKit          3D

  0  0  0  0  0  0  0  0  0  0999 V3000
M  V30 BEGIN CTAB
M  V30 COUNTS 45 48 0 0 0
M  V30 BEGIN ATOM
M  V30 1 C -0.596148 -2.772321 4.143557 0
M  V30 2 O 0.790621 -2.629344 4.081589 0
M  V30 3 C 1.507182 -1.989503 3.100415 0
M  V30 4 N 2.862001 -1.973562 3.248213 0
M  V30 5 C 3.568186 -1.342680 2.281244 0
M  V30 6 C 2.881437 -0.758526 1.213183 0
M  V30 7 C 1.492472 -0.803434 1.109469 0
M  V30 8 C 1.072074 -0.107689 -0.097357 0
M  V30 9 C 1.210088 1.266920 -0.311658 0
M  V30 10 C 1.776434 2.252519 0.601605 0
M  V30 11 C 2.904041 2.995432 0.265426 0
M  V30 12 C 3.366294 3.903704 1.193825 0
M  V30 13 C 2.769485 4.104730 2.421195 0
M  V30 14 F 3.300767 5.030999 3.280389 0
M  V30 15 C 1.634782 3.363439 2.770548 0
M  V30 16 C 1.180758 2.457382 1.834076 0
M  V30 17 N 0.700068 1.480402 -1.557721 0
M  V30 18 C 0.294088 0.297967 -2.028916 0
M  V30 19 N 0.515677 -0.709959 -1.135115 0
M  V30 20 C 0.141692 -2.047527 -1.470717 0
M  V30 21 C -1.260396 -2.277346 -1.046585 0
M  V30 22 C -1.707938 -2.835240 0.127128 0
M  V30 23 C -3.043766 -2.986617 0.400677 0
M  V30 24 C -3.986628 -2.568927 -0.525713 0
M  V30 25 C -5.408586 -2.707830 -0.281945 0
M  V30 26 N -6.538091 -2.830378 -0.094488 0
M  V30 27 C -3.587810 -1.997240 -1.731050 0
M  V30 28 C -2.233561 -1.875327 -1.940857 0
M  V30 29 N 0.827166 -1.436315 2.084987 0
M  V30 30 H -1.009514 -1.958847 4.787959 0
M  V30 31 H -1.115255 -2.744232 3.164635 0
M  V30 32 H -0.905966 -3.730018 4.627414 0
M  V30 33 H 4.632684 -1.336995 2.408790 0
M  V30 34 H 3.590557 -0.293351 0.524430 0
M  V30 35 H 3.320027 2.793954 -0.698502 0
M  V30 36 H 4.245687 4.449533 0.872668 0
M  V30 37 H 1.163804 3.515818 3.727935 0
M  V30 38 H 0.299229 1.886074 2.113783 0
M  V30 39 H -0.151336 0.266748 -3.033533 0
M  V30 40 H 0.199425 -2.242423 -2.575134 0
M  V30 41 H 0.742351 -2.815238 -0.924137 0
M  V30 42 H -0.954507 -3.146132 0.809584 0
M  V30 43 H -3.367340 -3.427771 1.330151 0
M  V30 44 H -4.324296 -1.673391 -2.449355 0
M  V30 45 H -1.969105 -1.420459 -2.901949 0
M  V30 END ATOM
M  V30 BEGIN BOND
M  V30 1 1 1 2
M  V30 2 1 2 3
M  V30 3 2 3 4
M  V30 4 1 4 5
M  V30 5 2 5 6
M  V30 6 1 6 7
M  V30 7 1 7 8
M  V30 8 2 8 9
M  V30 9 1 9 10
M  V30 10 2 10 11
M  V30 11 1 11 12
M  V30 12 2 12 13
M  V30 13 1 13 14
M  V30 14 1 13 15
M  V30 15 2 15 16
M  V30 16 1 9 17
M  V30 17 2 17 18
M  V30 18 1 18 19
M  V30 19 1 19 20
M  V30 20 1 20 21
M  V30 21 2 21 22
M  V30 22 1 22 23
M  V30 23 2 23 24
M  V30 24 1 24 25
M  V30 25 3 25 26
M  V30 26 1 24 27
M  V30 27 2 27 28
M  V30 28 2 7 29
M  V30 29 1 29 3
M  V30 30 1 19 8
M  V30 31 1 28 21
M  V30 32 1 16 10
M  V30 33 1 1 30
M  V30 34 1 1 31
M  V30 35 1 1 32
M  V30 36 1 5 33
M  V30 37 1 6 34
M  V30 38 1 11 35
M  V30 39 1 12 36
M  V30 40 1 15 37
M  V30 41 1 16 38
M  V30 42 1 18 39
M  V30 43 1 20 40
M  V30 44 1 20 41
M  V30 45 1 22 42
M  V30 46 1 23 43
M  V30 47 1 27 44
M  V30 48 1 28 45
M  V30 END BOND
M  V30 END CTAB
M  END
>  <Dataset>  (924) 
ChEMBL_Kinases

>  <Ligand_Instance>  (924) 
nan

>  <PDB_ID>  (924) 
nan

>  <Standardized_SMILES>  (924) 
COc1nccc(-c2c(-c3ccc(F)cc3)ncn2Cc2ccc(C#N)cc2)n1

>  <Name>  (924) 
nan

>  <Pocket>  (924) 
nan

>  <ATP_Site>  (924) 
nan

>  <Peripheral>  (924) 
nan

>  <Num_H_Atoms_ProtBoundConf>  (924) 
nan

>  <Num_Resolved_Atoms>  (924) 
nan

>  <Num_Not_Resolved_Atoms>  (924) 
nan

$$$$
CHEMBL481546
     RDKit          3D

  0  0  0  0  0  0  0  0  0  0999 V3000
M  V30 BEGIN CTAB
M  V30 COUNTS 48 52 0 0 0
M  V30 BEGIN ATOM
M  V30 1 C -0.747584 -5.539431 -1.161978 0
M  V30 2 C -0.544760 -4.708135 0.057250 0
M  V30 3 N -0.124848 -3.447685 -0.098038 0
M  V30 4 C 0.080374 -2.634025 0.977476 0
M  V30 5 C 0.532675 -1.253532 0.948283 0
M  V30 6 N 1.686993 -0.667100 0.514010 0
M  V30 7 C 1.605810 0.660424 0.711974 0
M  V30 8 N 2.656873 1.550305 0.359633 0
M  V30 9 C 3.872298 1.035185 -0.238283 0
M  V30 10 C 4.171672 1.881822 -1.456097 0
M  V30 11 C 2.946323 2.633618 -1.872988 0
M  V30 12 C 2.604240 3.651273 -0.790681 0
M  V30 13 C 2.588280 2.983500 0.566093 0
M  V30 14 N 0.423069 0.973484 1.268756 0
M  V30 15 C -0.239730 -0.202123 1.415492 0
M  V30 16 C -1.580780 -0.180890 2.006178 0
M  V30 17 C -1.973695 0.243482 3.257767 0
M  V30 18 C -3.315349 0.158735 3.575703 0
M  V30 19 C -4.239135 -0.334904 2.671853 0
M  V30 20 N -5.583904 -0.497206 2.790083 0
M  V30 21 C -6.023071 -1.015879 1.627384 0
M  V30 22 N -4.950867 -1.157339 0.834522 0
M  V30 23 N -3.850855 -0.750068 1.445797 0
M  V30 24 C -2.532752 -0.672671 1.118391 0
M  V30 25 C -0.153975 -3.135891 2.239342 0
M  V30 26 C -0.591548 -4.443506 2.435612 0
M  V30 27 C -0.782523 -5.222032 1.309783 0
M  V30 28 F -1.207718 -6.500230 1.453019 0
M  V30 29 H 0.079799 -5.442179 -1.883025 0
M  V30 30 H -1.667373 -5.113560 -1.654499 0
M  V30 31 H -0.975152 -6.580660 -0.871297 0
M  V30 32 H 3.798590 -0.036335 -0.492096 0
M  V30 33 H 4.719907 1.147352 0.489895 0
M  V30 34 H 4.504028 1.262275 -2.319463 0
M  V30 35 H 4.948851 2.629699 -1.193020 0
M  V30 36 H 3.111773 3.208295 -2.796251 0
M  V30 37 H 2.071798 1.960563 -2.044844 0
M  V30 38 H 3.315572 4.501386 -0.833220 0
M  V30 39 H 1.612614 4.064503 -1.088897 0
M  V30 40 H 3.541272 3.275836 1.092826 0
M  V30 41 H 1.702688 3.200918 1.160982 0
M  V30 42 H 0.141955 1.936494 1.509861 0
M  V30 43 H -1.159462 0.601124 3.854215 0
M  V30 44 H -3.571783 0.505927 4.573661 0
M  V30 45 H -7.031701 -1.282597 1.342453 0
M  V30 46 H -2.337789 -1.034843 0.105955 0
M  V30 47 H -0.014053 -2.551625 3.145260 0
M  V30 48 H -0.773021 -4.828966 3.429891 0
M  V30 END ATOM
M  V30 BEGIN BOND
M  V30 1 1 1 2
M  V30 2 2 2 3
M  V30 3 1 3 4
M  V30 4 1 4 5
M  V30 5 1 5 6
M  V30 6 2 6 7
M  V30 7 1 7 8
M  V30 8 1 8 9
M  V30 9 1 9 10
M  V30 10 1 10 11
M  V30 11 1 11 12
M  V30 12 1 12 13
M  V30 13 1 7 14
M  V30 14 1 14 15
M  V30 15 1 15 16
M  V30 16 1 16 17
M  V30 17 2 17 18
M  V30 18 1 18 19
M  V30 19 2 19 20
M  V30 20 1 20 21
M  V30 21 2 21 22
M  V30 22 1 22 23
M  V30 23 1 23 24
M  V30 24 2 4 25
M  V30 25 1 25 26
M  V30 26 2 26 27
M  V30 27 1 27 28
M  V30 28 1 27 2
M  V30 29 2 15 5
M  V30 30 2 24 16
M  V30 31 1 13 8
M  V30 32 1 23 19
M  V30 33 1 1 29
M  V30 34 1 1 30
M  V30 35 1 1 31
M  V30 36 1 9 32
M  V30 37 1 9 33
M  V30 38 1 10 34
M  V30 39 1 10 35
M  V30 40 1 11 36
M  V30 41 1 11 37
M  V30 42 1 12 38
M  V30 43 1 12 39
M  V30 44 1 13 40
M  V30 45 1 13 41
M  V30 46 1 14 42
M  V30 47 1 17 43
M  V30 48 1 18 44
M  V30 49 1 21 45
M  V30 50 1 24 46
M  V30 51 1 25 47
M  V30 52 1 26 48
M  V30 END BOND
M  V30 END CTAB
M  END
>  <Dataset>  (925) 
ChEMBL_Kinases

>  <Ligand_Instance>  (925) 
nan

>  <PDB_ID>  (925) 
nan

>  <Standardized_SMILES>  (925) 
Cc1nc(-c2nc(N3CCCCC3)[nH]c2-c2ccc3ncnn3c2)ccc1F

>  <Name>  (925) 
nan

>  <Pocket>  (925) 
nan

>  <ATP_Site>  (925) 
nan

>  <Peripheral>  (925) 
nan

>  <Num_H_Atoms_ProtBoundConf>  (925) 
nan

>  <Num_Resolved_Atoms>  (925) 
nan

>  <Num_Not_Resolved_Atoms>  (925) 
nan

$$$$
CHEMBL481562
     RDKit          3D

  0  0  0  0  0  0  0  0  0  0999 V3000
M  V30 BEGIN CTAB
M  V30 COUNTS 37 40 0 0 0
M  V30 BEGIN ATOM
M  V30 1 O -0.158685 -3.438139 2.500449 0
M  V30 2 C -0.264466 -3.636736 1.258732 0
M  V30 3 N -0.510156 -4.969912 0.860059 0
M  V30 4 C -0.652992 -6.133652 1.736312 0
M  V30 5 C -0.033185 -7.420441 1.230315 0
M  V30 6 C -1.567433 -7.231064 1.350866 0
M  V30 7 C -0.150917 -2.601326 0.247924 0
M  V30 8 N -0.237191 -2.654434 -1.074144 0
M  V30 9 N -0.071216 -1.464718 -1.629230 0
M  V30 10 C 0.135531 -0.569797 -0.648116 0
M  V30 11 C 0.365718 0.797089 -0.611902 0
M  V30 12 C 0.554137 1.512911 0.565940 0
M  V30 13 C 0.784855 2.945788 0.425170 0
M  V30 14 C 0.184061 3.928790 1.184670 0
M  V30 15 C 0.447878 5.270364 0.999146 0
M  V30 16 C 1.339159 5.688562 0.029013 0
M  V30 17 O 1.588801 7.046324 -0.139180 0
M  V30 18 C 1.952967 4.709482 -0.744843 0
M  V30 19 C 1.684406 3.364721 -0.554226 0
M  V30 20 C 0.502666 0.791896 1.741163 0
M  V30 21 Br 0.762519 1.784401 3.348948 0
M  V30 22 C 0.274216 -0.568068 1.714899 0
M  V30 23 C 0.090749 -1.252425 0.531903 0
M  V30 24 H -0.607405 -5.199501 -0.147346 0
M  V30 25 H -0.553289 -5.916287 2.822614 0
M  V30 26 H 0.373215 -7.456978 0.210829 0
M  V30 27 H 0.367210 -8.149525 1.963216 0
M  V30 28 H -2.089847 -7.772247 2.147708 0
M  V30 29 H -2.104384 -7.241349 0.382094 0
M  V30 30 H -0.097376 -1.262436 -2.651853 0
M  V30 31 H 0.394861 1.306727 -1.566677 0
M  V30 32 H -0.513643 3.612276 1.944909 0
M  V30 33 H -0.037510 5.999079 1.607286 0
M  V30 34 H 2.329325 7.476256 0.435765 0
M  V30 35 H 2.636986 5.110745 -1.482688 0
M  V30 36 H 2.230300 2.701733 -1.225103 0
M  V30 37 H 0.247784 -1.064533 2.678348 0
M  V30 END ATOM
M  V30 BEGIN BOND
M  V30 1 2 1 2
M  V30 2 1 2 3
M  V30 3 1 3 4
M  V30 4 1 4 5
M  V30 5 1 5 6
M  V30 6 1 2 7
M  V30 7 2 7 8
M  V30 8 1 8 9
M  V30 9 1 9 10
M  V30 10 2 10 11
M  V30 11 1 11 12
M  V30 12 1 12 13
M  V30 13 2 13 14
M  V30 14 1 14 15
M  V30 15 2 15 16
M  V30 16 1 16 17
M  V30 17 1 16 18
M  V30 18 2 18 19
M  V30 19 2 12 20
M  V30 20 1 20 21
M  V30 21 1 20 22
M  V30 22 2 22 23
M  V30 23 1 6 4
M  V30 24 1 23 7
M  V30 25 1 23 10
M  V30 26 1 19 13
M  V30 27 1 3 24
M  V30 28 1 4 25
M  V30 29 1 5 26
M  V30 30 1 5 27
M  V30 31 1 6 28
M  V30 32 1 6 29
M  V30 33 1 9 30
M  V30 34 1 11 31
M  V30 35 1 14 32
M  V30 36 1 15 33
M  V30 37 1 17 34
M  V30 38 1 18 35
M  V30 39 1 19 36
M  V30 40 1 22 37
M  V30 END BOND
M  V30 END CTAB
M  END
>  <Dataset>  (926) 
ChEMBL_Kinases

>  <Ligand_Instance>  (926) 
nan

>  <PDB_ID>  (926) 
nan

>  <Standardized_SMILES>  (926) 
O=C(NC1CC1)c1n[nH]c2cc(-c3ccc(O)cc3)c(Br)cc12

>  <Name>  (926) 
nan

>  <Pocket>  (926) 
nan

>  <ATP_Site>  (926) 
nan

>  <Peripheral>  (926) 
nan

>  <Num_H_Atoms_ProtBoundConf>  (926) 
nan

>  <Num_Resolved_Atoms>  (926) 
nan

>  <Num_Not_Resolved_Atoms>  (926) 
nan

$$$$
CHEMBL481577
     RDKit          3D

  0  0  0  0  0  0  0  0  0  0999 V3000
M  V30 BEGIN CTAB
M  V30 COUNTS 34 35 0 0 0
M  V30 BEGIN ATOM
M  V30 1 C 0.902197 -1.574824 4.604192 0
M  V30 2 C -0.114258 -1.998859 3.569025 0
M  V30 3 O 0.178794 -1.556525 2.283849 0
M  V30 4 C 1.283525 -1.832974 1.520315 0
M  V30 5 C 2.267343 -2.651180 2.031246 0
M  V30 6 C 3.394837 -2.956621 1.299683 0
M  V30 7 C 3.466439 -2.395298 0.043161 0
M  V30 8 C 2.481048 -1.582740 -0.454384 0
M  V30 9 C 1.340342 -1.274105 0.286704 0
M  V30 10 C 0.377956 -0.402951 -0.360857 0
M  V30 11 O 0.590026 0.039649 -1.540571 0
M  V30 12 N -0.845997 0.091177 0.094700 0
M  V30 13 C -1.624764 0.943452 -0.736326 0
M  V30 14 C -1.415252 2.283987 -0.648400 0
M  V30 15 C -2.132443 3.168035 -1.422297 0
M  V30 16 Cl -1.969223 4.923256 -1.415229 0
M  V30 17 C -3.097909 2.701096 -2.320917 0
M  V30 18 C -3.274039 1.327310 -2.373505 0
M  V30 19 C -2.562000 0.409423 -1.601694 0
M  V30 20 O -2.787354 -0.951534 -1.703261 0
M  V30 21 H 1.736906 -1.032984 4.117003 0
M  V30 22 H 0.448029 -0.902497 5.377487 0
M  V30 23 H 1.284238 -2.472324 5.119435 0
M  V30 24 H -0.233498 -3.102491 3.545369 0
M  V30 25 H -1.085384 -1.498448 3.847114 0
M  V30 26 H 2.216434 -3.094608 3.010096 0
M  V30 27 H 4.165845 -3.592296 1.688763 0
M  V30 28 H 4.334154 -2.609498 -0.563328 0
M  V30 29 H 2.632263 -1.185135 -1.466494 0
M  V30 30 H -1.140934 -0.196586 1.052283 0
M  V30 31 H -0.707061 2.752899 -0.000166 0
M  V30 32 H -3.701854 3.339350 -2.963447 0
M  V30 33 H -4.009902 0.900649 -3.052304 0
M  V30 34 H -2.400111 -1.559289 -2.409003 0
M  V30 END ATOM
M  V30 BEGIN BOND
M  V30 1 1 1 2
M  V30 2 1 2 3
M  V30 3 1 3 4
M  V30 4 2 4 5
M  V30 5 1 5 6
M  V30 6 2 6 7
M  V30 7 1 7 8
M  V30 8 2 8 9
M  V30 9 1 9 10
M  V30 10 2 10 11
M  V30 11 1 10 12
M  V30 12 1 12 13
M  V30 13 2 13 14
M  V30 14 1 14 15
M  V30 15 1 15 16
M  V30 16 2 15 17
M  V30 17 1 17 18
M  V30 18 2 18 19
M  V30 19 1 19 20
M  V30 20 1 9 4
M  V30 21 1 19 13
M  V30 22 1 1 21
M  V30 23 1 1 22
M  V30 24 1 1 23
M  V30 25 1 2 24
M  V30 26 1 2 25
M  V30 27 1 5 26
M  V30 28 1 6 27
M  V30 29 1 7 28
M  V30 30 1 8 29
M  V30 31 1 12 30
M  V30 32 1 14 31
M  V30 33 1 17 32
M  V30 34 1 18 33
M  V30 35 1 20 34
M  V30 END BOND
M  V30 END CTAB
M  END
>  <Dataset>  (927) 
ChEMBL_Kinases

>  <Ligand_Instance>  (927) 
nan

>  <PDB_ID>  (927) 
nan

>  <Standardized_SMILES>  (927) 
CCOc1ccccc1C(=O)Nc1cc(Cl)ccc1O

>  <Name>  (927) 
nan

>  <Pocket>  (927) 
nan

>  <ATP_Site>  (927) 
nan

>  <Peripheral>  (927) 
nan

>  <Num_H_Atoms_ProtBoundConf>  (927) 
nan

>  <Num_Resolved_Atoms>  (927) 
nan

>  <Num_Not_Resolved_Atoms>  (927) 
nan

$$$$
CHEMBL481635
     RDKit          3D

  0  0  0  0  0  0  0  0  0  0999 V3000
M  V30 BEGIN CTAB
M  V30 COUNTS 60 62 0 0 0
M  V30 BEGIN ATOM
M  V30 1 O 0.993045 0.087538 3.927437 0
M  V30 2 C 1.266656 0.444769 2.751977 0
M  V30 3 C 2.523713 1.154599 2.514992 0
M  V30 4 C 3.350612 1.416358 3.496756 0
M  V30 5 C 4.631448 2.111578 3.410890 0
M  V30 6 C 5.427709 2.332112 4.531720 0
M  V30 7 C 6.631042 2.993316 4.405681 0
M  V30 8 C 7.105521 3.462634 3.198290 0
M  V30 9 O 8.333217 4.111832 3.210694 0
M  V30 10 C 6.330992 3.255806 2.065385 0
M  V30 11 O 6.812498 3.726490 0.871139 0
M  V30 12 C 5.129217 2.590728 2.217531 0
M  V30 13 O 0.423660 0.194382 1.659881 0
M  V30 14 C -0.800357 -0.474055 1.763811 0 CFG=1
M  V30 15 C -1.874299 0.569907 1.429963 0 CFG=2
M  V30 16 O -2.298650 1.224443 2.574100 0
M  V30 17 C -3.078746 -0.066078 0.802122 0 CFG=1
M  V30 18 O -3.923454 0.963046 0.388373 0
M  V30 19 C -2.741457 -0.964009 -0.377461 0 CFG=2
M  V30 20 O -3.741364 -1.912638 -0.530570 0
M  V30 21 C -4.528940 -1.783538 -1.631558 0
M  V30 22 C -3.898356 -1.877991 -2.968180 0
M  V30 23 C -3.235101 -3.159007 -3.270029 0
M  V30 24 C -4.004580 -4.175621 -3.809252 0
M  V30 25 C -3.572347 -5.435401 -4.166199 0
M  V30 26 C -2.240492 -5.733859 -3.974570 0
M  V30 27 O -1.734584 -6.962869 -4.303622 0
M  V30 28 C -1.425431 -4.759487 -3.440531 0
M  V30 29 O -0.064190 -4.963610 -3.208418 0
M  V30 30 C -1.913598 -3.515575 -3.102064 0
M  V30 31 O -1.474293 -1.459361 -0.324303 0
M  V30 32 C -0.933310 -1.688102 0.909967 0 CFG=2
M  V30 33 C -1.575529 -2.864437 1.639355 0
M  V30 34 O -1.005338 -3.067428 2.884234 0
M  V30 35 H 2.819142 1.487568 1.537910 0
M  V30 36 H 3.042099 1.074307 4.485403 0
M  V30 37 H 5.037894 1.956073 5.470545 0
M  V30 38 H 7.156480 3.099127 5.365951 0
M  V30 39 H 8.478436 5.015252 2.756753 0
M  V30 40 H 6.293913 4.239183 0.173498 0
M  V30 41 H 4.585762 2.468349 1.296004 0
M  V30 42 H -0.967172 -0.754608 2.827120 0
M  V30 43 H -1.494223 1.341852 0.725181 0
M  V30 44 H -1.507420 1.597702 3.032275 0
M  V30 45 H -3.645465 -0.604555 1.598520 0
M  V30 46 H -4.841301 0.691697 0.208069 0
M  V30 47 H -2.818025 -0.295776 -1.270020 0
M  V30 48 H -5.141477 -0.853997 -1.603164 0
M  V30 49 H -5.302385 -2.605552 -1.571269 0
M  V30 50 H -4.729056 -1.756684 -3.721227 0
M  V30 51 H -3.230260 -1.008265 -3.177232 0
M  V30 52 H -5.076338 -3.991527 -3.983599 0
M  V30 53 H -4.253617 -6.163901 -4.581746 0
M  V30 54 H -0.987783 -7.436498 -3.839567 0
M  V30 55 H 0.418993 -4.654878 -2.375413 0
M  V30 56 H -1.274414 -2.749273 -2.689948 0
M  V30 57 H 0.117021 -2.055583 0.708144 0
M  V30 58 H -1.384851 -3.787664 1.050687 0
M  V30 59 H -2.654977 -2.784781 1.748678 0
M  V30 60 H -1.579218 -2.589006 3.545770 0
M  V30 END ATOM
M  V30 BEGIN BOND
M  V30 1 2 1 2
M  V30 2 1 2 3
M  V30 3 2 3 4
M  V30 4 1 4 5
M  V30 5 2 5 6
M  V30 6 1 6 7
M  V30 7 2 7 8
M  V30 8 1 8 9
M  V30 9 1 8 10
M  V30 10 1 10 11
M  V30 11 2 10 12
M  V30 12 1 2 13
M  V30 13 1 13 14
M  V30 14 1 14 15
M  V30 15 1 15 16
M  V30 16 1 15 17
M  V30 17 1 17 18
M  V30 18 1 17 19
M  V30 19 1 19 20
M  V30 20 1 20 21
M  V30 21 1 21 22
M  V30 22 1 22 23
M  V30 23 2 23 24
M  V30 24 1 24 25
M  V30 25 2 25 26
M  V30 26 1 26 27
M  V30 27 1 26 28
M  V30 28 1 28 29
M  V30 29 2 28 30
M  V30 30 1 19 31
M  V30 31 1 31 32
M  V30 32 1 32 33
M  V30 33 1 33 34
M  V30 34 1 12 5
M  V30 35 1 32 14
M  V30 36 1 30 23
M  V30 37 1 3 35
M  V30 38 1 4 36
M  V30 39 1 6 37
M  V30 40 1 7 38
M  V30 41 1 9 39
M  V30 42 1 11 40
M  V30 43 1 12 41
M  V30 44 1 14 42 CFG=1
M  V30 45 1 15 43 CFG=3
M  V30 46 1 16 44
M  V30 47 1 17 45 CFG=1
M  V30 48 1 18 46
M  V30 49 1 19 47 CFG=3
M  V30 50 1 21 48
M  V30 51 1 21 49
M  V30 52 1 22 50
M  V30 53 1 22 51
M  V30 54 1 24 52
M  V30 55 1 25 53
M  V30 56 1 27 54
M  V30 57 1 29 55
M  V30 58 1 30 56
M  V30 59 1 32 57 CFG=3
M  V30 60 1 33 58
M  V30 61 1 33 59
M  V30 62 1 34 60
M  V30 END BOND
M  V30 END CTAB
M  END
>  <Dataset>  (928) 
ChEMBL_Kinases

>  <Ligand_Instance>  (928) 
nan

>  <PDB_ID>  (928) 
nan

>  <Standardized_SMILES>  (928) 
O=C(/C=C/c1ccc(O)c(O)c1)O[C@H]1[C@H](O)[C@@H](O)[C@H](OCCc2ccc(O)c(O)c2)O[C@@H]1CO

>  <Name>  (928) 
CALCEOLARIOSIDE A

>  <Pocket>  (928) 
nan

>  <ATP_Site>  (928) 
nan

>  <Peripheral>  (928) 
nan

>  <Num_H_Atoms_ProtBoundConf>  (928) 
nan

>  <Num_Resolved_Atoms>  (928) 
nan

>  <Num_Not_Resolved_Atoms>  (928) 
nan

$$$$
CHEMBL481752
     RDKit          3D

  0  0  0  0  0  0  0  0  0  0999 V3000
M  V30 BEGIN CTAB
M  V30 COUNTS 59 63 0 0 0
M  V30 BEGIN ATOM
M  V30 1 C 0.858897 -2.308573 3.599911 0
M  V30 2 C 2.296745 -2.535685 3.431544 0 CFG=2
M  V30 3 N 2.961830 -1.243900 3.290373 0
M  V30 4 C 2.639861 -0.212159 2.371166 0
M  V30 5 N 3.419635 0.906846 2.280370 0
M  V30 6 C 3.132086 1.895044 1.449697 0
M  V30 7 C 2.013699 1.765280 0.670355 0
M  V30 8 C 1.180952 0.637016 0.726655 0
M  V30 9 C 0.061871 0.761573 -0.183389 0
M  V30 10 N -0.815593 1.786230 -0.074802 0
M  V30 11 C -1.790216 1.770706 -0.991093 0
M  V30 12 C -2.906465 2.737998 -1.158791 0
M  V30 13 C -4.113527 2.359309 -0.376704 0
M  V30 14 C -4.171131 2.847007 0.930724 0
M  V30 15 C -5.275830 2.521898 1.693777 0
M  V30 16 C -6.324893 1.753487 1.264102 0
M  V30 17 C -6.235833 1.287120 -0.034229 0
M  V30 18 C -7.306389 0.476281 -0.543432 0
M  V30 19 N -8.180162 -0.169320 -0.962187 0
M  V30 20 C -5.150800 1.581119 -0.847496 0
M  V30 21 N -1.535701 0.664170 -1.749807 0
M  V30 22 C -0.417428 0.061212 -1.255949 0
M  V30 23 C 0.185122 -1.159885 -1.772507 0
M  V30 24 C 0.022550 -2.311426 -0.994681 0
M  V30 25 C 0.590534 -3.456180 -1.502782 0
M  V30 26 C 1.278644 -3.480191 -2.699542 0
M  V30 27 F 1.818937 -4.662800 -3.143016 0
M  V30 28 C 1.426492 -2.329773 -3.450091 0
M  V30 29 C 0.871528 -1.153870 -2.979035 0
M  V30 30 N 1.526055 -0.328580 1.586489 0
M  V30 31 C 2.778852 -3.400206 2.373633 0
M  V30 32 C 2.110716 -4.254116 1.514573 0
M  V30 33 C 2.825076 -4.972323 0.602339 0
M  V30 34 C 4.194331 -4.932566 0.443154 0
M  V30 35 C 4.863548 -4.081003 1.299091 0
M  V30 36 C 4.173321 -3.339587 2.234073 0
M  V30 37 H 0.420828 -2.993016 4.356605 0
M  V30 38 H 0.224514 -2.422629 2.704853 0
M  V30 39 H 0.620019 -1.273934 3.965900 0
M  V30 40 H 2.692029 -2.999056 4.399010 0
M  V30 41 H 3.779951 -1.027228 3.934655 0
M  V30 42 H 3.795465 2.741249 1.437722 0
M  V30 43 H 1.853165 2.635629 0.010193 0
M  V30 44 H -0.795143 2.564697 0.644049 0
M  V30 45 H -2.549830 3.731092 -0.824072 0
M  V30 46 H -3.176488 2.791964 -2.247833 0
M  V30 47 H -3.389989 3.460635 1.355622 0
M  V30 48 H -5.310835 2.905197 2.705245 0
M  V30 49 H -7.160518 1.534227 1.906522 0
M  V30 50 H -5.059349 1.229037 -1.862502 0
M  V30 51 H -0.517989 -2.269898 -0.062476 0
M  V30 52 H 0.444848 -4.338727 -0.882194 0
M  V30 53 H 1.970729 -2.384998 -4.381150 0
M  V30 54 H 0.969192 -0.229395 -3.545191 0
M  V30 55 H 1.058454 -4.255797 1.668899 0
M  V30 56 H 2.280283 -5.633818 -0.057762 0
M  V30 57 H 4.729030 -5.509774 -0.284568 0
M  V30 58 H 5.941175 -4.040802 1.183236 0
M  V30 59 H 4.842013 -2.709745 2.842292 0
M  V30 END ATOM
M  V30 BEGIN BOND
M  V30 1 1 1 2
M  V30 2 1 2 3
M  V30 3 1 3 4
M  V30 4 2 4 5
M  V30 5 1 5 6
M  V30 6 2 6 7
M  V30 7 1 7 8
M  V30 8 1 8 9
M  V30 9 1 9 10
M  V30 10 1 10 11
M  V30 11 1 11 12
M  V30 12 1 12 13
M  V30 13 2 13 14
M  V30 14 1 14 15
M  V30 15 2 15 16
M  V30 16 1 16 17
M  V30 17 1 17 18
M  V30 18 3 18 19
M  V30 19 2 17 20
M  V30 20 2 11 21
M  V30 21 1 21 22
M  V30 22 1 22 23
M  V30 23 2 23 24
M  V30 24 1 24 25
M  V30 25 2 25 26
M  V30 26 1 26 27
M  V30 27 1 26 28
M  V30 28 2 28 29
M  V30 29 2 8 30
M  V30 30 1 2 31
M  V30 31 2 31 32
M  V30 32 1 32 33
M  V30 33 2 33 34
M  V30 34 1 34 35
M  V30 35 2 35 36
M  V30 36 1 30 4
M  V30 37 1 36 31
M  V30 38 2 22 9
M  V30 39 1 29 23
M  V30 40 1 20 13
M  V30 41 1 1 37
M  V30 42 1 1 38
M  V30 43 1 1 39
M  V30 44 1 2 40 CFG=1
M  V30 45 1 3 41
M  V30 46 1 6 42
M  V30 47 1 7 43
M  V30 48 1 10 44
M  V30 49 1 12 45
M  V30 50 1 12 46
M  V30 51 1 14 47
M  V30 52 1 15 48
M  V30 53 1 16 49
M  V30 54 1 20 50
M  V30 55 1 24 51
M  V30 56 1 25 52
M  V30 57 1 28 53
M  V30 58 1 29 54
M  V30 59 1 32 55
M  V30 60 1 33 56
M  V30 61 1 34 57
M  V30 62 1 35 58
M  V30 63 1 36 59
M  V30 END BOND
M  V30 END CTAB
M  END
>  <Dataset>  (929) 
ChEMBL_Kinases

>  <Ligand_Instance>  (929) 
nan

>  <PDB_ID>  (929) 
nan

>  <Standardized_SMILES>  (929) 
C[C@H](Nc1nccc(-c2[nH]c(Cc3cccc(C#N)c3)nc2-c2ccc(F)cc2)n1)c1ccccc1

>  <Name>  (929) 
nan

>  <Pocket>  (929) 
nan

>  <ATP_Site>  (929) 
nan

>  <Peripheral>  (929) 
nan

>  <Num_H_Atoms_ProtBoundConf>  (929) 
nan

>  <Num_Resolved_Atoms>  (929) 
nan

>  <Num_Not_Resolved_Atoms>  (929) 
nan

$$$$
CHEMBL481761
     RDKit          3D

  0  0  0  0  0  0  0  0  0  0999 V3000
M  V30 BEGIN CTAB
M  V30 COUNTS 62 66 0 0 0
M  V30 BEGIN ATOM
M  V30 1 C 1.781950 1.035982 4.301274 0
M  V30 2 C 2.399570 -0.304085 4.649870 0 CFG=2
M  V30 3 N 3.532968 -0.608862 3.797158 0
M  V30 4 C 3.348480 -0.717730 2.373048 0
M  V30 5 N 4.407375 -0.987953 1.573849 0
M  V30 6 C 4.237402 -1.090109 0.243969 0
M  V30 7 C 2.996745 -0.924716 -0.333287 0
M  V30 8 C 1.914028 -0.649642 0.474450 0
M  V30 9 C 0.505799 -0.428543 0.166591 0
M  V30 10 N -0.173022 0.716443 0.381775 0
M  V30 11 C -1.430630 0.465137 -0.045081 0
M  V30 12 C -2.598965 1.412649 -0.030421 0
M  V30 13 C -2.573604 2.140705 -1.348520 0
M  V30 14 C -1.896156 3.326870 -1.567322 0
M  V30 15 C -1.938691 3.912384 -2.818233 0
M  V30 16 C -2.647121 3.348261 -3.885178 0
M  V30 17 C -3.330363 2.165869 -3.691079 0
M  V30 18 C -4.088507 1.524358 -4.759702 0
M  V30 19 N -4.763448 0.307338 -4.475490 0
M  V30 20 O -4.108941 2.082155 -5.888614 0
M  V30 21 C -3.259799 1.616547 -2.424464 0
M  V30 22 N -1.499932 -0.814352 -0.509259 0
M  V30 23 C -0.293604 -1.391799 -0.384643 0
M  V30 24 C -0.107095 -2.749401 -0.811290 0
M  V30 25 C -0.784382 -3.745559 -0.096789 0
M  V30 26 C -0.688477 -5.080959 -0.413689 0
M  V30 27 C 0.085557 -5.498805 -1.457668 0
M  V30 28 F 0.217309 -6.796247 -1.814661 0
M  V30 29 C 0.765825 -4.553676 -2.183502 0
M  V30 30 C 0.659591 -3.219316 -1.853730 0
M  V30 31 N 2.134401 -0.554901 1.820282 0
M  V30 32 C 1.385243 -1.388903 4.616589 0
M  V30 33 C 0.038431 -1.120922 4.492601 0
M  V30 34 C -0.971640 -2.059368 4.454035 0
M  V30 35 C -0.575905 -3.395533 4.550748 0
M  V30 36 C 0.778177 -3.689236 4.676841 0
M  V30 37 C 1.773076 -2.708335 4.711953 0
M  V30 38 H 1.284184 1.070593 3.332508 0
M  V30 39 H 1.117608 1.309325 5.154299 0
M  V30 40 H 2.599868 1.784256 4.306321 0
M  V30 41 H 2.764137 -0.226798 5.694460 0
M  V30 42 H 4.489787 -0.752795 4.186363 0
M  V30 43 H 5.024548 -1.300467 -0.445569 0
M  V30 44 H 2.709745 -0.974178 -1.368728 0
M  V30 45 H 0.186530 1.620415 0.792602 0
M  V30 46 H -3.530962 0.833314 -0.014486 0
M  V30 47 H -2.461337 2.108758 0.814984 0
M  V30 48 H -1.353873 3.754790 -0.744747 0
M  V30 49 H -1.401889 4.852796 -2.992775 0
M  V30 50 H -2.679534 3.809723 -4.868827 0
M  V30 51 H -4.444474 -0.598153 -4.073748 0
M  V30 52 H -5.762526 -0.000154 -4.595995 0
M  V30 53 H -3.797888 0.689383 -2.279108 0
M  V30 54 H -1.435122 -3.562630 0.756275 0
M  V30 55 H -1.205591 -5.861596 0.129369 0
M  V30 56 H 1.397386 -4.837395 -3.026684 0
M  V30 57 H 1.188731 -2.477280 -2.420495 0
M  V30 58 H -0.228195 -0.056202 4.420735 0
M  V30 59 H -1.989519 -1.699475 4.352206 0
M  V30 60 H -1.342879 -4.131394 4.521971 0
M  V30 61 H 1.027579 -4.758414 4.749508 0
M  V30 62 H 2.810857 -2.994404 4.810858 0
M  V30 END ATOM
M  V30 BEGIN BOND
M  V30 1 1 1 2
M  V30 2 1 2 3
M  V30 3 1 3 4
M  V30 4 2 4 5
M  V30 5 1 5 6
M  V30 6 2 6 7
M  V30 7 1 7 8
M  V30 8 1 8 9
M  V30 9 1 9 10
M  V30 10 1 10 11
M  V30 11 1 11 12
M  V30 12 1 12 13
M  V30 13 2 13 14
M  V30 14 1 14 15
M  V30 15 2 15 16
M  V30 16 1 16 17
M  V30 17 1 17 18
M  V30 18 1 18 19
M  V30 19 2 18 20
M  V30 20 2 17 21
M  V30 21 2 11 22
M  V30 22 1 22 23
M  V30 23 1 23 24
M  V30 24 2 24 25
M  V30 25 1 25 26
M  V30 26 2 26 27
M  V30 27 1 27 28
M  V30 28 1 27 29
M  V30 29 2 29 30
M  V30 30 2 8 31
M  V30 31 1 2 32
M  V30 32 2 32 33
M  V30 33 1 33 34
M  V30 34 2 34 35
M  V30 35 1 35 36
M  V30 36 2 36 37
M  V30 37 1 31 4
M  V30 38 1 37 32
M  V30 39 2 23 9
M  V30 40 1 30 24
M  V30 41 1 21 13
M  V30 42 1 1 38
M  V30 43 1 1 39
M  V30 44 1 1 40
M  V30 45 1 2 41 CFG=1
M  V30 46 1 3 42
M  V30 47 1 6 43
M  V30 48 1 7 44
M  V30 49 1 10 45
M  V30 50 1 12 46
M  V30 51 1 12 47
M  V30 52 1 14 48
M  V30 53 1 15 49
M  V30 54 1 16 50
M  V30 55 1 19 51
M  V30 56 1 19 52
M  V30 57 1 21 53
M  V30 58 1 25 54
M  V30 59 1 26 55
M  V30 60 1 29 56
M  V30 61 1 30 57
M  V30 62 1 33 58
M  V30 63 1 34 59
M  V30 64 1 35 60
M  V30 65 1 36 61
M  V30 66 1 37 62
M  V30 END BOND
M  V30 END CTAB
M  END
>  <Dataset>  (930) 
ChEMBL_Kinases

>  <Ligand_Instance>  (930) 
nan

>  <PDB_ID>  (930) 
nan

>  <Standardized_SMILES>  (930) 
C[C@H](Nc1nccc(-c2[nH]c(Cc3cccc(C(N)=O)c3)nc2-c2ccc(F)cc2)n1)c1ccccc1

>  <Name>  (930) 
nan

>  <Pocket>  (930) 
nan

>  <ATP_Site>  (930) 
nan

>  <Peripheral>  (930) 
nan

>  <Num_H_Atoms_ProtBoundConf>  (930) 
nan

>  <Num_Resolved_Atoms>  (930) 
nan

>  <Num_Not_Resolved_Atoms>  (930) 
nan

$$$$
CHEMBL481949
     RDKit          3D

  0  0  0  0  0  0  0  0  0  0999 V3000
M  V30 BEGIN CTAB
M  V30 COUNTS 27 28 0 0 0
M  V30 BEGIN ATOM
M  V30 1 O 1.892142 -0.006916 3.775958 0
M  V30 2 C 1.405873 0.017331 2.616821 0
M  V30 3 O 0.238218 0.312782 3.274989 0
M  V30 4 C 2.142260 -0.224897 1.388767 0
M  V30 5 C 3.479596 -0.490647 1.575213 0
M  V30 6 C 4.176851 -0.716673 0.406819 0
M  V30 7 C 3.555900 -0.671733 -0.820448 0
M  V30 8 F 4.374121 -0.915469 -1.881864 0
M  V30 9 C 2.215285 -0.401451 -0.954488 0
M  V30 10 F 1.798021 -0.388186 -2.226241 0
M  V30 11 C 1.489645 -0.172463 0.181985 0
M  V30 12 N 0.115823 0.110603 0.008529 0
M  V30 13 C -1.166416 -0.477431 0.110502 0
M  V30 14 C -2.030788 0.188643 0.986881 0
M  V30 15 C -3.323340 -0.213178 1.248817 0
M  V30 16 C -3.722399 -1.342570 0.575289 0
M  V30 17 I -5.686097 -2.038172 0.910901 0
M  V30 18 C -2.952897 -2.066377 -0.303285 0
M  V30 19 C -1.680212 -1.593220 -0.502767 0
M  V30 20 Cl -0.624689 -2.445435 -1.590558 0
M  V30 21 H -0.162600 1.255953 3.330126 0
M  V30 22 H 3.953720 -0.522322 2.546174 0
M  V30 23 H 5.237685 -0.932519 0.493774 0
M  V30 24 H 0.083255 1.122172 -0.306724 0
M  V30 25 H -1.724884 1.094039 1.528415 0
M  V30 26 H -3.962287 0.327302 1.932922 0
M  V30 27 H -3.276128 -2.953528 -0.828274 0
M  V30 END ATOM
M  V30 BEGIN BOND
M  V30 1 2 1 2
M  V30 2 1 2 3
M  V30 3 1 2 4
M  V30 4 2 4 5
M  V30 5 1 5 6
M  V30 6 2 6 7
M  V30 7 1 7 8
M  V30 8 1 7 9
M  V30 9 1 9 10
M  V30 10 2 9 11
M  V30 11 1 11 12
M  V30 12 1 12 13
M  V30 13 2 13 14
M  V30 14 1 14 15
M  V30 15 2 15 16
M  V30 16 1 16 17
M  V30 17 1 16 18
M  V30 18 2 18 19
M  V30 19 1 19 20
M  V30 20 1 11 4
M  V30 21 1 19 13
M  V30 22 1 3 21
M  V30 23 1 5 22
M  V30 24 1 6 23
M  V30 25 1 12 24
M  V30 26 1 14 25
M  V30 27 1 15 26
M  V30 28 1 18 27
M  V30 END BOND
M  V30 END CTAB
M  END
>  <Dataset>  (931) 
ChEMBL_Kinases

>  <Ligand_Instance>  (931) 
nan

>  <PDB_ID>  (931) 
nan

>  <Standardized_SMILES>  (931) 
O=C(O)c1ccc(F)c(F)c1Nc1ccc(I)cc1Cl

>  <Name>  (931) 
ZAPNOMETINIB

>  <Pocket>  (931) 
nan

>  <ATP_Site>  (931) 
nan

>  <Peripheral>  (931) 
nan

>  <Num_H_Atoms_ProtBoundConf>  (931) 
nan

>  <Num_Resolved_Atoms>  (931) 
nan

>  <Num_Not_Resolved_Atoms>  (931) 
nan

$$$$
CHEMBL4093952
     RDKit          3D

  0  0  0  0  0  0  0  0  0  0999 V3000
M  V30 BEGIN CTAB
M  V30 COUNTS 51 54 0 0 0
M  V30 BEGIN ATOM
M  V30 1 C -0.401003 -3.858609 4.676885 0
M  V30 2 C 0.067890 -2.735711 3.739252 0 CFG=2
M  V30 3 C -0.608211 -2.954640 2.431533 0
M  V30 4 C 0.256445 -2.754913 1.231817 0
M  V30 5 C 1.444041 -1.897676 1.575013 0 CFG=2
M  V30 6 N 2.172265 -1.403545 0.472678 0
M  V30 7 C 2.064430 -0.499291 -0.605032 0
M  V30 8 N 3.099203 -0.439824 -1.429474 0
M  V30 9 C 3.276294 0.312514 -2.505768 0
M  V30 10 C 2.231583 1.144848 -2.797759 0
M  V30 11 C 2.225159 2.051224 -3.935290 0
M  V30 12 N 1.105775 2.884892 -4.175256 0
M  V30 13 O 3.265864 2.011063 -4.638305 0
M  V30 14 C 1.136153 1.098410 -1.945195 0
M  V30 15 S -0.421324 2.086842 -2.049224 0
M  V30 16 C -1.153501 1.333403 -0.563430 0
M  V30 17 C -2.451588 1.717172 -0.095343 0
M  V30 18 C -2.948930 1.096036 1.051293 0
M  V30 19 C -4.187042 1.401891 1.573620 0
M  V30 20 C -4.932998 2.358383 0.915963 0
M  V30 21 C -4.430094 2.973535 -0.227223 0
M  V30 22 C -3.191226 2.671626 -0.755072 0
M  V30 23 C -0.215202 0.473499 -0.167918 0
M  V30 24 C 0.969330 0.301189 -0.819549 0
M  V30 25 C 2.218081 -2.693409 2.594125 0 CFG=2
M  V30 26 C 2.485588 -4.108337 2.133603 0
M  V30 27 N 1.470155 -2.729855 3.792668 0
M  V30 28 H -0.473569 -4.829963 4.164915 0
M  V30 29 H 0.332171 -3.996760 5.516024 0
M  V30 30 H -1.368476 -3.616831 5.162188 0
M  V30 31 H -0.301857 -1.803553 4.225644 0
M  V30 32 H -1.053894 -3.978565 2.350825 0
M  V30 33 H -1.464489 -2.252450 2.356243 0
M  V30 34 H 0.697092 -3.748070 0.916806 0
M  V30 35 H -0.237826 -2.368621 0.332679 0
M  V30 36 H 1.058249 -1.001204 2.157968 0
M  V30 37 H 3.081734 -1.946172 0.557599 0
M  V30 38 H 4.154008 0.304853 -3.131947 0
M  V30 39 H 0.262100 2.661966 -4.750317 0
M  V30 40 H 1.217871 3.808433 -3.684877 0
M  V30 41 H -2.337196 0.345996 1.547333 0
M  V30 42 H -4.514376 0.886869 2.462038 0
M  V30 43 H -5.920745 2.619172 1.311515 0
M  V30 44 H -5.020802 3.722760 -0.737702 0
M  V30 45 H -2.812484 3.154244 -1.640396 0
M  V30 46 H -0.510688 -0.053771 0.722306 0
M  V30 47 H 3.184678 -2.201999 2.729761 0
M  V30 48 H 3.405345 -4.472896 2.653446 0
M  V30 49 H 1.692646 -4.817504 2.408588 0
M  V30 50 H 2.727875 -4.127925 1.042940 0
M  V30 51 H 1.903197 -3.255435 4.572472 0
M  V30 END ATOM
M  V30 BEGIN BOND
M  V30 1 1 1 2
M  V30 2 1 2 3
M  V30 3 1 3 4
M  V30 4 1 4 5
M  V30 5 1 5 6
M  V30 6 1 6 7
M  V30 7 2 7 8
M  V30 8 1 8 9
M  V30 9 2 9 10
M  V30 10 1 10 11
M  V30 11 1 11 12
M  V30 12 2 11 13
M  V30 13 1 10 14
M  V30 14 1 14 15
M  V30 15 1 15 16
M  V30 16 1 16 17
M  V30 17 2 17 18
M  V30 18 1 18 19
M  V30 19 2 19 20
M  V30 20 1 20 21
M  V30 21 2 21 22
M  V30 22 2 16 23
M  V30 23 1 23 24
M  V30 24 1 5 25
M  V30 25 1 25 26
M  V30 26 1 25 27
M  V30 27 1 27 2
M  V30 28 1 24 7
M  V30 29 2 24 14
M  V30 30 1 22 17
M  V30 31 1 1 28
M  V30 32 1 1 29
M  V30 33 1 1 30
M  V30 34 1 2 31 CFG=1
M  V30 35 1 3 32
M  V30 36 1 3 33
M  V30 37 1 4 34
M  V30 38 1 4 35
M  V30 39 1 5 36 CFG=1
M  V30 40 1 6 37
M  V30 41 1 9 38
M  V30 42 1 12 39
M  V30 43 1 12 40
M  V30 44 1 18 41
M  V30 45 1 19 42
M  V30 46 1 20 43
M  V30 47 1 21 44
M  V30 48 1 22 45
M  V30 49 1 23 46
M  V30 50 1 25 47 CFG=1
M  V30 51 1 26 48
M  V30 52 1 26 49
M  V30 53 1 26 50
M  V30 54 1 27 51
M  V30 END BOND
M  V30 END CTAB
M  END
>  <Dataset>  (932) 
ChEMBL_Kinases

>  <Ligand_Instance>  (932) 
nan

>  <PDB_ID>  (932) 
nan

>  <Standardized_SMILES>  (932) 
C[C@@H]1CC[C@H](Nc2ncc(C(N)=O)c3sc(-c4ccccc4)cc23)[C@H](C)N1

>  <Name>  (932) 
nan

>  <Pocket>  (932) 
nan

>  <ATP_Site>  (932) 
nan

>  <Peripheral>  (932) 
nan

>  <Num_H_Atoms_ProtBoundConf>  (932) 
nan

>  <Num_Resolved_Atoms>  (932) 
nan

>  <Num_Not_Resolved_Atoms>  (932) 
nan

$$$$
CHEMBL482086
     RDKit          3D

  0  0  0  0  0  0  0  0  0  0999 V3000
M  V30 BEGIN CTAB
M  V30 COUNTS 50 53 0 0 0
M  V30 BEGIN ATOM
M  V30 1 C 6.221068 -3.575116 2.034092 0
M  V30 2 S 6.372983 -2.801175 0.395237 0
M  V30 3 C 4.878987 -1.874237 0.057333 0
M  V30 4 N 4.600015 -1.162101 -1.049658 0
M  V30 5 C 3.358513 -0.628726 -0.873178 0
M  V30 6 C 2.759244 0.210221 -1.914122 0
M  V30 7 C 1.598417 -0.203837 -2.536079 0
M  V30 8 C 1.011934 0.564095 -3.517686 0
M  V30 9 C 1.589369 1.765026 -3.888140 0
M  V30 10 F 1.090299 2.593016 -4.842239 0
M  V30 11 C 2.756912 2.180040 -3.261507 0
M  V30 12 C 3.334767 1.406084 -2.282328 0
M  V30 13 C 2.872407 -1.029569 0.376522 0
M  V30 14 C 1.543717 -0.560485 0.760877 0
M  V30 15 C 1.250956 0.782406 0.921704 0
M  V30 16 C -0.038413 1.108502 1.286727 0
M  V30 17 N -1.039683 0.238496 1.501284 0
M  V30 18 C -0.783225 -1.072103 1.352176 0
M  V30 19 N -1.807650 -2.049014 1.565833 0
M  V30 20 C -3.138194 -1.692515 1.940403 0
M  V30 21 C -3.242222 -0.925120 3.239931 0
M  V30 22 C -4.731778 -0.873843 3.553331 0
M  V30 23 C -5.354884 0.137677 2.635846 0
M  V30 24 C -4.543418 0.279569 1.395757 0
M  V30 25 C -3.925045 -0.991652 0.881734 0
M  V30 26 C 0.497722 -1.430465 0.987356 0
M  V30 27 N 3.847640 -1.792497 0.903653 0
M  V30 28 H 7.204179 -3.667205 2.536537 0
M  V30 29 H 5.575386 -2.959972 2.703845 0
M  V30 30 H 5.698480 -4.558727 1.925929 0
M  V30 31 H 1.124360 -1.139874 -2.266141 0
M  V30 32 H 0.088873 0.300204 -4.057072 0
M  V30 33 H 3.218624 3.122515 -3.545132 0
M  V30 34 H 4.246175 1.674142 -1.754845 0
M  V30 35 H 2.022211 1.521568 0.760795 0
M  V30 36 H -0.198718 2.185640 1.395916 0
M  V30 37 H -1.512543 -3.057198 1.427174 0
M  V30 38 H -3.679962 -2.666136 2.152741 0
M  V30 39 H -2.731243 -1.464724 4.076264 0
M  V30 40 H -2.893454 0.119712 3.177441 0
M  V30 41 H -4.831359 -0.565358 4.614577 0
M  V30 42 H -5.171583 -1.898676 3.402584 0
M  V30 43 H -5.315555 1.121828 3.180540 0
M  V30 44 H -6.431264 -0.051793 2.441391 0
M  V30 45 H -3.711957 1.017494 1.559123 0
M  V30 46 H -5.186422 0.728906 0.574300 0
M  V30 47 H -4.744409 -1.629755 0.464744 0
M  V30 48 H -3.223409 -0.690788 0.059003 0
M  V30 49 H 0.700004 -2.493695 0.868288 0
M  V30 50 H 3.674667 -2.192225 1.846406 0
M  V30 END ATOM
M  V30 BEGIN BOND
M  V30 1 1 1 2
M  V30 2 1 2 3
M  V30 3 2 3 4
M  V30 4 1 4 5
M  V30 5 1 5 6
M  V30 6 2 6 7
M  V30 7 1 7 8
M  V30 8 2 8 9
M  V30 9 1 9 10
M  V30 10 1 9 11
M  V30 11 2 11 12
M  V30 12 2 5 13
M  V30 13 1 13 14
M  V30 14 2 14 15
M  V30 15 1 15 16
M  V30 16 2 16 17
M  V30 17 1 17 18
M  V30 18 1 18 19
M  V30 19 1 19 20
M  V30 20 1 20 21
M  V30 21 1 21 22
M  V30 22 1 22 23
M  V30 23 1 23 24
M  V30 24 1 24 25
M  V30 25 2 18 26
M  V30 26 1 13 27
M  V30 27 1 27 3
M  V30 28 1 12 6
M  V30 29 1 26 14
M  V30 30 1 25 20
M  V30 31 1 1 28
M  V30 32 1 1 29
M  V30 33 1 1 30
M  V30 34 1 7 31
M  V30 35 1 8 32
M  V30 36 1 11 33
M  V30 37 1 12 34
M  V30 38 1 15 35
M  V30 39 1 16 36
M  V30 40 1 19 37
M  V30 41 1 20 38
M  V30 42 1 21 39
M  V30 43 1 21 40
M  V30 44 1 22 41
M  V30 45 1 22 42
M  V30 46 1 23 43
M  V30 47 1 23 44
M  V30 48 1 24 45
M  V30 49 1 24 46
M  V30 50 1 25 47
M  V30 51 1 25 48
M  V30 52 1 26 49
M  V30 53 1 27 50
M  V30 END BOND
M  V30 END CTAB
M  END
>  <Dataset>  (933) 
ChEMBL_Kinases

>  <Ligand_Instance>  (933) 
nan

>  <PDB_ID>  (933) 
nan

>  <Standardized_SMILES>  (933) 
CSc1nc(-c2ccc(F)cc2)c(-c2ccnc(NC3CCCCC3)c2)[nH]1

>  <Name>  (933) 
nan

>  <Pocket>  (933) 
nan

>  <ATP_Site>  (933) 
nan

>  <Peripheral>  (933) 
nan

>  <Num_H_Atoms_ProtBoundConf>  (933) 
nan

>  <Num_Resolved_Atoms>  (933) 
nan

>  <Num_Not_Resolved_Atoms>  (933) 
nan

$$$$
CHEMBL482129
     RDKit          3D

  0  0  0  0  0  0  0  0  0  0999 V3000
M  V30 BEGIN CTAB
M  V30 COUNTS 60 64 0 0 0
M  V30 BEGIN ATOM
M  V30 1 C 3.664849 -1.951370 7.063143 0
M  V30 2 O 2.621491 -2.175606 6.147925 0
M  V30 3 C 2.839549 -2.232210 4.786636 0
M  V30 4 C 4.031538 -2.090605 4.107614 0
M  V30 5 C 4.088470 -2.172827 2.739085 0
M  V30 6 C 2.895415 -2.405448 2.053807 0
M  V30 7 C 2.861607 -2.510370 0.564469 0
M  V30 8 N 2.642253 -1.206528 -0.028416 0
M  V30 9 C 1.433694 -0.578237 0.365019 0
M  V30 10 N 1.554740 0.202628 1.460657 0
M  V30 11 C 0.440361 0.843756 1.907138 0
M  V30 12 C -0.761736 0.675138 1.231750 0
M  V30 13 C -0.850437 -0.132097 0.112858 0
M  V30 14 C -2.149459 -0.245776 -0.525696 0
M  V30 15 C -2.959154 -1.370789 -0.702300 0
M  V30 16 C -2.514589 -2.669020 -0.204314 0
M  V30 17 C -2.339907 -2.737964 1.146931 0
M  V30 18 C -1.917515 -3.920555 1.756303 0
M  V30 19 C -1.697334 -4.990352 0.888046 0
M  V30 20 F -1.282971 -6.148846 1.490614 0
M  V30 21 C -1.875888 -4.910440 -0.468465 0
M  V30 22 C -2.289221 -3.744725 -1.042936 0
M  V30 23 N -4.084139 -0.974529 -1.359098 0
M  V30 24 C -4.005403 0.354844 -1.598170 0
M  V30 25 N -2.820140 0.797756 -1.086912 0
M  V30 26 C -2.448913 2.203634 -1.194992 0
M  V30 27 C -1.693334 2.392042 -2.484798 0
M  V30 28 C -0.329284 2.288485 -2.643656 0
M  V30 29 C 0.212199 2.489982 -3.895269 0
M  V30 30 C -0.605933 2.788716 -4.959652 0
M  V30 31 C -1.996093 2.903820 -4.844690 0
M  V30 32 C -2.839012 3.215385 -5.962954 0
M  V30 33 N -3.528133 3.452295 -6.865703 0
M  V30 34 C -2.479187 2.691204 -3.566743 0
M  V30 35 N 0.273305 -0.767508 -0.322512 0
M  V30 36 C 1.660315 -2.556451 2.694182 0
M  V30 37 C 1.667077 -2.463042 4.081605 0
M  V30 38 H 3.318563 -2.359969 8.050686 0
M  V30 39 H 4.561026 -2.492122 6.732017 0
M  V30 40 H 3.881909 -0.860813 7.214192 0
M  V30 41 H 4.893111 -1.914086 4.730380 0
M  V30 42 H 5.013801 -2.062589 2.214080 0
M  V30 43 H 3.856045 -2.888173 0.216462 0
M  V30 44 H 2.054375 -3.185391 0.240571 0
M  V30 45 H 3.069843 -0.499848 -0.686416 0
M  V30 46 H 0.552765 1.474567 2.797212 0
M  V30 47 H -1.571419 1.241383 1.692465 0
M  V30 48 H -2.513790 -1.895184 1.825710 0
M  V30 49 H -1.768898 -4.010991 2.822081 0
M  V30 50 H -1.696580 -5.759907 -1.114245 0
M  V30 51 H -2.449084 -3.614580 -2.106208 0
M  V30 52 H -4.759545 0.942889 -2.106223 0
M  V30 53 H -3.337156 2.841065 -1.169100 0
M  V30 54 H -1.777554 2.481207 -0.346091 0
M  V30 55 H 0.232141 2.054062 -1.768452 0
M  V30 56 H 1.289415 2.410085 -4.028451 0
M  V30 57 H -0.173692 2.947930 -5.952158 0
M  V30 58 H -3.572985 2.785480 -3.495635 0
M  V30 59 H 0.764312 -2.734982 2.127936 0
M  V30 60 H 0.670991 -2.589388 4.533551 0
M  V30 END ATOM
M  V30 BEGIN BOND
M  V30 1 1 1 2
M  V30 2 1 2 3
M  V30 3 2 3 4
M  V30 4 1 4 5
M  V30 5 2 5 6
M  V30 6 1 6 7
M  V30 7 1 7 8
M  V30 8 1 8 9
M  V30 9 2 9 10
M  V30 10 1 10 11
M  V30 11 2 11 12
M  V30 12 1 12 13
M  V30 13 1 13 14
M  V30 14 2 14 15
M  V30 15 1 15 16
M  V30 16 2 16 17
M  V30 17 1 17 18
M  V30 18 2 18 19
M  V30 19 1 19 20
M  V30 20 1 19 21
M  V30 21 2 21 22
M  V30 22 1 15 23
M  V30 23 2 23 24
M  V30 24 1 24 25
M  V30 25 1 25 26
M  V30 26 1 26 27
M  V30 27 2 27 28
M  V30 28 1 28 29
M  V30 29 2 29 30
M  V30 30 1 30 31
M  V30 31 1 31 32
M  V30 32 3 32 33
M  V30 33 2 31 34
M  V30 34 2 13 35
M  V30 35 1 6 36
M  V30 36 2 36 37
M  V30 37 1 37 3
M  V30 38 1 35 9
M  V30 39 1 25 14
M  V30 40 1 34 27
M  V30 41 1 22 16
M  V30 42 1 1 38
M  V30 43 1 1 39
M  V30 44 1 1 40
M  V30 45 1 4 41
M  V30 46 1 5 42
M  V30 47 1 7 43
M  V30 48 1 7 44
M  V30 49 1 8 45
M  V30 50 1 11 46
M  V30 51 1 12 47
M  V30 52 1 17 48
M  V30 53 1 18 49
M  V30 54 1 21 50
M  V30 55 1 22 51
M  V30 56 1 24 52
M  V30 57 1 26 53
M  V30 58 1 26 54
M  V30 59 1 28 55
M  V30 60 1 29 56
M  V30 61 1 30 57
M  V30 62 1 34 58
M  V30 63 1 36 59
M  V30 64 1 37 60
M  V30 END BOND
M  V30 END CTAB
M  END
>  <Dataset>  (934) 
ChEMBL_Kinases

>  <Ligand_Instance>  (934) 
nan

>  <PDB_ID>  (934) 
nan

>  <Standardized_SMILES>  (934) 
COc1ccc(CNc2nccc(-c3c(-c4ccc(F)cc4)ncn3Cc3cccc(C#N)c3)n2)cc1

>  <Name>  (934) 
nan

>  <Pocket>  (934) 
nan

>  <ATP_Site>  (934) 
nan

>  <Peripheral>  (934) 
nan

>  <Num_H_Atoms_ProtBoundConf>  (934) 
nan

>  <Num_Resolved_Atoms>  (934) 
nan

>  <Num_Not_Resolved_Atoms>  (934) 
nan

$$$$
CHEMBL4094423
     RDKit          3D

  0  0  0  0  0  0  0  0  0  0999 V3000
M  V30 BEGIN CTAB
M  V30 COUNTS 42 44 0 0 0
M  V30 BEGIN ATOM
M  V30 1 C 0.926887 -3.564515 1.485560 0
M  V30 2 C 0.034305 -2.806171 0.532691 0
M  V30 3 O 0.582964 -1.642824 0.041028 0
M  V30 4 C 0.830400 -1.203060 -1.209107 0
M  V30 5 C 0.492863 -2.009455 -2.272670 0
M  V30 6 C 0.721998 -1.611562 -3.570370 0
M  V30 7 C 1.299247 -0.385216 -3.815170 0
M  V30 8 Br 1.629773 0.195513 -5.600220 0
M  V30 9 C 1.618726 0.384104 -2.722620 0
M  V30 10 C 1.408099 0.028121 -1.393045 0
M  V30 11 C 1.818677 0.969801 -0.370671 0
M  V30 12 O 2.330841 2.059405 -0.753365 0
M  V30 13 N 1.736300 0.863562 1.019524 0
M  V30 14 C 2.114916 1.740071 2.056653 0
M  V30 15 C 2.690723 2.983463 1.927920 0
M  V30 16 C 3.051145 3.820328 2.958981 0
M  V30 17 C 2.825743 3.398031 4.232618 0
M  V30 18 N 2.261295 2.181913 4.410880 0
M  V30 19 C 1.923535 1.394549 3.385155 0
M  V30 20 C -1.297684 -2.514835 1.172638 0
M  V30 21 C -2.413112 -3.322143 0.922643 0
M  V30 22 C -3.653254 -3.101756 1.481935 0
M  V30 23 C -3.814367 -2.030783 2.335203 0
M  V30 24 C -2.741199 -1.206998 2.610987 0
M  V30 25 C -1.538459 -1.468943 2.032493 0
M  V30 26 H 0.602075 -3.399060 2.539492 0
M  V30 27 H 0.902050 -4.657356 1.346275 0
M  V30 28 H 1.978568 -3.210809 1.458719 0
M  V30 29 H -0.201665 -3.491158 -0.304961 0
M  V30 30 H 0.037888 -2.986027 -2.222379 0
M  V30 31 H 0.474305 -2.209898 -4.438071 0
M  V30 32 H 2.076382 1.350837 -2.992639 0
M  V30 33 H 1.320055 -0.028557 1.360952 0
M  V30 34 H 2.899932 3.386152 0.949153 0
M  V30 35 H 3.493665 4.773374 2.811852 0
M  V30 36 H 3.077676 3.989843 5.082469 0
M  V30 37 H 1.474727 0.435593 3.678948 0
M  V30 38 H -2.236280 -4.160685 0.238426 0
M  V30 39 H -4.493528 -3.740633 1.270611 0
M  V30 40 H -4.771490 -1.824141 2.794207 0
M  V30 41 H -2.868937 -0.357300 3.287941 0
M  V30 42 H -0.740891 -0.813321 2.271044 0
M  V30 END ATOM
M  V30 BEGIN BOND
M  V30 1 1 1 2
M  V30 2 1 2 3
M  V30 3 1 3 4
M  V30 4 2 4 5
M  V30 5 1 5 6
M  V30 6 2 6 7
M  V30 7 1 7 8
M  V30 8 1 7 9
M  V30 9 2 9 10
M  V30 10 1 10 11
M  V30 11 2 11 12
M  V30 12 1 11 13
M  V30 13 1 13 14
M  V30 14 2 14 15
M  V30 15 1 15 16
M  V30 16 2 16 17
M  V30 17 1 17 18
M  V30 18 2 18 19
M  V30 19 1 2 20
M  V30 20 2 20 21
M  V30 21 1 21 22
M  V30 22 2 22 23
M  V30 23 1 23 24
M  V30 24 2 24 25
M  V30 25 1 10 4
M  V30 26 1 19 14
M  V30 27 1 25 20
M  V30 28 1 1 26
M  V30 29 1 1 27
M  V30 30 1 1 28
M  V30 31 1 2 29
M  V30 32 1 5 30
M  V30 33 1 6 31
M  V30 34 1 9 32
M  V30 35 1 13 33
M  V30 36 1 15 34
M  V30 37 1 16 35
M  V30 38 1 17 36
M  V30 39 1 19 37
M  V30 40 1 21 38
M  V30 41 1 22 39
M  V30 42 1 23 40
M  V30 43 1 24 41
M  V30 44 1 25 42
M  V30 END BOND
M  V30 END CTAB
M  END
>  <Dataset>  (935) 
ChEMBL_Kinases

>  <Ligand_Instance>  (935) 
nan

>  <PDB_ID>  (935) 
nan

>  <Standardized_SMILES>  (935) 
CC(Oc1ccc(Br)cc1C(=O)Nc1cccnc1)c1ccccc1

>  <Name>  (935) 
nan

>  <Pocket>  (935) 
nan

>  <ATP_Site>  (935) 
nan

>  <Peripheral>  (935) 
nan

>  <Num_H_Atoms_ProtBoundConf>  (935) 
nan

>  <Num_Resolved_Atoms>  (935) 
nan

>  <Num_Not_Resolved_Atoms>  (935) 
nan

$$$$
CHEMBL4094362
     RDKit          3D

  0  0  0  0  0  0  0  0  0  0999 V3000
M  V30 BEGIN CTAB
M  V30 COUNTS 38 40 0 0 0
M  V30 BEGIN ATOM
M  V30 1 C 0.533891 -5.754434 3.605665 0
M  V30 2 O 0.506441 -4.612219 2.806806 0
M  V30 3 C -0.271806 -3.477537 3.104164 0
M  V30 4 C -1.096121 -3.336866 4.193867 0
M  V30 5 C -1.809294 -2.179578 4.381763 0
M  V30 6 C -1.687584 -1.171798 3.471235 0
M  V30 7 C -0.870515 -1.236676 2.336738 0
M  V30 8 N -0.821890 -0.124460 1.461127 0
M  V30 9 C -0.045477 0.012024 0.280029 0
M  V30 10 N -0.109146 1.144388 -0.439305 0
M  V30 11 C 0.552182 1.407581 -1.548587 0
M  V30 12 N 0.413395 2.642587 -2.233207 0
M  V30 13 C -0.487447 3.637879 -1.689950 0
M  V30 14 C -0.113771 4.073282 -0.295034 0
M  V30 15 O 1.159620 4.633138 -0.249725 0
M  V30 16 C 1.395691 0.431986 -2.027586 0
M  V30 17 N 2.225301 0.327995 -3.108242 0
M  V30 18 C 2.798054 -0.881672 -3.042109 0
M  V30 19 N 2.388248 -1.581910 -1.972160 0
M  V30 20 C 1.519203 -0.746239 -1.358434 0
M  V30 21 N 0.792968 -0.888006 -0.245611 0
M  V30 22 C -0.192654 -2.421977 2.220004 0
M  V30 23 H -0.210259 -6.532834 3.324581 0
M  V30 24 H 0.381664 -5.477782 4.668684 0
M  V30 25 H 1.543490 -6.255568 3.598324 0
M  V30 26 H -1.155227 -4.166602 4.882820 0
M  V30 27 H -2.457097 -2.075973 5.244213 0
M  V30 28 H -2.273508 -0.277430 3.667096 0
M  V30 29 H -1.425618 0.695253 1.710951 0
M  V30 30 H 0.964983 2.805963 -3.114232 0
M  V30 31 H -0.426144 4.531759 -2.344348 0
M  V30 32 H -1.510055 3.222768 -1.665604 0
M  V30 33 H -0.809404 4.927797 -0.062484 0
M  V30 34 H -0.297061 3.329030 0.482068 0
M  V30 35 H 1.786040 3.910904 0.033125 0
M  V30 36 H 3.524666 -1.293294 -3.759027 0
M  V30 37 H 2.604859 -2.531103 -1.597427 0
M  V30 38 H 0.454103 -2.531509 1.361992 0
M  V30 END ATOM
M  V30 BEGIN BOND
M  V30 1 1 1 2
M  V30 2 1 2 3
M  V30 3 2 3 4
M  V30 4 1 4 5
M  V30 5 2 5 6
M  V30 6 1 6 7
M  V30 7 1 7 8
M  V30 8 1 8 9
M  V30 9 2 9 10
M  V30 10 1 10 11
M  V30 11 1 11 12
M  V30 12 1 12 13
M  V30 13 1 13 14
M  V30 14 1 14 15
M  V30 15 2 11 16
M  V30 16 1 16 17
M  V30 17 2 17 18
M  V30 18 1 18 19
M  V30 19 1 19 20
M  V30 20 2 20 21
M  V30 21 2 7 22
M  V30 22 1 22 3
M  V30 23 1 21 9
M  V30 24 1 20 16
M  V30 25 1 1 23
M  V30 26 1 1 24
M  V30 27 1 1 25
M  V30 28 1 4 26
M  V30 29 1 5 27
M  V30 30 1 6 28
M  V30 31 1 8 29
M  V30 32 1 12 30
M  V30 33 1 13 31
M  V30 34 1 13 32
M  V30 35 1 14 33
M  V30 36 1 14 34
M  V30 37 1 15 35
M  V30 38 1 18 36
M  V30 39 1 19 37
M  V30 40 1 22 38
M  V30 END BOND
M  V30 END CTAB
M  END
>  <Dataset>  (936) 
ChEMBL_Kinases

>  <Ligand_Instance>  (936) 
nan

>  <PDB_ID>  (936) 
nan

>  <Standardized_SMILES>  (936) 
COc1cccc(Nc2nc(NCCO)c3nc[nH]c3n2)c1

>  <Name>  (936) 
nan

>  <Pocket>  (936) 
nan

>  <ATP_Site>  (936) 
nan

>  <Peripheral>  (936) 
nan

>  <Num_H_Atoms_ProtBoundConf>  (936) 
nan

>  <Num_Resolved_Atoms>  (936) 
nan

>  <Num_Not_Resolved_Atoms>  (936) 
nan

$$$$
CHEMBL409429
     RDKit          3D

  0  0  0  0  0  0  0  0  0  0999 V3000
M  V30 BEGIN CTAB
M  V30 COUNTS 53 56 0 0 0
M  V30 BEGIN ATOM
M  V30 1 C -0.083462 -0.995051 4.878704 0
M  V30 2 O 0.070395 -0.527999 3.552092 0
M  V30 3 C -0.947439 -0.454729 2.618335 0
M  V30 4 O -1.670979 -0.911063 3.514824 0
M  V30 5 C -0.794726 0.025029 1.252374 0
M  V30 6 C 0.487406 0.424068 0.939950 0
M  V30 7 C 1.591540 0.366787 1.858674 0
M  V30 8 C 2.464337 -0.698412 2.039683 0
M  V30 9 C 3.490634 -0.620258 2.963884 0
M  V30 10 C 3.642955 0.534946 3.712401 0
M  V30 11 C 2.782098 1.605662 3.544610 0
M  V30 12 C 1.757091 1.512910 2.613713 0
M  V30 13 C 0.704530 0.902934 -0.331515 0
M  V30 14 C 1.946006 1.325593 -0.743224 0
M  V30 15 C 2.117323 1.796704 -2.022182 0
M  V30 16 Br 3.816605 2.379787 -2.599209 0
M  V30 17 C 1.029039 1.838220 -2.881154 0
M  V30 18 C -0.236861 1.416424 -2.488536 0
M  V30 19 C -0.362872 0.951011 -1.195823 0
M  V30 20 C -1.595656 0.527798 -0.777180 0
M  V30 21 O -2.591645 0.576312 -1.576560 0
M  V30 22 N -1.873694 0.052605 0.436929 0
M  V30 23 C -3.174454 -0.400375 0.799008 0
M  V30 24 C -3.441510 -1.847218 0.757860 0
M  V30 25 C -3.304792 -2.647935 -0.471891 0
M  V30 26 C -2.017767 -2.806630 -1.116913 0
M  V30 27 C -1.220463 -3.714520 -0.411836 0
M  V30 28 C 0.056917 -4.119465 -0.797546 0
M  V30 29 C 0.611754 -3.618501 -1.942423 0
M  V30 30 C -0.123271 -2.722646 -2.678565 0
M  V30 31 C -1.373840 -2.363254 -2.248233 0
M  V30 32 H -0.820452 -0.305360 5.384728 0
M  V30 33 H -0.498213 -2.000390 4.939318 0
M  V30 34 H 0.847068 -0.861516 5.468706 0
M  V30 35 H 2.271013 -1.560918 1.412392 0
M  V30 36 H 4.146361 -1.472812 3.071937 0
M  V30 37 H 4.452050 0.603627 4.444784 0
M  V30 38 H 2.933546 2.497314 4.151487 0
M  V30 39 H 1.136125 2.395779 2.551766 0
M  V30 40 H 2.775782 1.287878 -0.070328 0
M  V30 41 H 1.111385 2.199541 -3.895201 0
M  V30 42 H -1.091796 1.448320 -3.161203 0
M  V30 43 H -3.380736 0.027196 1.833265 0
M  V30 44 H -3.921057 0.117230 0.092782 0
M  V30 45 H -4.508172 -2.038929 1.143486 0
M  V30 46 H -2.834384 -2.396917 1.564454 0
M  V30 47 H -4.007492 -2.236701 -1.275936 0
M  V30 48 H -3.715396 -3.700464 -0.305731 0
M  V30 49 H -1.491490 -4.220542 0.524801 0
M  V30 50 H 0.675193 -4.817159 -0.259826 0
M  V30 51 H 1.578238 -3.838816 -2.357851 0
M  V30 52 H 0.181362 -2.247311 -3.596581 0
M  V30 53 H -2.008066 -1.681767 -2.793894 0
M  V30 END ATOM
M  V30 BEGIN BOND
M  V30 1 1 1 2
M  V30 2 1 2 3
M  V30 3 2 3 4
M  V30 4 1 3 5
M  V30 5 2 5 6
M  V30 6 1 6 7
M  V30 7 2 7 8
M  V30 8 1 8 9
M  V30 9 2 9 10
M  V30 10 1 10 11
M  V30 11 2 11 12
M  V30 12 1 6 13
M  V30 13 2 13 14
M  V30 14 1 14 15
M  V30 15 1 15 16
M  V30 16 2 15 17
M  V30 17 1 17 18
M  V30 18 2 18 19
M  V30 19 1 19 20
M  V30 20 2 20 21
M  V30 21 1 20 22
M  V30 22 1 22 23
M  V30 23 1 23 24
M  V30 24 1 24 25
M  V30 25 1 25 26
M  V30 26 2 26 27
M  V30 27 1 27 28
M  V30 28 2 28 29
M  V30 29 1 29 30
M  V30 30 2 30 31
M  V30 31 1 22 5
M  V30 32 1 31 26
M  V30 33 1 12 7
M  V30 34 1 19 13
M  V30 35 1 1 32
M  V30 36 1 1 33
M  V30 37 1 1 34
M  V30 38 1 8 35
M  V30 39 1 9 36
M  V30 40 1 10 37
M  V30 41 1 11 38
M  V30 42 1 12 39
M  V30 43 1 14 40
M  V30 44 1 17 41
M  V30 45 1 18 42
M  V30 46 1 23 43
M  V30 47 1 23 44
M  V30 48 1 24 45
M  V30 49 1 24 46
M  V30 50 1 25 47
M  V30 51 1 25 48
M  V30 52 1 27 49
M  V30 53 1 28 50
M  V30 54 1 29 51
M  V30 55 1 30 52
M  V30 56 1 31 53
M  V30 END BOND
M  V30 END CTAB
M  END
>  <Dataset>  (937) 
ChEMBL_Kinases

>  <Ligand_Instance>  (937) 
nan

>  <PDB_ID>  (937) 
nan

>  <Standardized_SMILES>  (937) 
COC(=O)c1c(-c2ccccc2)c2cc(Br)ccc2c(=O)n1CCCc1ccccc1

>  <Name>  (937) 
nan

>  <Pocket>  (937) 
nan

>  <ATP_Site>  (937) 
nan

>  <Peripheral>  (937) 
nan

>  <Num_H_Atoms_ProtBoundConf>  (937) 
nan

>  <Num_Resolved_Atoms>  (937) 
nan

>  <Num_Not_Resolved_Atoms>  (937) 
nan

$$$$
CHEMBL4094277
     RDKit          3D

  0  0  0  0  0  0  0  0  0  0999 V3000
M  V30 BEGIN CTAB
M  V30 COUNTS 42 45 0 0 0
M  V30 BEGIN ATOM
M  V30 1 N 0.207298 -5.712459 2.394426 0
M  V30 2 C 1.254429 -5.006466 3.050310 0
M  V30 3 O 1.996277 -5.491662 3.944555 0
M  V30 4 C 1.524994 -3.629517 2.699017 0
M  V30 5 C 2.515187 -2.893759 3.289709 0
M  V30 6 N 2.611104 -1.652749 2.837529 0
M  V30 7 C 1.916874 -1.015882 1.921534 0
M  V30 8 N 2.274642 0.348927 1.636478 0
M  V30 9 C 1.839547 1.419917 0.830217 0 CFG=1
M  V30 10 C 0.499710 1.948493 1.335081 0
M  V30 11 C -0.028017 2.835467 0.230944 0
M  V30 12 C 1.046960 3.815189 -0.198488 0
M  V30 13 N 2.136520 3.854749 0.754461 0
M  V30 14 C 2.790169 2.607712 0.974504 0
M  V30 15 C 0.898490 -1.680657 1.273051 0
M  V30 16 C 0.031083 -1.325853 0.308507 0
M  V30 17 C -0.900511 -2.189035 -0.182490 0
M  V30 18 C -1.930354 -2.050412 -1.203618 0
M  V30 19 C -2.196821 -0.916886 -1.947953 0
M  V30 20 N -3.227154 -1.247685 -2.764331 0
M  V30 21 N -3.576649 -2.503438 -2.541085 0
M  V30 22 C -2.796479 -3.052107 -1.573387 0
M  V30 23 S -0.609916 -3.680383 0.741102 0
M  V30 24 C 0.765392 -2.991213 1.721513 0
M  V30 25 H -0.757392 -5.616551 2.786646 0
M  V30 26 H 0.381557 -6.311743 1.546559 0
M  V30 27 H 3.148631 -3.308093 4.052997 0
M  V30 28 H 3.125831 0.683274 2.188746 0
M  V30 29 H 1.778829 1.117047 -0.241783 0
M  V30 30 H 0.712705 2.610501 2.212081 0
M  V30 31 H -0.199250 1.190453 1.656196 0
M  V30 32 H -0.286875 2.219760 -0.639351 0
M  V30 33 H -0.944226 3.339849 0.578379 0
M  V30 34 H 1.412759 3.634566 -1.227507 0
M  V30 35 H 0.584107 4.823544 -0.194249 0
M  V30 36 H 1.966467 4.444339 1.576608 0
M  V30 37 H 3.076497 2.588559 2.065752 0
M  V30 38 H 3.716897 2.448677 0.386004 0
M  V30 39 H -0.023234 -0.362387 -0.171329 0
M  V30 40 H -1.673668 0.023806 -1.871418 0
M  V30 41 H -4.346434 -3.040920 -3.024026 0
M  V30 42 H -2.851085 -4.067518 -1.180176 0
M  V30 END ATOM
M  V30 BEGIN BOND
M  V30 1 1 1 2
M  V30 2 2 2 3
M  V30 3 1 2 4
M  V30 4 2 4 5
M  V30 5 1 5 6
M  V30 6 2 6 7
M  V30 7 1 7 8
M  V30 8 1 8 9
M  V30 9 1 9 10
M  V30 10 1 10 11
M  V30 11 1 11 12
M  V30 12 1 12 13
M  V30 13 1 13 14
M  V30 14 1 7 15
M  V30 15 1 15 16
M  V30 16 2 16 17
M  V30 17 1 17 18
M  V30 18 1 18 19
M  V30 19 2 19 20
M  V30 20 1 20 21
M  V30 21 1 21 22
M  V30 22 1 17 23
M  V30 23 1 23 24
M  V30 24 1 24 4
M  V30 25 1 14 9
M  V30 26 2 24 15
M  V30 27 2 22 18
M  V30 28 1 1 25
M  V30 29 1 1 26
M  V30 30 1 5 27
M  V30 31 1 8 28
M  V30 32 1 9 29 CFG=3
M  V30 33 1 10 30
M  V30 34 1 10 31
M  V30 35 1 11 32
M  V30 36 1 11 33
M  V30 37 1 12 34
M  V30 38 1 12 35
M  V30 39 1 13 36
M  V30 40 1 14 37
M  V30 41 1 14 38
M  V30 42 1 16 39
M  V30 43 1 19 40
M  V30 44 1 21 41
M  V30 45 1 22 42
M  V30 END BOND
M  V30 END CTAB
M  END
>  <Dataset>  (938) 
ChEMBL_Kinases

>  <Ligand_Instance>  (938) 
nan

>  <PDB_ID>  (938) 
nan

>  <Standardized_SMILES>  (938) 
NC(=O)c1cnc(N[C@H]2CCCNC2)c2cc(-c3cn[nH]c3)sc12

>  <Name>  (938) 
nan

>  <Pocket>  (938) 
nan

>  <ATP_Site>  (938) 
nan

>  <Peripheral>  (938) 
nan

>  <Num_H_Atoms_ProtBoundConf>  (938) 
nan

>  <Num_Resolved_Atoms>  (938) 
nan

>  <Num_Not_Resolved_Atoms>  (938) 
nan

$$$$
CHEMBL4094260
     RDKit          3D

  0  0  0  0  0  0  0  0  0  0999 V3000
M  V30 BEGIN CTAB
M  V30 COUNTS 49 53 0 0 0
M  V30 BEGIN ATOM
M  V30 1 C 1.450632 -4.328551 0.505943 0
M  V30 2 O 1.637300 -2.907145 0.576886 0
M  V30 3 C 2.844657 -2.360797 0.166623 0
M  V30 4 C 3.839484 -3.221776 -0.312388 0
M  V30 5 C 5.080256 -2.794660 -0.736241 0
M  V30 6 C 5.317123 -1.438556 -0.668240 0
M  V30 7 C 4.388871 -0.531411 -0.209358 0
M  V30 8 N 4.627016 0.784577 -0.071480 0
M  V30 9 C 3.686108 1.621144 0.456475 0
M  V30 10 C 2.449306 1.091330 0.856186 0
M  V30 11 C 2.158812 -0.280406 0.724563 0
M  V30 12 N 0.865786 -0.505484 1.188939 0
M  V30 13 C -0.469204 -0.491003 0.720648 0
M  V30 14 C -1.214332 0.294560 1.631248 0
M  V30 15 C -2.538585 0.625033 1.535186 0
M  V30 16 C -3.313178 1.431263 2.465153 0
M  V30 17 C -2.828442 2.005828 3.618988 0
M  V30 18 C -3.553486 2.770627 4.505805 0
M  V30 19 Cl -2.816064 3.450706 5.949057 0
M  V30 20 C -4.884347 2.980755 4.213436 0
M  V30 21 C -5.428364 2.431253 3.071836 0
M  V30 22 C -4.644142 1.677996 2.231616 0
M  V30 23 F -5.234844 1.159815 1.118284 0
M  V30 24 N -3.184312 0.139557 0.448239 0
M  V30 25 C -2.536344 -0.608851 -0.450015 0
M  V30 26 C -1.209432 -0.925811 -0.332743 0
M  V30 27 C -0.478889 -1.706404 -1.343568 0
M  V30 28 C -0.848163 -3.144270 -1.520908 0
M  V30 29 C -1.104738 -2.101758 -2.604734 0
M  V30 30 C 3.176373 -1.026828 0.191278 0
M  V30 31 H 0.434368 -4.588906 0.831922 0
M  V30 32 H 2.163680 -4.852186 1.188979 0
M  V30 33 H 1.698175 -4.684989 -0.514365 0
M  V30 34 H 3.697952 -4.311785 -0.384319 0
M  V30 35 H 5.830857 -3.480905 -1.103019 0
M  V30 36 H 6.274268 -1.014343 -0.982895 0
M  V30 37 H 3.961757 2.659855 0.533654 0
M  V30 38 H 1.811424 1.894899 1.257030 0
M  V30 39 H 1.091682 -0.759124 2.174600 0
M  V30 40 H -0.821132 0.744452 2.542549 0
M  V30 41 H -1.792054 1.866512 3.885774 0
M  V30 42 H -5.488271 3.580901 4.892762 0
M  V30 43 H -6.473705 2.601606 2.850725 0
M  V30 44 H -3.118238 -0.954555 -1.280466 0
M  V30 45 H 0.619201 -1.420741 -1.465765 0
M  V30 46 H -1.709203 -3.519771 -0.927245 0
M  V30 47 H -0.119075 -3.903999 -1.866981 0
M  V30 48 H -0.525981 -2.142443 -3.551600 0
M  V30 49 H -2.177663 -1.912665 -2.762454 0
M  V30 END ATOM
M  V30 BEGIN BOND
M  V30 1 1 1 2
M  V30 2 1 2 3
M  V30 3 2 3 4
M  V30 4 1 4 5
M  V30 5 2 5 6
M  V30 6 1 6 7
M  V30 7 2 7 8
M  V30 8 1 8 9
M  V30 9 2 9 10
M  V30 10 1 10 11
M  V30 11 1 11 12
M  V30 12 1 12 13
M  V30 13 2 13 14
M  V30 14 1 14 15
M  V30 15 1 15 16
M  V30 16 2 16 17
M  V30 17 1 17 18
M  V30 18 1 18 19
M  V30 19 2 18 20
M  V30 20 1 20 21
M  V30 21 2 21 22
M  V30 22 1 22 23
M  V30 23 2 15 24
M  V30 24 1 24 25
M  V30 25 2 25 26
M  V30 26 1 26 27
M  V30 27 1 27 28
M  V30 28 1 28 29
M  V30 29 2 11 30
M  V30 30 1 30 3
M  V30 31 1 30 7
M  V30 32 1 26 13
M  V30 33 1 29 27
M  V30 34 1 22 16
M  V30 35 1 1 31
M  V30 36 1 1 32
M  V30 37 1 1 33
M  V30 38 1 4 34
M  V30 39 1 5 35
M  V30 40 1 6 36
M  V30 41 1 9 37
M  V30 42 1 10 38
M  V30 43 1 12 39
M  V30 44 1 14 40
M  V30 45 1 17 41
M  V30 46 1 20 42
M  V30 47 1 21 43
M  V30 48 1 25 44
M  V30 49 1 27 45
M  V30 50 1 28 46
M  V30 51 1 28 47
M  V30 52 1 29 48
M  V30 53 1 29 49
M  V30 END BOND
M  V30 END CTAB
M  END
>  <Dataset>  (939) 
ChEMBL_Kinases

>  <Ligand_Instance>  (939) 
nan

>  <PDB_ID>  (939) 
nan

>  <Standardized_SMILES>  (939) 
COc1cccc2nccc(Nc3cc(-c4cc(Cl)ccc4F)ncc3C3CC3)c12

>  <Name>  (939) 
nan

>  <Pocket>  (939) 
nan

>  <ATP_Site>  (939) 
nan

>  <Peripheral>  (939) 
nan

>  <Num_H_Atoms_ProtBoundConf>  (939) 
nan

>  <Num_Resolved_Atoms>  (939) 
nan

>  <Num_Not_Resolved_Atoms>  (939) 
nan

$$$$
CHEMBL482211
     RDKit          3D

  0  0  0  0  0  0  0  0  0  0999 V3000
M  V30 BEGIN CTAB
M  V30 COUNTS 52 54 0 0 0
M  V30 BEGIN ATOM
M  V30 1 C 2.026354 -3.251348 3.171285 0
M  V30 2 C 1.635244 -2.947293 1.743860 0
M  V30 3 C 2.599988 -2.061053 1.020588 0 CFG=2
M  V30 4 C 2.782009 -0.714233 1.657110 0
M  V30 5 O 3.285336 -0.759264 2.941250 0
M  V30 6 N 2.069822 -1.849491 -0.313241 0
M  V30 7 C 0.807553 -1.246096 -0.487036 0
M  V30 8 N 0.536001 0.039594 -0.627730 0
M  V30 9 C -0.688374 0.566409 -0.791088 0
M  V30 10 N -0.874397 1.962101 -0.936523 0
M  V30 11 C 0.068744 3.038141 -0.943043 0
M  V30 12 C 0.804586 3.105352 0.345995 0
M  V30 13 C 0.245513 3.844381 1.394147 0
M  V30 14 C 0.789869 4.020855 2.647859 0
M  V30 15 C 2.002540 3.410315 2.893259 0
M  V30 16 C 2.592856 2.671232 1.890892 0
M  V30 17 C 2.013491 2.523927 0.659109 0
M  V30 18 C -1.724314 -0.376190 -0.805115 0
M  V30 19 N -3.055234 -0.153739 -0.951276 0
M  V30 20 C -3.654932 -1.356322 -0.900687 0
M  V30 21 C -2.658870 -2.266236 -0.724860 0
M  V30 22 C -2.900368 -3.739843 -0.616090 0
M  V30 23 C -3.805197 -3.996718 0.593589 0
M  V30 24 C -3.667178 -4.187011 -1.836343 0
M  V30 25 N -1.451019 -1.680667 -0.662587 0
M  V30 26 N -0.219001 -2.113738 -0.506951 0
M  V30 27 H 2.991805 -3.769897 3.179905 0
M  V30 28 H 1.924017 -2.417794 3.864435 0
M  V30 29 H 1.281441 -4.026392 3.516997 0
M  V30 30 H 0.610843 -2.507871 1.686294 0
M  V30 31 H 1.609321 -3.911729 1.195073 0
M  V30 32 H 3.604137 -2.557508 0.981545 0
M  V30 33 H 1.805267 -0.191301 1.652598 0
M  V30 34 H 3.484532 -0.151775 1.010185 0
M  V30 35 H 3.878625 0.023580 3.060718 0
M  V30 36 H 2.407249 -2.044097 -1.268326 0
M  V30 37 H -1.903965 2.213327 -1.059747 0
M  V30 38 H 0.818718 2.933388 -1.759635 0
M  V30 39 H -0.463121 4.005290 -1.040890 0
M  V30 40 H -0.712955 4.328867 1.205057 0
M  V30 41 H 0.263931 4.615396 3.378343 0
M  V30 42 H 2.436143 3.543906 3.874599 0
M  V30 43 H 3.550006 2.184531 2.071931 0
M  V30 44 H 2.477437 1.950776 -0.125141 0
M  V30 45 H -4.728547 -1.434261 -0.995636 0
M  V30 46 H -1.952988 -4.273185 -0.481110 0
M  V30 47 H -4.855750 -3.879014 0.296721 0
M  V30 48 H -3.587177 -5.030363 0.931876 0
M  V30 49 H -3.530300 -3.282058 1.395092 0
M  V30 50 H -4.305476 -5.053579 -1.606489 0
M  V30 51 H -2.980632 -4.329146 -2.696525 0
M  V30 52 H -4.319242 -3.318699 -2.140554 0
M  V30 END ATOM
M  V30 BEGIN BOND
M  V30 1 1 1 2
M  V30 2 1 2 3
M  V30 3 1 3 4
M  V30 4 1 4 5
M  V30 5 1 3 6
M  V30 6 1 6 7
M  V30 7 1 7 8
M  V30 8 2 8 9
M  V30 9 1 9 10
M  V30 10 1 10 11
M  V30 11 1 11 12
M  V30 12 2 12 13
M  V30 13 1 13 14
M  V30 14 2 14 15
M  V30 15 1 15 16
M  V30 16 2 16 17
M  V30 17 1 9 18
M  V30 18 2 18 19
M  V30 19 1 19 20
M  V30 20 2 20 21
M  V30 21 1 21 22
M  V30 22 1 22 23
M  V30 23 1 22 24
M  V30 24 1 21 25
M  V30 25 1 25 26
M  V30 26 2 26 7
M  V30 27 1 17 12
M  V30 28 1 25 18
M  V30 29 1 1 27
M  V30 30 1 1 28
M  V30 31 1 1 29
M  V30 32 1 2 30
M  V30 33 1 2 31
M  V30 34 1 3 32 CFG=3
M  V30 35 1 4 33
M  V30 36 1 4 34
M  V30 37 1 5 35
M  V30 38 1 6 36
M  V30 39 1 10 37
M  V30 40 1 11 38
M  V30 41 1 11 39
M  V30 42 1 13 40
M  V30 43 1 14 41
M  V30 44 1 15 42
M  V30 45 1 16 43
M  V30 46 1 17 44
M  V30 47 1 20 45
M  V30 48 1 22 46
M  V30 49 1 23 47
M  V30 50 1 23 48
M  V30 51 1 23 49
M  V30 52 1 24 50
M  V30 53 1 24 51
M  V30 54 1 24 52
M  V30 END BOND
M  V30 END CTAB
M  END
>  <Dataset>  (940) 
ChEMBL_Kinases

>  <Ligand_Instance>  (940) 
nan

>  <PDB_ID>  (940) 
nan

>  <Standardized_SMILES>  (940) 
CC[C@H](CO)Nc1nc(NCc2ccccc2)c2ncc(C(C)C)n2n1

>  <Name>  (940) 
nan

>  <Pocket>  (940) 
nan

>  <ATP_Site>  (940) 
nan

>  <Peripheral>  (940) 
nan

>  <Num_H_Atoms_ProtBoundConf>  (940) 
nan

>  <Num_Resolved_Atoms>  (940) 
nan

>  <Num_Not_Resolved_Atoms>  (940) 
nan

$$$$
CHEMBL4094105
     RDKit          3D

  0  0  0  0  0  0  0  0  0  0999 V3000
M  V30 BEGIN CTAB
M  V30 COUNTS 55 59 0 0 0
M  V30 BEGIN ATOM
M  V30 1 N 8.415779 1.895033 -3.035308 0
M  V30 2 C 7.265637 2.266483 -2.285092 0
M  V30 3 O 7.239817 3.526719 -2.136858 0
M  V30 4 C 6.274358 1.329418 -1.770491 0
M  V30 5 C 6.404559 -0.017120 -1.991064 0
M  V30 6 C 5.424052 -0.835746 -1.471347 0
M  V30 7 C 4.340716 -0.371989 -0.754626 0
M  V30 8 C 4.270433 1.010751 -0.567263 0
M  V30 9 C 5.225179 1.879072 -1.065898 0
M  V30 10 C 3.238452 1.777670 0.148996 0
M  V30 11 O 3.370612 3.013646 0.302925 0
M  V30 12 C 2.024197 1.206593 0.720422 0
M  V30 13 C 1.398876 2.040197 1.637611 0
M  V30 14 C 0.236741 1.728727 2.314814 0
M  V30 15 C -0.336354 0.484647 2.046639 0
M  V30 16 N -1.534075 0.059890 2.686686 0
M  V30 17 C -2.237118 -1.169570 2.550854 0
M  V30 18 C -3.540874 -1.217695 2.105764 0
M  V30 19 C -4.270059 -2.349564 1.953091 0
M  V30 20 N -5.607265 -2.458643 1.501986 0
M  V30 21 C -6.508834 -1.440387 1.105001 0
M  V30 22 O -6.129113 -0.243893 1.134379 0
M  V30 23 C -7.883985 -1.638748 0.647939 0
M  V30 24 C -8.661574 -2.747128 1.279512 0
M  V30 25 C -8.207133 -2.887217 -0.121248 0
M  V30 26 C -3.620035 -3.510942 2.278273 0
M  V30 27 F -4.264487 -4.716120 2.161175 0
M  V30 28 C -2.320930 -3.513283 2.726185 0
M  V30 29 C -1.598421 -2.348127 2.873727 0
M  V30 30 F -0.320749 -2.417033 3.320976 0
M  V30 31 C 0.275562 -0.346772 1.140293 0
M  V30 32 C 1.439004 -0.017981 0.471764 0
M  V30 33 C 1.944588 -1.046361 -0.466120 0
M  V30 34 C 3.390931 -1.390784 -0.274529 0
M  V30 35 H 8.811468 0.935734 -2.933310 0
M  V30 36 H 8.901877 0.969864 -3.019760 0
M  V30 37 H 7.239284 -0.443726 -2.550834 0
M  V30 38 H 5.467038 -1.912992 -1.610387 0
M  V30 39 H 5.116529 2.946886 -0.887562 0
M  V30 40 H 1.855581 2.994167 1.830471 0
M  V30 41 H -0.224528 2.389234 3.016237 0
M  V30 42 H -1.983895 0.734274 3.362588 0
M  V30 43 H -3.980851 -0.264745 1.871224 0
M  V30 44 H -6.069543 -3.389484 1.421959 0
M  V30 45 H -8.414693 -0.693839 0.387377 0
M  V30 46 H -8.180182 -3.421331 2.014417 0
M  V30 47 H -9.726757 -2.555525 1.508874 0
M  V30 48 H -8.950816 -2.727854 -0.935974 0
M  V30 49 H -7.327097 -3.540824 -0.339987 0
M  V30 50 H -1.866001 -4.461262 2.965472 0
M  V30 51 H -0.091235 -1.331043 0.863955 0
M  V30 52 H 1.741601 -0.672633 -1.491239 0
M  V30 53 H 1.373411 -1.994957 -0.383653 0
M  V30 54 H 3.553786 -1.725660 0.755804 0
M  V30 55 H 3.561616 -2.308960 -0.907595 0
M  V30 END ATOM
M  V30 BEGIN BOND
M  V30 1 1 1 2
M  V30 2 2 2 3
M  V30 3 1 2 4
M  V30 4 2 4 5
M  V30 5 1 5 6
M  V30 6 2 6 7
M  V30 7 1 7 8
M  V30 8 2 8 9
M  V30 9 1 8 10
M  V30 10 2 10 11
M  V30 11 1 10 12
M  V30 12 2 12 13
M  V30 13 1 13 14
M  V30 14 2 14 15
M  V30 15 1 15 16
M  V30 16 1 16 17
M  V30 17 2 17 18
M  V30 18 1 18 19
M  V30 19 1 19 20
M  V30 20 1 20 21
M  V30 21 2 21 22
M  V30 22 1 21 23
M  V30 23 1 23 24
M  V30 24 1 24 25
M  V30 25 2 19 26
M  V30 26 1 26 27
M  V30 27 1 26 28
M  V30 28 2 28 29
M  V30 29 1 29 30
M  V30 30 1 15 31
M  V30 31 2 31 32
M  V30 32 1 32 33
M  V30 33 1 33 34
M  V30 34 1 9 4
M  V30 35 1 32 12
M  V30 36 1 34 7
M  V30 37 1 29 17
M  V30 38 1 25 23
M  V30 39 1 1 35
M  V30 40 1 1 36
M  V30 41 1 5 37
M  V30 42 1 6 38
M  V30 43 1 9 39
M  V30 44 1 13 40
M  V30 45 1 14 41
M  V30 46 1 16 42
M  V30 47 1 18 43
M  V30 48 1 20 44
M  V30 49 1 23 45
M  V30 50 1 24 46
M  V30 51 1 24 47
M  V30 52 1 25 48
M  V30 53 1 25 49
M  V30 54 1 28 50
M  V30 55 1 31 51
M  V30 56 1 33 52
M  V30 57 1 33 53
M  V30 58 1 34 54
M  V30 59 1 34 55
M  V30 END BOND
M  V30 END CTAB
M  END
>  <Dataset>  (941) 
ChEMBL_Kinases

>  <Ligand_Instance>  (941) 
nan

>  <PDB_ID>  (941) 
nan

>  <Standardized_SMILES>  (941) 
NC(=O)c1ccc2c(c1)C(=O)c1ccc(Nc3cc(NC(=O)C4CC4)c(F)cc3F)cc1CC2

>  <Name>  (941) 
nan

>  <Pocket>  (941) 
nan

>  <ATP_Site>  (941) 
nan

>  <Peripheral>  (941) 
nan

>  <Num_H_Atoms_ProtBoundConf>  (941) 
nan

>  <Num_Resolved_Atoms>  (941) 
nan

>  <Num_Not_Resolved_Atoms>  (941) 
nan

$$$$
CHEMBL482300
     RDKit          3D

  0  0  0  0  0  0  0  0  0  0999 V3000
M  V30 BEGIN CTAB
M  V30 COUNTS 59 63 0 0 0
M  V30 BEGIN ATOM
M  V30 1 C 1.916693 -0.414455 4.405362 0
M  V30 2 C 1.714398 -0.104939 2.938918 0 CFG=2
M  V30 3 N 1.450168 -1.316275 2.173400 0
M  V30 4 C 1.237207 -1.171251 0.758548 0
M  V30 5 N 2.221037 -1.226167 -0.153866 0
M  V30 6 C 1.893315 -1.075809 -1.451561 0
M  V30 7 C 0.596912 -0.869268 -1.876582 0
M  V30 8 C -0.400986 -0.815818 -0.924738 0
M  V30 9 C -1.843590 -0.606530 -1.161767 0
M  V30 10 C -2.454746 0.512344 -0.626563 0
M  V30 11 C -1.876037 1.590121 0.184811 0
M  V30 12 C -0.897004 2.283786 -0.520371 0
M  V30 13 C -0.223953 3.339617 0.059884 0
M  V30 14 C -0.532662 3.701919 1.350794 0
M  V30 15 F 0.110338 4.733859 1.947295 0
M  V30 16 C -1.510346 3.009407 2.055252 0
M  V30 17 C -2.181859 1.957331 1.479186 0
M  V30 18 N -3.764959 0.438994 -1.003436 0
M  V30 19 C -3.904079 -0.681630 -1.729613 0
M  V30 20 N -2.731790 -1.350360 -1.845188 0
M  V30 21 C -2.383590 -2.576924 -2.513322 0
M  V30 22 C -2.531740 -3.764311 -1.643079 0
M  V30 23 C -3.747456 -4.439829 -1.598834 0
M  V30 24 C -3.913761 -5.555752 -0.792525 0
M  V30 25 C -2.885329 -6.042481 -0.002476 0
M  V30 26 C -1.688063 -5.374868 -0.047881 0
M  V30 27 C -0.571040 -5.829516 0.752069 0
M  V30 28 N 0.325584 -6.209292 1.382772 0
M  V30 29 C -1.496492 -4.252718 -0.849075 0
M  V30 30 N -0.043429 -0.969794 0.369507 0
M  V30 31 C 2.941131 0.520615 2.348920 0
M  V30 32 C 3.041270 1.873976 2.082179 0
M  V30 33 C 4.214208 2.324171 1.542654 0
M  V30 34 C 5.244779 1.442805 1.282958 0
M  V30 35 C 5.129402 0.094264 1.555007 0
M  V30 36 C 3.959120 -0.393236 2.099739 0
M  V30 37 H 1.311389 -1.305928 4.663392 0
M  V30 38 H 1.510833 0.435407 5.008347 0
M  V30 39 H 2.971447 -0.547969 4.680545 0
M  V30 40 H 0.819691 0.532776 2.841788 0
M  V30 41 H 1.383295 -2.330760 2.483390 0
M  V30 42 H 2.627445 -1.107852 -2.241054 0
M  V30 43 H 0.264881 -0.741835 -2.887993 0
M  V30 44 H -0.578454 2.078084 -1.542978 0
M  V30 45 H 0.551496 3.904589 -0.469680 0
M  V30 46 H -1.777730 3.260273 3.056745 0
M  V30 47 H -2.957212 1.345708 1.922582 0
M  V30 48 H -4.826150 -1.035005 -2.180638 0
M  V30 49 H -3.089032 -2.700648 -3.382446 0
M  V30 50 H -1.386082 -2.483022 -2.938794 0
M  V30 51 H -4.582253 -4.089396 -2.205013 0
M  V30 52 H -4.873967 -6.065876 -0.775938 0
M  V30 53 H -2.968750 -6.908067 0.641259 0
M  V30 54 H -0.535236 -3.723853 -0.880042 0
M  V30 55 H 2.149601 2.433232 2.340909 0
M  V30 56 H 4.252110 3.403144 1.346605 0
M  V30 57 H 6.139715 1.880496 0.855573 0
M  V30 58 H 5.964827 -0.586372 1.338752 0
M  V30 59 H 3.884357 -1.444050 2.305859 0
M  V30 END ATOM
M  V30 BEGIN BOND
M  V30 1 1 1 2
M  V30 2 1 2 3
M  V30 3 1 3 4
M  V30 4 2 4 5
M  V30 5 1 5 6
M  V30 6 2 6 7
M  V30 7 1 7 8
M  V30 8 1 8 9
M  V30 9 2 9 10
M  V30 10 1 10 11
M  V30 11 2 11 12
M  V30 12 1 12 13
M  V30 13 2 13 14
M  V30 14 1 14 15
M  V30 15 1 14 16
M  V30 16 2 16 17
M  V30 17 1 10 18
M  V30 18 2 18 19
M  V30 19 1 19 20
M  V30 20 1 20 21
M  V30 21 1 21 22
M  V30 22 2 22 23
M  V30 23 1 23 24
M  V30 24 2 24 25
M  V30 25 1 25 26
M  V30 26 1 26 27
M  V30 27 3 27 28
M  V30 28 2 26 29
M  V30 29 2 8 30
M  V30 30 1 2 31
M  V30 31 2 31 32
M  V30 32 1 32 33
M  V30 33 2 33 34
M  V30 34 1 34 35
M  V30 35 2 35 36
M  V30 36 1 30 4
M  V30 37 1 36 31
M  V30 38 1 20 9
M  V30 39 1 29 22
M  V30 40 1 17 11
M  V30 41 1 1 37
M  V30 42 1 1 38
M  V30 43 1 1 39
M  V30 44 1 2 40 CFG=1
M  V30 45 1 3 41
M  V30 46 1 6 42
M  V30 47 1 7 43
M  V30 48 1 12 44
M  V30 49 1 13 45
M  V30 50 1 16 46
M  V30 51 1 17 47
M  V30 52 1 19 48
M  V30 53 1 21 49
M  V30 54 1 21 50
M  V30 55 1 23 51
M  V30 56 1 24 52
M  V30 57 1 25 53
M  V30 58 1 29 54
M  V30 59 1 32 55
M  V30 60 1 33 56
M  V30 61 1 34 57
M  V30 62 1 35 58
M  V30 63 1 36 59
M  V30 END BOND
M  V30 END CTAB
M  END
>  <Dataset>  (942) 
ChEMBL_Kinases

>  <Ligand_Instance>  (942) 
nan

>  <PDB_ID>  (942) 
nan

>  <Standardized_SMILES>  (942) 
C[C@H](Nc1nccc(-c2c(-c3ccc(F)cc3)ncn2Cc2cccc(C#N)c2)n1)c1ccccc1

>  <Name>  (942) 
nan

>  <Pocket>  (942) 
nan

>  <ATP_Site>  (942) 
nan

>  <Peripheral>  (942) 
nan

>  <Num_H_Atoms_ProtBoundConf>  (942) 
nan

>  <Num_Resolved_Atoms>  (942) 
nan

>  <Num_Not_Resolved_Atoms>  (942) 
nan

$$$$
CHEMBL4094066
     RDKit          3D

  0  0  0  0  0  0  0  0  0  0999 V3000
M  V30 BEGIN CTAB
M  V30 COUNTS 47 50 0 0 0
M  V30 BEGIN ATOM
M  V30 1 O 0.020890 -6.423438 1.695953 0
M  V30 2 C 0.338156 -5.229984 1.485495 0
M  V30 3 N 1.599851 -4.618997 1.670133 0
M  V30 4 C 1.486510 -3.254856 1.305365 0
M  V30 5 C 2.430949 -2.255237 1.312328 0
M  V30 6 C 2.062121 -1.002845 0.908666 0
M  V30 7 F 2.962743 -0.009187 0.902690 0
M  V30 8 C 0.810854 -0.639835 0.487629 0
M  V30 9 C 0.264195 0.616122 0.039122 0
M  V30 10 O -0.913117 0.821971 -0.337038 0
M  V30 11 N 1.003096 1.823845 -0.039943 0
M  V30 12 C 0.758991 3.172993 -0.425417 0 CFG=2
M  V30 13 C 1.631429 3.682951 -1.539139 0
M  V30 14 O 2.983501 3.635452 -1.199897 0
M  V30 15 C 0.892328 4.096698 0.742148 0
M  V30 16 C 1.931482 4.020599 1.655789 0
M  V30 17 C 2.060087 4.870266 2.732859 0
M  V30 18 C 1.121230 5.860071 2.940605 0
M  V30 19 C 0.091846 5.928609 2.027877 0
M  V30 20 C -0.068722 5.096512 0.939981 0
M  V30 21 C -0.127829 -1.680211 0.492007 0
M  V30 22 C 0.202365 -2.955001 0.890880 0
M  V30 23 C -0.542312 -4.203178 0.999372 0
M  V30 24 C -1.807607 -4.397763 0.697181 0
M  V30 25 C -2.610840 -5.605994 0.758755 0
M  V30 26 C -2.503765 -6.924534 0.371372 0
M  V30 27 C -3.592522 -7.654236 0.726050 0
M  V30 28 C -4.438375 -6.773717 1.367294 0
M  V30 29 N -3.822573 -5.582458 1.363970 0
M  V30 30 H 2.432043 -5.146978 2.020986 0
M  V30 31 H 3.453464 -2.405800 1.621081 0
M  V30 32 H 2.007018 1.874486 0.224613 0
M  V30 33 H -0.308964 3.220793 -0.762060 0
M  V30 34 H 1.395263 4.786131 -1.608790 0
M  V30 35 H 1.385942 3.278395 -2.518216 0
M  V30 36 H 3.501062 4.403468 -1.485512 0
M  V30 37 H 2.689409 3.261632 1.533414 0
M  V30 38 H 2.868252 4.815968 3.448375 0
M  V30 39 H 1.143387 6.571750 3.760250 0
M  V30 40 H -0.658879 6.710548 2.182993 0
M  V30 41 H -0.881383 5.162028 0.232369 0
M  V30 42 H -1.169004 -1.556614 0.185373 0
M  V30 43 H -2.338951 -3.497766 0.337006 0
M  V30 44 H -1.642707 -7.293642 -0.164647 0
M  V30 45 H -3.781784 -8.698141 0.555995 0
M  V30 46 H -5.392678 -7.069848 1.765152 0
M  V30 47 H -4.336367 -4.775299 1.821127 0
M  V30 END ATOM
M  V30 BEGIN BOND
M  V30 1 2 1 2
M  V30 2 1 2 3
M  V30 3 1 3 4
M  V30 4 2 4 5
M  V30 5 1 5 6
M  V30 6 1 6 7
M  V30 7 2 6 8
M  V30 8 1 8 9
M  V30 9 2 9 10
M  V30 10 1 9 11
M  V30 11 1 11 12
M  V30 12 1 12 13
M  V30 13 1 13 14
M  V30 14 1 12 15
M  V30 15 2 15 16
M  V30 16 1 16 17
M  V30 17 2 17 18
M  V30 18 1 18 19
M  V30 19 2 19 20
M  V30 20 1 8 21
M  V30 21 2 21 22
M  V30 22 1 22 23
M  V30 23 2 23 24
M  V30 24 1 24 25
M  V30 25 2 25 26
M  V30 26 1 26 27
M  V30 27 2 27 28
M  V30 28 1 28 29
M  V30 29 1 23 2
M  V30 30 1 29 25
M  V30 31 1 22 4
M  V30 32 1 20 15
M  V30 33 1 3 30
M  V30 34 1 5 31
M  V30 35 1 11 32
M  V30 36 1 12 33 CFG=3
M  V30 37 1 13 34
M  V30 38 1 13 35
M  V30 39 1 14 36
M  V30 40 1 16 37
M  V30 41 1 17 38
M  V30 42 1 18 39
M  V30 43 1 19 40
M  V30 44 1 20 41
M  V30 45 1 21 42
M  V30 46 1 24 43
M  V30 47 1 26 44
M  V30 48 1 27 45
M  V30 49 1 28 46
M  V30 50 1 29 47
M  V30 END BOND
M  V30 END CTAB
M  END
>  <Dataset>  (943) 
ChEMBL_Kinases

>  <Ligand_Instance>  (943) 
nan

>  <PDB_ID>  (943) 
nan

>  <Standardized_SMILES>  (943) 
O=C1Nc2cc(F)c(C(=O)N[C@H](CO)c3ccccc3)cc2/C1=C/c1ccc[nH]1

>  <Name>  (943) 
nan

>  <Pocket>  (943) 
nan

>  <ATP_Site>  (943) 
nan

>  <Peripheral>  (943) 
nan

>  <Num_H_Atoms_ProtBoundConf>  (943) 
nan

>  <Num_Resolved_Atoms>  (943) 
nan

>  <Num_Not_Resolved_Atoms>  (943) 
nan

$$$$
CHEMBL4093999
     RDKit          3D

  0  0  0  0  0  0  0  0  0  0999 V3000
M  V30 BEGIN CTAB
M  V30 COUNTS 44 47 0 0 0
M  V30 BEGIN ATOM
M  V30 1 C 0.112638 -5.930846 3.152538 0
M  V30 2 C -0.556192 -4.600544 3.171668 0
M  V30 3 C -0.428301 -3.449631 2.418435 0
M  V30 4 C -1.315871 -2.495248 2.869758 0
M  V30 5 N -1.446531 -1.177257 2.303397 0
M  V30 6 C -0.563767 -0.869550 1.248313 0
M  V30 7 N 0.594185 -0.174371 1.409663 0
M  V30 8 C 1.374328 0.052464 0.313328 0
M  V30 9 C 2.578734 0.822583 0.680013 0
M  V30 10 O 3.514610 0.363526 1.394065 0
M  V30 11 N 2.394862 2.110639 0.055656 0
M  V30 12 C 1.361503 2.709982 -0.773171 0
M  V30 13 C 1.211729 4.158753 -0.451864 0
M  V30 14 N 1.553654 4.501542 0.905224 0
M  V30 15 C 2.947428 4.205034 1.191159 0
M  V30 16 C 3.447364 3.092001 0.263623 0
M  V30 17 N 1.078433 -0.367753 -0.935337 0
M  V30 18 C -0.085644 -1.064902 -1.089927 0
M  V30 19 C -0.352371 -1.479117 -2.377507 0
M  V30 20 C -1.540163 -2.190377 -2.517801 0
M  V30 21 C -2.402426 -2.478060 -1.490389 0
M  V30 22 Cl -3.868399 -3.383944 -1.794317 0
M  V30 23 C -2.066446 -2.030726 -0.236699 0
M  V30 24 C -0.908484 -1.318692 -0.008194 0
M  V30 25 N -1.973400 -3.071163 3.889750 0
M  V30 26 N -1.536960 -4.309325 4.078726 0
M  V30 27 H 0.762245 -6.035931 2.269161 0
M  V30 28 H -0.675120 -6.716178 3.029146 0
M  V30 29 H 0.621503 -6.152174 4.106628 0
M  V30 30 H 0.290699 -3.398748 1.611795 0
M  V30 31 H -2.185933 -0.554816 2.720725 0
M  V30 32 H 1.617951 2.641660 -1.853336 0
M  V30 33 H 0.395269 2.189000 -0.637758 0
M  V30 34 H 0.161899 4.501595 -0.638254 0
M  V30 35 H 1.833872 4.805424 -1.106713 0
M  V30 36 H 0.900115 4.122567 1.602218 0
M  V30 37 H 3.072601 3.910818 2.242534 0
M  V30 38 H 3.552167 5.113688 1.007560 0
M  V30 39 H 3.782975 3.516658 -0.698984 0
M  V30 40 H 4.322778 2.664240 0.792259 0
M  V30 41 H 0.315205 -1.263093 -3.199528 0
M  V30 42 H -1.805153 -2.546361 -3.516997 0
M  V30 43 H -2.710286 -2.227117 0.620274 0
M  V30 44 H -1.979411 -4.867067 4.856747 0
M  V30 END ATOM
M  V30 BEGIN BOND
M  V30 1 1 1 2
M  V30 2 2 2 3
M  V30 3 1 3 4
M  V30 4 1 4 5
M  V30 5 1 5 6
M  V30 6 2 6 7
M  V30 7 1 7 8
M  V30 8 1 8 9
M  V30 9 2 9 10
M  V30 10 1 9 11
M  V30 11 1 11 12
M  V30 12 1 12 13
M  V30 13 1 13 14
M  V30 14 1 14 15
M  V30 15 1 15 16
M  V30 16 2 8 17
M  V30 17 1 17 18
M  V30 18 2 18 19
M  V30 19 1 19 20
M  V30 20 2 20 21
M  V30 21 1 21 22
M  V30 22 1 21 23
M  V30 23 2 23 24
M  V30 24 2 4 25
M  V30 25 1 25 26
M  V30 26 1 26 2
M  V30 27 1 24 6
M  V30 28 1 16 11
M  V30 29 1 24 18
M  V30 30 1 1 27
M  V30 31 1 1 28
M  V30 32 1 1 29
M  V30 33 1 3 30
M  V30 34 1 5 31
M  V30 35 1 12 32
M  V30 36 1 12 33
M  V30 37 1 13 34
M  V30 38 1 13 35
M  V30 39 1 14 36
M  V30 40 1 15 37
M  V30 41 1 15 38
M  V30 42 1 16 39
M  V30 43 1 16 40
M  V30 44 1 19 41
M  V30 45 1 20 42
M  V30 46 1 23 43
M  V30 47 1 26 44
M  V30 END BOND
M  V30 END CTAB
M  END
>  <Dataset>  (944) 
ChEMBL_Kinases

>  <Ligand_Instance>  (944) 
nan

>  <PDB_ID>  (944) 
nan

>  <Standardized_SMILES>  (944) 
Cc1cc(Nc2nc(C(=O)N3CCNCC3)nc3ccc(Cl)cc23)n[nH]1

>  <Name>  (944) 
nan

>  <Pocket>  (944) 
nan

>  <ATP_Site>  (944) 
nan

>  <Peripheral>  (944) 
nan

>  <Num_H_Atoms_ProtBoundConf>  (944) 
nan

>  <Num_Resolved_Atoms>  (944) 
nan

>  <Num_Not_Resolved_Atoms>  (944) 
nan

$$$$
CHEMBL4094549
     RDKit          3D

  0  0  0  0  0  0  0  0  0  0999 V3000
M  V30 BEGIN CTAB
M  V30 COUNTS 29 31 0 0 0
M  V30 BEGIN ATOM
M  V30 1 N -2.434774 -3.286293 3.616499 0
M  V30 2 C -1.195859 -3.226264 2.917855 0
M  V30 3 C -0.715761 -2.092574 2.296701 0
M  V30 4 C 0.474834 -2.034582 1.625327 0
M  V30 5 C 0.971568 -0.826828 0.971926 0
M  V30 6 C 2.281892 -0.422884 1.108376 0
M  V30 7 N 2.455894 0.716265 0.400543 0
M  V30 8 C 1.290384 1.035951 -0.174930 0
M  V30 9 C 0.834559 2.049354 -0.993996 0
M  V30 10 N 1.777251 3.055617 -1.374393 0 CHG=1 VAL=4
M  V30 11 O 3.007552 2.972571 -1.558966 0
M  V30 12 O 1.565912 4.393398 -1.638329 0 CHG=-1 VAL=1
M  V30 13 C -0.455509 2.164442 -1.471174 0
M  V30 14 C -1.373162 1.176638 -1.095300 0
M  V30 15 C -0.980528 0.127229 -0.271765 0
M  V30 16 C 0.327155 0.086074 0.161433 0
M  V30 17 C 1.243367 -3.180078 1.565310 0
M  V30 18 C 0.769827 -4.337845 2.190494 0
M  V30 19 N -0.409401 -4.339039 2.837685 0
M  V30 20 H -2.701035 -2.362537 4.029356 0
M  V30 21 H -2.909988 -4.190737 3.637416 0
M  V30 22 H -1.315821 -1.206307 2.346193 0
M  V30 23 H 3.150970 -0.800611 1.630718 0
M  V30 24 H 3.286194 1.329808 0.247921 0
M  V30 25 H -0.746882 2.986922 -2.111574 0
M  V30 26 H -2.404295 1.215156 -1.440856 0
M  V30 27 H -1.678090 -0.657569 0.036576 0
M  V30 28 H 2.192890 -3.194982 1.049217 0
M  V30 29 H 1.413752 -5.202694 2.110432 0
M  V30 END ATOM
M  V30 BEGIN BOND
M  V30 1 1 1 2
M  V30 2 2 2 3
M  V30 3 1 3 4
M  V30 4 1 4 5
M  V30 5 2 5 6
M  V30 6 1 6 7
M  V30 7 1 7 8
M  V30 8 2 8 9
M  V30 9 1 9 10
M  V30 10 2 10 11
M  V30 11 1 10 12
M  V30 12 1 9 13
M  V30 13 2 13 14
M  V30 14 1 14 15
M  V30 15 2 15 16
M  V30 16 2 4 17
M  V30 17 1 17 18
M  V30 18 2 18 19
M  V30 19 1 19 2
M  V30 20 1 16 5
M  V30 21 1 16 8
M  V30 22 1 1 20
M  V30 23 1 1 21
M  V30 24 1 3 22
M  V30 25 1 6 23
M  V30 26 1 7 24
M  V30 27 1 13 25
M  V30 28 1 14 26
M  V30 29 1 15 27
M  V30 30 1 17 28
M  V30 31 1 18 29
M  V30 END BOND
M  V30 END CTAB
M  END
>  <Dataset>  (945) 
ChEMBL_Kinases

>  <Ligand_Instance>  (945) 
nan

>  <PDB_ID>  (945) 
nan

>  <Standardized_SMILES>  (945) 
Nc1cc(-c2c[nH]c3c([N+](=O)[O-])cccc23)ccn1

>  <Name>  (945) 
nan

>  <Pocket>  (945) 
nan

>  <ATP_Site>  (945) 
nan

>  <Peripheral>  (945) 
nan

>  <Num_H_Atoms_ProtBoundConf>  (945) 
nan

>  <Num_Resolved_Atoms>  (945) 
nan

>  <Num_Not_Resolved_Atoms>  (945) 
nan

$$$$
CHEMBL4848696
     RDKit          3D

  0  0  0  0  0  0  0  0  0  0999 V3000
M  V30 BEGIN CTAB
M  V30 COUNTS 34 37 0 0 0
M  V30 BEGIN ATOM
M  V30 1 C -3.553958 -0.793424 1.709431 0
M  V30 2 N -2.575071 -1.663275 1.081658 0
M  V30 3 C -1.211578 -1.537027 1.479572 0
M  V30 4 N -0.697098 -2.250929 2.493292 0
M  V30 5 C 0.612980 -2.110884 2.854526 0
M  V30 6 C 1.307315 -1.201090 2.098534 0
M  V30 7 C 0.865858 -0.438614 1.058741 0
M  V30 8 C 1.535534 0.525749 0.230974 0
M  V30 9 C 0.839045 1.181484 -0.791659 0
M  V30 10 N 1.673727 2.026687 -1.418004 0
M  V30 11 N 2.876180 1.986810 -0.892575 0
M  V30 12 N 4.020312 2.601721 -1.133778 0
M  V30 13 C 5.147796 2.382746 -0.434815 0
M  V30 14 C 5.079780 1.445480 0.602218 0
M  V30 15 C 3.877920 0.820998 0.831228 0
M  V30 16 C 2.769854 1.093301 0.079456 0
M  V30 17 N -0.421542 -0.678489 0.819684 0
M  V30 18 C -2.947466 -2.643638 0.073564 0
M  V30 19 C -3.582435 -2.049710 -1.143273 0
M  V30 20 C -4.345135 -2.952703 -0.219737 0
M  V30 21 H -3.585793 -0.979541 2.812405 0
M  V30 22 H -4.541962 -0.859688 1.249202 0
M  V30 23 H -3.188313 0.272549 1.630893 0
M  V30 24 H 1.077029 -2.658358 3.659496 0
M  V30 25 H 2.331043 -1.106864 2.397827 0
M  V30 26 H -0.191608 1.160620 -1.179496 0
M  V30 27 H 6.072843 2.899570 -0.652161 0
M  V30 28 H 5.984128 1.251744 1.183416 0
M  V30 29 H 3.904439 0.126872 1.630094 0
M  V30 30 H -2.196104 -3.457652 -0.091729 0
M  V30 31 H -3.222609 -2.406852 -2.125916 0
M  V30 32 H -3.936605 -1.005723 -1.135647 0
M  V30 33 H -4.567382 -3.970100 -0.634914 0
M  V30 34 H -5.212733 -2.555252 0.335733 0
M  V30 END ATOM
M  V30 BEGIN BOND
M  V30 1 1 1 2
M  V30 2 1 2 3
M  V30 3 2 3 4
M  V30 4 1 4 5
M  V30 5 2 5 6
M  V30 6 1 6 7
M  V30 7 1 7 8
M  V30 8 1 8 9
M  V30 9 2 9 10
M  V30 10 1 10 11
M  V30 11 1 11 12
M  V30 12 2 12 13
M  V30 13 1 13 14
M  V30 14 2 14 15
M  V30 15 1 15 16
M  V30 16 2 7 17
M  V30 17 1 2 18
M  V30 18 1 18 19
M  V30 19 1 19 20
M  V30 20 1 17 3
M  V30 21 1 20 18
M  V30 22 2 16 8
M  V30 23 1 16 11
M  V30 24 1 1 21
M  V30 25 1 1 22
M  V30 26 1 1 23
M  V30 27 1 5 24
M  V30 28 1 6 25
M  V30 29 1 9 26
M  V30 30 1 13 27
M  V30 31 1 14 28
M  V30 32 1 15 29
M  V30 33 1 18 30
M  V30 34 1 19 31
M  V30 35 1 19 32
M  V30 36 1 20 33
M  V30 37 1 20 34
M  V30 END BOND
M  V30 END CTAB
M  END
>  <Dataset>  (946) 
ChEMBL_Kinases

>  <Ligand_Instance>  (946) 
nan

>  <PDB_ID>  (946) 
nan

>  <Standardized_SMILES>  (946) 
CN(c1nccc(-c2cnn3ncccc23)n1)C1CC1

>  <Name>  (946) 
nan

>  <Pocket>  (946) 
nan

>  <ATP_Site>  (946) 
nan

>  <Peripheral>  (946) 
nan

>  <Num_H_Atoms_ProtBoundConf>  (946) 
nan

>  <Num_Resolved_Atoms>  (946) 
nan

>  <Num_Not_Resolved_Atoms>  (946) 
nan

$$$$
CHEMBL4848718
     RDKit          3D

  0  0  0  0  0  0  0  0  0  0999 V3000
M  V30 BEGIN CTAB
M  V30 COUNTS 47 50 0 0 0
M  V30 BEGIN ATOM
M  V30 1 C -1.881875 -3.241072 1.279845 0
M  V30 2 C -2.926303 -2.251250 1.552150 0
M  V30 3 C -2.762164 -0.956426 1.129752 0
M  V30 4 C -1.787138 -0.159161 0.424937 0
M  V30 5 O -1.855427 1.081890 0.135182 0
M  V30 6 N -0.548916 -0.627091 -0.083035 0
M  V30 7 C 0.389245 0.188738 -0.773923 0
M  V30 8 C 0.280018 0.286553 -2.156511 0
M  V30 9 C 1.148147 1.055687 -2.903651 0
M  V30 10 C 2.155647 1.744719 -2.225879 0
M  V30 11 C 2.251865 1.637254 -0.846317 0
M  V30 12 C 3.249635 2.298311 -0.013171 0
M  V30 13 N 3.531286 3.602530 0.258687 0
M  V30 14 N 4.569529 3.640481 1.104278 0
M  V30 15 C 4.936332 2.387780 1.361465 0
M  V30 16 N 4.132328 1.528648 0.679415 0
M  V30 17 C 4.271773 0.090356 0.745603 0
M  V30 18 C 4.592546 -0.283654 2.182549 0
M  V30 19 C 5.422256 -0.410615 -0.100890 0
M  V30 20 N 1.377517 0.875946 -0.195041 0
M  V30 21 N -3.891204 -0.301385 1.532774 0
M  V30 22 C -4.699194 -1.164102 2.169674 0
M  V30 23 C -5.948277 -1.075325 2.781970 0
M  V30 24 C -6.547558 -2.167136 3.372629 0
M  V30 25 C -5.921577 -3.395601 3.375642 0
M  V30 26 C -4.667127 -3.551763 2.778249 0
M  V30 27 C -4.127659 -2.417741 2.206976 0
M  V30 28 H -2.238449 -4.222777 1.722588 0
M  V30 29 H -0.943069 -3.019580 1.822189 0
M  V30 30 H -1.728601 -3.477512 0.202665 0
M  V30 31 H -0.270478 -1.623517 0.035735 0
M  V30 32 H -0.512099 -0.257612 -2.670952 0
M  V30 33 H 1.099521 1.159878 -3.979389 0
M  V30 34 H 2.896638 2.381341 -2.712791 0
M  V30 35 H 5.757881 2.086513 2.019694 0
M  V30 36 H 3.354812 -0.448162 0.483141 0
M  V30 37 H 4.443296 -1.347324 2.397593 0
M  V30 38 H 3.949255 0.368483 2.812020 0
M  V30 39 H 5.647737 0.027996 2.377889 0
M  V30 40 H 6.364986 0.081004 0.187230 0
M  V30 41 H 5.172931 -0.277061 -1.166242 0
M  V30 42 H 5.530674 -1.495025 0.159871 0
M  V30 43 H -4.213695 0.695793 1.435877 0
M  V30 44 H -6.443637 -0.132005 2.787128 0
M  V30 45 H -7.526644 -2.119754 3.858381 0
M  V30 46 H -6.367634 -4.267277 3.830725 0
M  V30 47 H -4.127043 -4.474246 2.744884 0
M  V30 END ATOM
M  V30 BEGIN BOND
M  V30 1 1 1 2
M  V30 2 2 2 3
M  V30 3 1 3 4
M  V30 4 2 4 5
M  V30 5 1 4 6
M  V30 6 1 6 7
M  V30 7 2 7 8
M  V30 8 1 8 9
M  V30 9 2 9 10
M  V30 10 1 10 11
M  V30 11 1 11 12
M  V30 12 2 12 13
M  V30 13 1 13 14
M  V30 14 2 14 15
M  V30 15 1 15 16
M  V30 16 1 16 17
M  V30 17 1 17 18
M  V30 18 1 17 19
M  V30 19 2 11 20
M  V30 20 1 3 21
M  V30 21 1 21 22
M  V30 22 2 22 23
M  V30 23 1 23 24
M  V30 24 2 24 25
M  V30 25 1 25 26
M  V30 26 2 26 27
M  V30 27 1 27 2
M  V30 28 1 20 7
M  V30 29 1 27 22
M  V30 30 1 16 12
M  V30 31 1 1 28
M  V30 32 1 1 29
M  V30 33 1 1 30
M  V30 34 1 6 31
M  V30 35 1 8 32
M  V30 36 1 9 33
M  V30 37 1 10 34
M  V30 38 1 15 35
M  V30 39 1 17 36
M  V30 40 1 18 37
M  V30 41 1 18 38
M  V30 42 1 18 39
M  V30 43 1 19 40
M  V30 44 1 19 41
M  V30 45 1 19 42
M  V30 46 1 21 43
M  V30 47 1 23 44
M  V30 48 1 24 45
M  V30 49 1 25 46
M  V30 50 1 26 47
M  V30 END BOND
M  V30 END CTAB
M  END
>  <Dataset>  (947) 
ChEMBL_Kinases

>  <Ligand_Instance>  (947) 
nan

>  <PDB_ID>  (947) 
nan

>  <Standardized_SMILES>  (947) 
Cc1c(C(=O)Nc2cccc(-c3nncn3C(C)C)n2)[nH]c2ccccc12

>  <Name>  (947) 
nan

>  <Pocket>  (947) 
nan

>  <ATP_Site>  (947) 
nan

>  <Peripheral>  (947) 
nan

>  <Num_H_Atoms_ProtBoundConf>  (947) 
nan

>  <Num_Resolved_Atoms>  (947) 
nan

>  <Num_Not_Resolved_Atoms>  (947) 
nan

$$$$
CHEMBL4848753
     RDKit          3D

  0  0  0  0  0  0  0  0  0  0999 V3000
M  V30 BEGIN CTAB
M  V30 COUNTS 56 60 0 0 0
M  V30 BEGIN ATOM
M  V30 1 O 0.301431 -5.756859 0.753813 0
M  V30 2 C 0.401863 -4.757320 0.035545 0
M  V30 3 C 1.183094 -3.554044 0.394537 0
M  V30 4 C 2.521171 -3.243528 0.335705 0
M  V30 5 C 2.965047 -1.990119 0.699945 0
M  V30 6 C 2.071481 -1.046570 1.123450 0
M  V30 7 C 2.541208 0.316694 1.433722 0
M  V30 8 C 3.854186 0.678505 1.202170 0
M  V30 9 C 4.215138 1.979416 1.432983 0
M  V30 10 C 3.268367 2.859808 1.882578 0
M  V30 11 N 3.596929 4.160554 2.088160 0
M  V30 12 C 2.698851 5.041548 2.498120 0
M  V30 13 N 1.432759 4.720770 2.736761 0
M  V30 14 C 0.985653 3.452306 2.566858 0
M  V30 15 N -0.259583 2.842593 2.763554 0
M  V30 16 C -1.422007 2.255883 2.265139 0
M  V30 17 C -1.593129 1.932827 0.923713 0
M  V30 18 C -2.749063 1.332172 0.481567 0
M  V30 19 C -3.703399 1.088388 1.473816 0
M  V30 20 C -4.970563 0.427114 1.085770 0
M  V30 21 F -5.579364 1.197944 0.106277 0
M  V30 22 F -5.843514 0.281570 2.133823 0
M  V30 23 F -4.716544 -0.822207 0.502106 0
M  V30 24 C -3.576834 1.392773 2.802275 0
M  V30 25 C -2.411786 1.990283 3.219122 0
M  V30 26 C 1.940744 2.520240 2.127850 0
M  V30 27 N 1.668797 1.229944 1.875090 0
M  V30 28 C 0.725964 -1.318864 1.197937 0
M  V30 29 C 0.260370 -2.583942 0.831207 0
M  V30 30 N -0.216784 -4.590683 -1.259777 0
M  V30 31 C -1.080377 -5.551951 -1.958676 0
M  V30 32 C -2.141194 -4.722198 -2.691617 0
M  V30 33 N -1.485368 -4.125006 -3.843432 0
M  V30 34 C -0.108236 -3.764618 -3.526045 0
M  V30 35 C -0.025824 -3.379795 -2.059973 0
M  V30 36 H 3.066117 -4.091381 -0.013859 0
M  V30 37 H 4.022775 -1.855040 0.620894 0
M  V30 38 H 4.620484 0.022260 0.850284 0
M  V30 39 H 5.224078 2.379350 1.292396 0
M  V30 40 H 3.031461 6.048062 2.642150 0
M  V30 41 H -0.136791 2.925945 3.819912 0
M  V30 42 H -0.821116 2.146654 0.210480 0
M  V30 43 H -2.965462 1.036570 -0.537511 0
M  V30 44 H -4.349563 1.174450 3.509964 0
M  V30 45 H -2.331083 2.225704 4.277609 0
M  V30 46 H 0.084507 -0.526776 1.541472 0
M  V30 47 H -0.815051 -2.659856 0.931502 0
M  V30 48 H -1.604163 -6.216481 -1.235785 0
M  V30 49 H -0.520188 -6.112860 -2.713598 0
M  V30 50 H -2.563629 -3.983116 -1.990777 0
M  V30 51 H -2.940111 -5.389526 -3.067566 0
M  V30 52 H -2.016327 -3.292727 -4.203845 0
M  V30 53 H 0.526913 -4.665538 -3.680217 0
M  V30 54 H 0.221547 -2.886796 -4.145688 0
M  V30 55 H -0.816142 -2.674337 -1.780728 0
M  V30 56 H 0.955767 -2.904057 -1.838317 0
M  V30 END ATOM
M  V30 BEGIN BOND
M  V30 1 2 1 2
M  V30 2 1 2 3
M  V30 3 2 3 4
M  V30 4 1 4 5
M  V30 5 2 5 6
M  V30 6 1 6 7
M  V30 7 2 7 8
M  V30 8 1 8 9
M  V30 9 2 9 10
M  V30 10 1 10 11
M  V30 11 2 11 12
M  V30 12 1 12 13
M  V30 13 2 13 14
M  V30 14 1 14 15
M  V30 15 1 15 16
M  V30 16 2 16 17
M  V30 17 1 17 18
M  V30 18 2 18 19
M  V30 19 1 19 20
M  V30 20 1 20 21
M  V30 21 1 20 22
M  V30 22 1 20 23
M  V30 23 1 19 24
M  V30 24 2 24 25
M  V30 25 1 14 26
M  V30 26 2 26 27
M  V30 27 1 6 28
M  V30 28 2 28 29
M  V30 29 1 2 30
M  V30 30 1 30 31
M  V30 31 1 31 32
M  V30 32 1 32 33
M  V30 33 1 33 34
M  V30 34 1 34 35
M  V30 35 1 29 3
M  V30 36 1 35 30
M  V30 37 1 27 7
M  V30 38 1 26 10
M  V30 39 1 25 16
M  V30 40 1 4 36
M  V30 41 1 5 37
M  V30 42 1 8 38
M  V30 43 1 9 39
M  V30 44 1 12 40
M  V30 45 1 15 41
M  V30 46 1 17 42
M  V30 47 1 18 43
M  V30 48 1 24 44
M  V30 49 1 25 45
M  V30 50 1 28 46
M  V30 51 1 29 47
M  V30 52 1 31 48
M  V30 53 1 31 49
M  V30 54 1 32 50
M  V30 55 1 32 51
M  V30 56 1 33 52
M  V30 57 1 34 53
M  V30 58 1 34 54
M  V30 59 1 35 55
M  V30 60 1 35 56
M  V30 END BOND
M  V30 END CTAB
M  END
>  <Dataset>  (948) 
ChEMBL_Kinases

>  <Ligand_Instance>  (948) 
nan

>  <PDB_ID>  (948) 
nan

>  <Standardized_SMILES>  (948) 
O=C(c1ccc(-c2ccc3ncnc(Nc4ccc(C(F)(F)F)cc4)c3n2)cc1)N1CCNCC1

>  <Name>  (948) 
nan

>  <Pocket>  (948) 
nan

>  <ATP_Site>  (948) 
nan

>  <Peripheral>  (948) 
nan

>  <Num_H_Atoms_ProtBoundConf>  (948) 
nan

>  <Num_Resolved_Atoms>  (948) 
nan

>  <Num_Not_Resolved_Atoms>  (948) 
nan

$$$$
CHEMBL4848792
     RDKit          3D

  0  0  0  0  0  0  0  0  0  0999 V3000
M  V30 BEGIN CTAB
M  V30 COUNTS 49 52 0 0 0
M  V30 BEGIN ATOM
M  V30 1 C -0.811323 -2.218693 5.592765 0
M  V30 2 C -0.811001 -1.861388 4.117749 0
M  V30 3 C 0.284442 -2.562555 3.389204 0
M  V30 4 C 0.412472 -2.331635 2.014920 0
M  V30 5 C 1.481227 -3.083393 1.583781 0
M  V30 6 N 1.985390 -3.162962 0.248016 0
M  V30 7 C 1.331279 -2.394296 -0.760525 0
M  V30 8 N 1.676506 -1.120855 -1.081259 0
M  V30 9 C 1.030063 -0.429968 -2.043300 0
M  V30 10 N 1.408435 0.907649 -2.365172 0
M  V30 11 C 0.703508 1.888423 -1.591430 0
M  V30 12 C 0.954641 1.714243 -0.093941 0
M  V30 13 C 0.232515 2.719019 0.701651 0
M  V30 14 C -1.057615 2.502090 1.173534 0
M  V30 15 C -1.738148 3.445467 1.921433 0
M  V30 16 C -1.150459 4.655177 2.230526 0
M  V30 17 F -1.751134 5.630091 2.957926 0
M  V30 18 C 0.119146 4.882972 1.772875 0
M  V30 19 C 0.795847 3.934090 1.024081 0
M  V30 20 N 0.002742 -1.020179 -2.714435 0
M  V30 21 C -0.378917 -2.289414 -2.430287 0
M  V30 22 C -1.430659 -2.871160 -3.129010 0
M  V30 23 C -1.833587 -4.165723 -2.852321 0
M  V30 24 F -2.862275 -4.743983 -3.531149 0
M  V30 25 C -1.171998 -4.882975 -1.862575 0
M  V30 26 C -0.130237 -4.276985 -1.185582 0
M  V30 27 C 0.289913 -2.990890 -1.441691 0
M  V30 28 N 1.961879 -3.730939 2.665002 0
M  V30 29 N 1.256252 -3.426247 3.739311 0
M  V30 30 H -0.117658 -1.525663 6.120646 0
M  V30 31 H -0.457824 -3.241086 5.773687 0
M  V30 32 H -1.831357 -2.136705 6.030863 0
M  V30 33 H -1.820131 -2.161051 3.727164 0
M  V30 34 H -0.733122 -0.765948 3.965260 0
M  V30 35 H -0.180305 -1.694185 1.345538 0
M  V30 36 H 2.808132 -3.774791 0.053417 0
M  V30 37 H 2.130766 1.077265 -3.099187 0
M  V30 38 H 1.061494 2.904542 -1.859421 0
M  V30 39 H -0.397295 1.887415 -1.798241 0
M  V30 40 H 2.050990 1.938305 0.050381 0
M  V30 41 H 0.765254 0.677335 0.237875 0
M  V30 42 H -1.524978 1.544610 0.929854 0
M  V30 43 H -2.739355 3.265410 2.282017 0
M  V30 44 H 0.680496 5.803807 1.957176 0
M  V30 45 H 1.797589 4.091367 0.652374 0
M  V30 46 H -1.955885 -2.320920 -3.904912 0
M  V30 47 H -1.457024 -5.891925 -1.619415 0
M  V30 48 H 0.423161 -4.801668 -0.396061 0
M  V30 49 H 1.291047 -3.698542 4.746488 0
M  V30 END ATOM
M  V30 BEGIN BOND
M  V30 1 1 1 2
M  V30 2 1 2 3
M  V30 3 2 3 4
M  V30 4 1 4 5
M  V30 5 1 5 6
M  V30 6 1 6 7
M  V30 7 2 7 8
M  V30 8 1 8 9
M  V30 9 1 9 10
M  V30 10 1 10 11
M  V30 11 1 11 12
M  V30 12 1 12 13
M  V30 13 2 13 14
M  V30 14 1 14 15
M  V30 15 2 15 16
M  V30 16 1 16 17
M  V30 17 1 16 18
M  V30 18 2 18 19
M  V30 19 2 9 20
M  V30 20 1 20 21
M  V30 21 2 21 22
M  V30 22 1 22 23
M  V30 23 1 23 24
M  V30 24 2 23 25
M  V30 25 1 25 26
M  V30 26 2 26 27
M  V30 27 2 5 28
M  V30 28 1 28 29
M  V30 29 1 29 3
M  V30 30 1 27 7
M  V30 31 1 19 13
M  V30 32 1 27 21
M  V30 33 1 1 30
M  V30 34 1 1 31
M  V30 35 1 1 32
M  V30 36 1 2 33
M  V30 37 1 2 34
M  V30 38 1 4 35
M  V30 39 1 6 36
M  V30 40 1 10 37
M  V30 41 1 11 38
M  V30 42 1 11 39
M  V30 43 1 12 40
M  V30 44 1 12 41
M  V30 45 1 14 42
M  V30 46 1 15 43
M  V30 47 1 18 44
M  V30 48 1 19 45
M  V30 49 1 22 46
M  V30 50 1 25 47
M  V30 51 1 26 48
M  V30 52 1 29 49
M  V30 END BOND
M  V30 END CTAB
M  END
>  <Dataset>  (949) 
ChEMBL_Kinases

>  <Ligand_Instance>  (949) 
nan

>  <PDB_ID>  (949) 
nan

>  <Standardized_SMILES>  (949) 
CCc1cc(Nc2nc(NCCc3ccc(F)cc3)nc3cc(F)ccc23)n[nH]1

>  <Name>  (949) 
nan

>  <Pocket>  (949) 
nan

>  <ATP_Site>  (949) 
nan

>  <Peripheral>  (949) 
nan

>  <Num_H_Atoms_ProtBoundConf>  (949) 
nan

>  <Num_Resolved_Atoms>  (949) 
nan

>  <Num_Not_Resolved_Atoms>  (949) 
nan

$$$$
CHEMBL4848804
     RDKit          3D

  0  0  0  0  0  0  0  0  0  0999 V3000
M  V30 BEGIN CTAB
M  V30 COUNTS 57 61 0 0 0
M  V30 BEGIN ATOM
M  V30 1 C 0.829069 -4.038891 5.377959 0
M  V30 2 O 1.667463 -4.207663 4.233310 0
M  V30 3 C 1.884036 -3.093507 3.418052 0
M  V30 4 N 1.335041 -1.893665 3.678472 0
M  V30 5 C 1.566736 -0.828115 2.863227 0
M  V30 6 C 2.397013 -1.097375 1.775931 0
M  V30 7 C 2.663890 0.025159 0.885112 0
M  V30 8 C 3.875751 0.090698 0.227021 0
M  V30 9 N 4.193659 1.108316 -0.617885 0
M  V30 10 C 3.286001 2.103766 -0.826904 0
M  V30 11 N 3.300705 3.228360 -1.589162 0
M  V30 12 C 2.116535 3.887533 -1.431587 0
M  V30 13 C 1.372317 3.138329 -0.551694 0
M  V30 14 C 0.040699 3.610446 -0.196120 0
M  V30 15 O -0.323349 4.757066 0.114921 0
M  V30 16 C -0.993151 2.588913 -0.211962 0
M  V30 17 C -1.954590 2.400146 0.752340 0
M  V30 18 C -2.934349 1.436109 0.739852 0
M  V30 19 C -2.930646 0.597493 -0.345628 0
M  V30 20 C -2.040415 0.654441 -1.388386 0
M  V30 21 N -1.964200 -0.159370 -2.540813 0
M  V30 22 S -1.617846 -1.705971 -3.106929 0
M  V30 23 O -1.734100 -1.702227 -4.634787 0
M  V30 24 O -0.156470 -2.048822 -2.866071 0
M  V30 25 C -2.587816 -3.036563 -2.552326 0
M  V30 26 C -2.591570 -3.310434 -1.111694 0
M  V30 27 C -1.497611 -4.073404 -0.667490 0
M  V30 28 C -1.305143 -4.465693 0.625059 0
M  V30 29 C -2.213489 -4.112833 1.576764 0
M  V30 30 C -3.291446 -3.374026 1.198285 0
M  V30 31 C -3.471906 -2.987662 -0.102284 0
M  V30 32 C -1.089191 1.682380 -1.259181 0
M  V30 33 F -0.150724 1.825230 -2.254204 0
M  V30 34 C 2.092090 2.027544 -0.170832 0
M  V30 35 C 1.699652 1.018310 0.706192 0
M  V30 36 C 2.974364 -2.330141 1.488945 0
M  V30 37 N 2.695773 -3.348365 2.351223 0
M  V30 38 H 0.091092 -3.245927 5.176398 0
M  V30 39 H 1.442434 -3.676761 6.239373 0
M  V30 40 H 0.285267 -4.952654 5.656913 0
M  V30 41 H 1.160380 0.148617 3.016268 0
M  V30 42 H 4.661942 -0.659808 0.333010 0
M  V30 43 H 4.115714 3.522588 -2.199557 0
M  V30 44 H 1.922568 4.809319 -1.952159 0
M  V30 45 H -1.942203 3.069221 1.601293 0
M  V30 46 H -3.668786 1.327387 1.521992 0
M  V30 47 H -3.676635 -0.157602 -0.408759 0
M  V30 48 H -2.261379 0.546358 -3.262641 0
M  V30 49 H -3.648449 -2.977789 -2.956216 0
M  V30 50 H -2.193211 -3.954023 -3.091358 0
M  V30 51 H -0.706081 -4.411305 -1.353532 0
M  V30 52 H -0.455442 -5.052255 0.941606 0
M  V30 53 H -2.189034 -4.351750 2.632075 0
M  V30 54 H -4.066343 -3.044657 1.876720 0
M  V30 55 H -4.306853 -2.411670 -0.477419 0
M  V30 56 H 0.755435 1.005030 1.193564 0
M  V30 57 H 3.598812 -2.411579 0.616794 0
M  V30 END ATOM
M  V30 BEGIN BOND
M  V30 1 1 1 2
M  V30 2 1 2 3
M  V30 3 2 3 4
M  V30 4 1 4 5
M  V30 5 2 5 6
M  V30 6 1 6 7
M  V30 7 2 7 8
M  V30 8 1 8 9
M  V30 9 2 9 10
M  V30 10 1 10 11
M  V30 11 1 11 12
M  V30 12 2 12 13
M  V30 13 1 13 14
M  V30 14 2 14 15
M  V30 15 1 14 16
M  V30 16 2 16 17
M  V30 17 1 17 18
M  V30 18 2 18 19
M  V30 19 1 19 20
M  V30 20 1 20 21
M  V30 21 1 21 22
M  V30 22 2 22 23
M  V30 23 2 22 24
M  V30 24 1 22 25
M  V30 25 1 25 26
M  V30 26 2 26 27
M  V30 27 1 27 28
M  V30 28 2 28 29
M  V30 29 1 29 30
M  V30 30 2 30 31
M  V30 31 2 20 32
M  V30 32 1 32 33
M  V30 33 1 13 34
M  V30 34 2 34 35
M  V30 35 1 6 36
M  V30 36 2 36 37
M  V30 37 1 37 3
M  V30 38 1 35 7
M  V30 39 1 34 10
M  V30 40 1 32 16
M  V30 41 1 31 26
M  V30 42 1 1 38
M  V30 43 1 1 39
M  V30 44 1 1 40
M  V30 45 1 5 41
M  V30 46 1 8 42
M  V30 47 1 11 43
M  V30 48 1 12 44
M  V30 49 1 17 45
M  V30 50 1 18 46
M  V30 51 1 19 47
M  V30 52 1 21 48
M  V30 53 1 25 49
M  V30 54 1 25 50
M  V30 55 1 27 51
M  V30 56 1 28 52
M  V30 57 1 29 53
M  V30 58 1 30 54
M  V30 59 1 31 55
M  V30 60 1 35 56
M  V30 61 1 36 57
M  V30 END BOND
M  V30 END CTAB
M  END
>  <Dataset>  (950) 
ChEMBL_Kinases

>  <Ligand_Instance>  (950) 
nan

>  <PDB_ID>  (950) 
nan

>  <Standardized_SMILES>  (950) 
COc1ncc(-c2cnc3[nH]cc(C(=O)c4cccc(NS(=O)(=O)Cc5ccccc5)c4F)c3c2)cn1

>  <Name>  (950) 
nan

>  <Pocket>  (950) 
nan

>  <ATP_Site>  (950) 
nan

>  <Peripheral>  (950) 
nan

>  <Num_H_Atoms_ProtBoundConf>  (950) 
nan

>  <Num_Resolved_Atoms>  (950) 
nan

>  <Num_Not_Resolved_Atoms>  (950) 
nan

$$$$
CHEMBL4848845
     RDKit          3D

  0  0  0  0  0  0  0  0  0  0999 V3000
M  V30 BEGIN CTAB
M  V30 COUNTS 64 67 0 0 0
M  V30 BEGIN ATOM
M  V30 1 C 5.097883 -2.610396 2.013816 0
M  V30 2 O 4.182244 -1.740032 1.356430 0
M  V30 3 C 3.164533 -1.223406 2.152993 0
M  V30 4 C 2.985755 -1.482966 3.493007 0
M  V30 5 C 1.967459 -0.950034 4.236316 0
M  V30 6 C 1.062927 -0.099844 3.607938 0
M  V30 7 C 1.215279 0.180812 2.262092 0
M  V30 8 C 2.263392 -0.374899 1.518596 0
M  V30 9 N 2.288020 -0.018623 0.138729 0
M  V30 10 C 1.406117 0.833073 -0.579042 0
M  V30 11 N 1.539765 2.094738 -0.978918 0
M  V30 12 C 0.620459 2.794489 -1.641801 0
M  V30 13 C -0.513928 2.083377 -1.886704 0
M  V30 14 C -1.631267 2.656714 -2.606485 0
M  V30 15 N -1.441715 4.030108 -3.017472 0
M  V30 16 O -2.731477 2.767189 -3.151975 0
M  V30 17 C -0.768096 0.779538 -1.524355 0
M  V30 18 N -1.954630 0.078008 -1.765612 0
M  V30 19 C -2.859876 -0.669794 -2.503436 0
M  V30 20 C -4.112857 -0.140369 -2.733623 0
M  V30 21 C -5.073140 -0.837640 -3.444315 0
M  V30 22 C -4.675136 -2.079074 -3.889992 0
M  V30 23 C -3.438021 -2.651692 -3.686310 0
M  V30 24 C -2.499626 -1.912872 -2.964999 0
M  V30 25 C -1.216252 -2.613477 -2.820620 0 CFG=2
M  V30 26 C -0.516399 -2.607523 -4.163018 0
M  V30 27 O -1.483732 -3.901259 -2.346414 0
M  V30 28 C -0.800962 -4.149383 -1.155890 0
M  V30 29 N 0.268752 0.189490 -0.849439 0
M  V30 30 C -0.079108 0.530113 4.318531 0
M  V30 31 N -0.049597 0.425841 5.733392 0
M  V30 32 C -1.239554 -0.183883 6.291759 0
M  V30 33 C 1.156173 -0.040507 6.329801 0
M  V30 34 C 1.775534 -1.237895 5.658458 0
M  V30 35 H 5.495203 -2.139095 2.948029 0
M  V30 36 H 4.617689 -3.566729 2.340759 0
M  V30 37 H 5.926940 -2.933835 1.334191 0
M  V30 38 H 3.705382 -2.139022 3.922882 0
M  V30 39 H 0.503901 0.843715 1.789818 0
M  V30 40 H 3.007651 -0.371312 -0.525681 0
M  V30 41 H 0.770946 3.813052 -1.946290 0
M  V30 42 H -0.990509 4.951049 -2.769847 0
M  V30 43 H -1.563564 4.870066 -3.648566 0
M  V30 44 H -2.380720 0.229357 -0.799685 0
M  V30 45 H -4.419274 0.829803 -2.371251 0
M  V30 46 H -6.064778 -0.458277 -3.645107 0
M  V30 47 H -5.419046 -2.633041 -4.446051 0
M  V30 48 H -3.272716 -3.651335 -4.105368 0
M  V30 49 H -0.505484 -2.093790 -2.123837 0
M  V30 50 H -0.776488 -3.547335 -4.723604 0
M  V30 51 H -0.938254 -1.774792 -4.789825 0
M  V30 52 H 0.563217 -2.459546 -4.083251 0
M  V30 53 H -1.042726 -5.169899 -0.810089 0
M  V30 54 H 0.306248 -4.092986 -1.319736 0
M  V30 55 H -1.045063 -3.446683 -0.342304 0
M  V30 56 H -0.986060 -0.032124 3.939042 0
M  V30 57 H -0.254704 1.573286 3.970296 0
M  V30 58 H -2.091302 0.438416 5.929526 0
M  V30 59 H -1.332170 -1.189933 5.817169 0
M  V30 60 H -1.192191 -0.241626 7.380014 0
M  V30 61 H 0.900052 -0.364777 7.378887 0
M  V30 62 H 1.904226 0.785331 6.465364 0
M  V30 63 H 2.753108 -1.419629 6.182629 0
M  V30 64 H 1.122032 -2.111612 5.784164 0
M  V30 END ATOM
M  V30 BEGIN BOND
M  V30 1 1 1 2
M  V30 2 1 2 3
M  V30 3 2 3 4
M  V30 4 1 4 5
M  V30 5 2 5 6
M  V30 6 1 6 7
M  V30 7 2 7 8
M  V30 8 1 8 9
M  V30 9 1 9 10
M  V30 10 2 10 11
M  V30 11 1 11 12
M  V30 12 2 12 13
M  V30 13 1 13 14
M  V30 14 1 14 15
M  V30 15 2 14 16
M  V30 16 1 13 17
M  V30 17 1 17 18
M  V30 18 1 18 19
M  V30 19 2 19 20
M  V30 20 1 20 21
M  V30 21 2 21 22
M  V30 22 1 22 23
M  V30 23 2 23 24
M  V30 24 1 24 25
M  V30 25 1 25 26
M  V30 26 1 25 27
M  V30 27 1 27 28
M  V30 28 2 17 29
M  V30 29 1 6 30
M  V30 30 1 30 31
M  V30 31 1 31 32
M  V30 32 1 31 33
M  V30 33 1 33 34
M  V30 34 1 8 3
M  V30 35 1 29 10
M  V30 36 1 34 5
M  V30 37 1 24 19
M  V30 38 1 1 35
M  V30 39 1 1 36
M  V30 40 1 1 37
M  V30 41 1 4 38
M  V30 42 1 7 39
M  V30 43 1 9 40
M  V30 44 1 12 41
M  V30 45 1 15 42
M  V30 46 1 15 43
M  V30 47 1 18 44
M  V30 48 1 20 45
M  V30 49 1 21 46
M  V30 50 1 22 47
M  V30 51 1 23 48
M  V30 52 1 25 49 CFG=1
M  V30 53 1 26 50
M  V30 54 1 26 51
M  V30 55 1 26 52
M  V30 56 1 28 53
M  V30 57 1 28 54
M  V30 58 1 28 55
M  V30 59 1 30 56
M  V30 60 1 30 57
M  V30 61 1 32 58
M  V30 62 1 32 59
M  V30 63 1 32 60
M  V30 64 1 33 61
M  V30 65 1 33 62
M  V30 66 1 34 63
M  V30 67 1 34 64
M  V30 END BOND
M  V30 END CTAB
M  END
>  <Dataset>  (951) 
ChEMBL_Kinases

>  <Ligand_Instance>  (951) 
nan

>  <PDB_ID>  (951) 
nan

>  <Standardized_SMILES>  (951) 
COc1cc2c(cc1Nc1ncc(C(N)=O)c(Nc3ccccc3[C@H](C)OC)n1)CN(C)CC2

>  <Name>  (951) 
nan

>  <Pocket>  (951) 
nan

>  <ATP_Site>  (951) 
nan

>  <Peripheral>  (951) 
nan

>  <Num_H_Atoms_ProtBoundConf>  (951) 
nan

>  <Num_Resolved_Atoms>  (951) 
nan

>  <Num_Not_Resolved_Atoms>  (951) 
nan

$$$$
CHEMBL4848860
     RDKit          3D

  0  0  0  0  0  0  0  0  0  0999 V3000
M  V30 BEGIN CTAB
M  V30 COUNTS 60 64 0 0 0
M  V30 BEGIN ATOM
M  V30 1 C 2.832027 -4.203887 4.116122 0
M  V30 2 C 1.921649 -3.043462 4.449543 0
M  V30 3 N 2.099868 -1.886422 3.640533 0
M  V30 4 C 2.972507 -0.910574 3.958395 0
M  V30 5 O 3.747388 -0.868180 4.947909 0
M  V30 6 C 2.884144 0.067507 3.000203 0
M  V30 7 C 3.440626 1.281501 2.716366 0
M  V30 8 N 3.089204 2.012592 1.648716 0
M  V30 9 C 2.141655 1.565322 0.781954 0
M  V30 10 N 1.593013 2.155853 -0.383837 0
M  V30 11 C 0.197213 2.280846 -0.684247 0
M  V30 12 C -0.247184 3.022860 -1.758294 0
M  V30 13 C -1.581237 3.168806 -2.063363 0
M  V30 14 C -2.543282 2.577062 -1.311132 0
M  V30 15 C -2.157394 1.816415 -0.221730 0
M  V30 16 C -0.808143 1.699098 0.047996 0
M  V30 17 C -3.212968 1.152381 0.582131 0
M  V30 18 N -4.072962 0.478636 -0.356066 0
M  V30 19 C -4.642697 1.282087 -1.375624 0
M  V30 20 C -4.029308 2.655788 -1.510357 0
M  V30 21 N 1.626864 0.381272 1.088239 0
M  V30 22 C 1.933719 -0.395365 2.135387 0
M  V30 23 N 1.442871 -1.609787 2.527308 0
M  V30 24 C 0.453781 -2.295679 1.759585 0
M  V30 25 C -0.721287 -2.904842 2.132097 0
M  V30 26 C -1.513786 -3.521888 1.187732 0
M  V30 27 C -1.165488 -3.552047 -0.155664 0
M  V30 28 F -1.975779 -4.176562 -1.062643 0
M  V30 29 C 0.022975 -2.929845 -0.502877 0
M  V30 30 C 0.353614 -2.990338 -1.939820 0
M  V30 31 C 0.589155 -4.372730 -2.436437 0
M  V30 32 C 1.594803 -2.157776 -2.183243 0
M  V30 33 O -0.656850 -2.382316 -2.699229 0
M  V30 34 N 0.756984 -2.345307 0.446916 0
M  V30 35 H 3.754953 -3.806944 3.675109 0
M  V30 36 H 2.295018 -4.854615 3.390553 0
M  V30 37 H 3.046887 -4.795391 5.052974 0
M  V30 38 H 0.884227 -3.439880 4.519959 0
M  V30 39 H 2.152415 -2.756687 5.525027 0
M  V30 40 H 4.191729 1.656426 3.391728 0
M  V30 41 H 2.273088 2.533845 -1.093031 0
M  V30 42 H 0.478719 3.511354 -2.390235 0
M  V30 43 H -1.934064 3.764131 -2.913892 0
M  V30 44 H -0.567334 1.088084 0.914514 0
M  V30 45 H -3.732680 1.909708 1.214210 0
M  V30 46 H -2.724463 0.373855 1.206786 0
M  V30 47 H -4.715982 -0.172732 0.110280 0
M  V30 48 H -5.730159 1.340010 -1.222465 0
M  V30 49 H -4.476107 0.786413 -2.371497 0
M  V30 50 H -4.531490 3.305909 -0.774320 0
M  V30 51 H -4.270531 3.034651 -2.519922 0
M  V30 52 H -0.928103 -2.833396 3.188959 0
M  V30 53 H -2.426961 -3.974153 1.544944 0
M  V30 54 H 1.213509 -5.000931 -1.765409 0
M  V30 55 H 1.196022 -4.283374 -3.386000 0
M  V30 56 H -0.347240 -4.891807 -2.745782 0
M  V30 57 H 1.766414 -1.532775 -1.287528 0
M  V30 58 H 2.502509 -2.806990 -2.281927 0
M  V30 59 H 1.490313 -1.538835 -3.119047 0
M  V30 60 H -1.269710 -3.011861 -3.121684 0
M  V30 END ATOM
M  V30 BEGIN BOND
M  V30 1 1 1 2
M  V30 2 1 2 3
M  V30 3 1 3 4
M  V30 4 2 4 5
M  V30 5 1 4 6
M  V30 6 2 6 7
M  V30 7 1 7 8
M  V30 8 2 8 9
M  V30 9 1 9 10
M  V30 10 1 10 11
M  V30 11 2 11 12
M  V30 12 1 12 13
M  V30 13 2 13 14
M  V30 14 1 14 15
M  V30 15 2 15 16
M  V30 16 1 15 17
M  V30 17 1 17 18
M  V30 18 1 18 19
M  V30 19 1 19 20
M  V30 20 1 9 21
M  V30 21 2 21 22
M  V30 22 1 22 23
M  V30 23 1 23 24
M  V30 24 2 24 25
M  V30 25 1 25 26
M  V30 26 2 26 27
M  V30 27 1 27 28
M  V30 28 1 27 29
M  V30 29 1 29 30
M  V30 30 1 30 31
M  V30 31 1 30 32
M  V30 32 1 30 33
M  V30 33 2 29 34
M  V30 34 1 23 3
M  V30 35 1 34 24
M  V30 36 1 22 6
M  V30 37 1 16 11
M  V30 38 1 20 14
M  V30 39 1 1 35
M  V30 40 1 1 36
M  V30 41 1 1 37
M  V30 42 1 2 38
M  V30 43 1 2 39
M  V30 44 1 7 40
M  V30 45 1 10 41
M  V30 46 1 12 42
M  V30 47 1 13 43
M  V30 48 1 16 44
M  V30 49 1 17 45
M  V30 50 1 17 46
M  V30 51 1 18 47
M  V30 52 1 19 48
M  V30 53 1 19 49
M  V30 54 1 20 50
M  V30 55 1 20 51
M  V30 56 1 25 52
M  V30 57 1 26 53
M  V30 58 1 31 54
M  V30 59 1 31 55
M  V30 60 1 31 56
M  V30 61 1 32 57
M  V30 62 1 32 58
M  V30 63 1 32 59
M  V30 64 1 33 60
M  V30 END BOND
M  V30 END CTAB
M  END
>  <Dataset>  (952) 
ChEMBL_Kinases

>  <Ligand_Instance>  (952) 
nan

>  <PDB_ID>  (952) 
nan

>  <Standardized_SMILES>  (952) 
CCn1c(=O)c2cnc(Nc3ccc4c(c3)CNCC4)nc2n1-c1ccc(F)c(C(C)(C)O)n1

>  <Name>  (952) 
nan

>  <Pocket>  (952) 
nan

>  <ATP_Site>  (952) 
nan

>  <Peripheral>  (952) 
nan

>  <Num_H_Atoms_ProtBoundConf>  (952) 
nan

>  <Num_Resolved_Atoms>  (952) 
nan

>  <Num_Not_Resolved_Atoms>  (952) 
nan

$$$$
CHEMBL4848865
     RDKit          3D

  0  0  0  0  0  0  0  0  0  0999 V3000
M  V30 BEGIN CTAB
M  V30 COUNTS 28 30 0 0 0
M  V30 BEGIN ATOM
M  V30 1 O 0.181258 -4.066137 4.458772 0
M  V30 2 C -0.067016 -3.305105 3.511057 0
M  V30 3 O -1.414221 -3.006588 3.477565 0
M  V30 4 C 0.887276 -2.773159 2.543387 0
M  V30 5 C 2.211616 -3.135217 2.667711 0
M  V30 6 C 3.104676 -2.612290 1.728670 0
M  V30 7 C 2.598546 -1.767404 0.739033 0
M  V30 8 C 1.264834 -1.416184 0.631699 0
M  V30 9 C 0.835233 -0.524452 -0.441120 0
M  V30 10 N 1.149109 -0.529056 -1.748111 0
M  V30 11 N 0.561685 0.440174 -2.406690 0
M  V30 12 C -0.208435 1.182290 -1.561826 0
M  V30 13 C -1.026523 2.286729 -1.685861 0
M  V30 14 C -1.674686 2.787793 -0.575445 0
M  V30 15 F -2.496952 3.883239 -0.652826 0
M  V30 16 C -1.523901 2.204511 0.674689 0
M  V30 17 C -0.687447 1.088652 0.758276 0
M  V30 18 C -0.019695 0.560706 -0.347785 0
M  V30 19 C 0.399342 -1.941593 1.566590 0
M  V30 20 H -2.161448 -3.565100 3.826326 0
M  V30 21 H 2.572307 -3.792573 3.446643 0
M  V30 22 H 4.167226 -2.839234 1.743683 0
M  V30 23 H 3.329353 -1.377352 0.021078 0
M  V30 24 H 0.658358 0.630873 -3.430145 0
M  V30 25 H -1.149254 2.744830 -2.649562 0
M  V30 26 H -2.035141 2.607704 1.524783 0
M  V30 27 H -0.613670 0.685298 1.751331 0
M  V30 28 H -0.636826 -1.704342 1.530689 0
M  V30 END ATOM
M  V30 BEGIN BOND
M  V30 1 2 1 2
M  V30 2 1 2 3
M  V30 3 1 2 4
M  V30 4 2 4 5
M  V30 5 1 5 6
M  V30 6 2 6 7
M  V30 7 1 7 8
M  V30 8 1 8 9
M  V30 9 2 9 10
M  V30 10 1 10 11
M  V30 11 1 11 12
M  V30 12 2 12 13
M  V30 13 1 13 14
M  V30 14 1 14 15
M  V30 15 2 14 16
M  V30 16 1 16 17
M  V30 17 2 17 18
M  V30 18 2 8 19
M  V30 19 1 19 4
M  V30 20 1 18 9
M  V30 21 1 18 12
M  V30 22 1 3 20
M  V30 23 1 5 21
M  V30 24 1 6 22
M  V30 25 1 7 23
M  V30 26 1 11 24
M  V30 27 1 13 25
M  V30 28 1 16 26
M  V30 29 1 17 27
M  V30 30 1 19 28
M  V30 END BOND
M  V30 END CTAB
M  END
>  <Dataset>  (953) 
ChEMBL_Kinases

>  <Ligand_Instance>  (953) 
nan

>  <PDB_ID>  (953) 
nan

>  <Standardized_SMILES>  (953) 
O=C(O)c1cccc(-c2n[nH]c3cc(F)ccc23)c1

>  <Name>  (953) 
nan

>  <Pocket>  (953) 
nan

>  <ATP_Site>  (953) 
nan

>  <Peripheral>  (953) 
nan

>  <Num_H_Atoms_ProtBoundConf>  (953) 
nan

>  <Num_Resolved_Atoms>  (953) 
nan

>  <Num_Not_Resolved_Atoms>  (953) 
nan

$$$$
CHEMBL4848921
     RDKit          3D

  0  0  0  0  0  0  0  0  0  0999 V3000
M  V30 BEGIN CTAB
M  V30 COUNTS 60 62 0 0 0
M  V30 BEGIN ATOM
M  V30 1 C -1.858823 -1.072356 -0.637121 0
M  V30 2 C -1.205175 -0.818283 0.666086 0
M  V30 3 C -0.832619 0.469465 0.976438 0
M  V30 4 C -0.232037 0.635919 2.204970 0
M  V30 5 N 0.209786 1.932104 2.660112 0
M  V30 6 C 1.552631 2.146953 2.248227 0
M  V30 7 O 2.707159 2.049988 1.758240 0
M  V30 8 C 2.270836 3.413044 2.583500 0 CFG=1
M  V30 9 C 2.341550 3.565825 4.087353 0
M  V30 10 O 3.552928 3.418530 2.093562 0
M  V30 11 C 1.513202 4.544820 2.002887 0
M  V30 12 C 1.294435 5.668494 2.774063 0
M  V30 13 C 0.598086 6.774435 2.317691 0
M  V30 14 C 0.084434 6.775228 1.020796 0
M  V30 15 C 0.293270 5.660608 0.235193 0
M  V30 16 C 0.997813 4.572733 0.733573 0
M  V30 17 C -0.001577 -0.390911 3.092593 0
M  V30 18 C -0.386746 -1.672107 2.752634 0
M  V30 19 C -0.999497 -1.885764 1.515638 0
M  V30 20 C -1.373604 -3.267915 1.227179 0
M  V30 21 C -2.031401 -3.958899 2.250352 0
M  V30 22 N -2.388491 -5.235872 2.019532 0
M  V30 23 C -2.111850 -5.827604 0.820100 0
M  V30 24 N -2.543819 -7.180593 0.707439 0
M  V30 25 C -1.464856 -5.176486 -0.210751 0
M  V30 26 C -1.220207 -5.906474 -1.448906 0
M  V30 27 O -1.624886 -7.091816 -1.487675 0
M  V30 28 N -0.559837 -5.276491 -2.522478 0
M  V30 29 C -0.203551 -5.773951 -3.831823 0
M  V30 30 C 1.328925 -5.833703 -3.888267 0
M  V30 31 C -0.758442 -4.956118 -4.952808 0
M  V30 32 C -1.098446 -3.869011 0.023609 0
M  V30 33 H -2.529085 -0.204168 -0.888651 0
M  V30 34 H -1.132879 -1.119962 -1.474021 0
M  V30 35 H -2.544205 -1.952365 -0.606182 0
M  V30 36 H -0.991582 1.293772 0.319987 0
M  V30 37 H -0.210103 2.712836 3.197741 0
M  V30 38 H 3.156529 4.276221 4.336725 0
M  V30 39 H 2.680662 2.583781 4.491436 0
M  V30 40 H 1.363031 3.864979 4.481974 0
M  V30 41 H 3.691930 4.015085 1.327875 0
M  V30 42 H 1.653676 5.772164 3.804046 0
M  V30 43 H 0.436188 7.655949 2.947305 0
M  V30 44 H -0.447974 7.658032 0.714728 0
M  V30 45 H -0.102975 5.657977 -0.768977 0
M  V30 46 H 1.156351 3.694343 0.099668 0
M  V30 47 H 0.473048 -0.258820 4.063270 0
M  V30 48 H -0.209343 -2.479699 3.442533 0
M  V30 49 H -2.268319 -3.526017 3.213066 0
M  V30 50 H -1.787374 -7.746472 1.142421 0
M  V30 51 H -3.445774 -7.374176 0.259107 0
M  V30 52 H -0.215305 -4.291897 -2.510539 0
M  V30 53 H -0.521879 -6.827587 -3.983440 0
M  V30 54 H 1.676201 -6.705500 -4.458419 0
M  V30 55 H 1.756390 -5.875085 -2.842993 0
M  V30 56 H 1.748998 -4.902083 -4.327115 0
M  V30 57 H -0.870059 -3.883097 -4.701317 0
M  V30 58 H -0.068309 -5.099583 -5.821744 0
M  V30 59 H -1.743561 -5.376137 -5.232976 0
M  V30 60 H -0.596795 -3.341245 -0.752578 0
M  V30 END ATOM
M  V30 BEGIN BOND
M  V30 1 1 1 2
M  V30 2 2 2 3
M  V30 3 1 3 4
M  V30 4 1 4 5
M  V30 5 1 5 6
M  V30 6 2 6 7
M  V30 7 1 6 8
M  V30 8 1 8 9
M  V30 9 1 8 10 CFG=3
M  V30 10 1 8 11
M  V30 11 2 11 12
M  V30 12 1 12 13
M  V30 13 2 13 14
M  V30 14 1 14 15
M  V30 15 2 15 16
M  V30 16 2 4 17
M  V30 17 1 17 18
M  V30 18 2 18 19
M  V30 19 1 19 20
M  V30 20 2 20 21
M  V30 21 1 21 22
M  V30 22 2 22 23
M  V30 23 1 23 24
M  V30 24 1 23 25
M  V30 25 1 25 26
M  V30 26 2 26 27
M  V30 27 1 26 28
M  V30 28 1 28 29
M  V30 29 1 29 30
M  V30 30 1 29 31
M  V30 31 2 25 32
M  V30 32 1 19 2
M  V30 33 1 32 20
M  V30 34 1 16 11
M  V30 35 1 1 33
M  V30 36 1 1 34
M  V30 37 1 1 35
M  V30 38 1 3 36
M  V30 39 1 5 37
M  V30 40 1 9 38
M  V30 41 1 9 39
M  V30 42 1 9 40
M  V30 43 1 10 41
M  V30 44 1 12 42
M  V30 45 1 13 43
M  V30 46 1 14 44
M  V30 47 1 15 45
M  V30 48 1 16 46
M  V30 49 1 17 47
M  V30 50 1 18 48
M  V30 51 1 21 49
M  V30 52 1 24 50
M  V30 53 1 24 51
M  V30 54 1 28 52
M  V30 55 1 29 53
M  V30 56 1 30 54
M  V30 57 1 30 55
M  V30 58 1 30 56
M  V30 59 1 31 57
M  V30 60 1 31 58
M  V30 61 1 31 59
M  V30 62 1 32 60
M  V30 END BOND
M  V30 END CTAB
M  END
>  <Dataset>  (954) 
ChEMBL_Kinases

>  <Ligand_Instance>  (954) 
nan

>  <PDB_ID>  (954) 
nan

>  <Standardized_SMILES>  (954) 
Cc1cc(NC(=O)[C@@](C)(O)c2ccccc2)ccc1-c1cnc(N)c(C(=O)NC(C)C)c1

>  <Name>  (954) 
nan

>  <Pocket>  (954) 
nan

>  <ATP_Site>  (954) 
nan

>  <Peripheral>  (954) 
nan

>  <Num_H_Atoms_ProtBoundConf>  (954) 
nan

>  <Num_Resolved_Atoms>  (954) 
nan

>  <Num_Not_Resolved_Atoms>  (954) 
nan

$$$$
CHEMBL4849014
     RDKit          3D

  0  0  0  0  0  0  0  0  0  0999 V3000
M  V30 BEGIN CTAB
M  V30 COUNTS 43 45 0 0 0
M  V30 BEGIN ATOM
M  V30 1 C -0.102286 3.031945 -3.299415 0
M  V30 2 O 0.476253 2.276113 -2.281357 0
M  V30 3 C 1.644625 1.552228 -2.375674 0
M  V30 4 N 2.297445 1.566387 -3.549641 0
M  V30 5 C 3.444011 0.896745 -3.751203 0
M  V30 6 C 3.897935 0.193376 -2.657143 0
M  V30 7 F 5.050667 -0.513599 -2.769499 0
M  V30 8 C 3.239518 0.169664 -1.447875 0
M  V30 9 C 2.063975 0.865066 -1.264817 0
M  V30 10 C 1.424327 0.795489 0.034176 0
M  V30 11 O 1.957740 0.106211 0.952591 0
M  V30 12 N 0.233008 1.396801 0.495743 0
M  V30 13 C 0.039308 1.009082 1.871486 0
M  V30 14 C 0.582338 1.804362 2.873728 0
M  V30 15 C 0.373437 1.396696 4.182607 0
M  V30 16 C -0.341490 0.251032 4.505919 0
M  V30 17 C -0.858523 -0.499878 3.446444 0
M  V30 18 C -1.600176 -1.691709 3.835478 0
M  V30 19 N -2.400267 -1.807996 4.934982 0
M  V30 20 N -2.859285 -3.022808 4.898380 0
M  V30 21 C -2.405073 -3.686674 3.849885 0
M  V30 22 N -1.586248 -2.858849 3.136654 0
M  V30 23 C -0.855119 -3.124274 1.915792 0 CFG=1
M  V30 24 C 0.631234 -3.180218 2.128927 0
M  V30 25 C -1.244682 -4.524189 1.445183 0
M  V30 26 F -2.596741 -4.589412 1.209257 0
M  V30 27 F -0.782724 -5.484354 2.303733 0
M  V30 28 F -0.636899 -4.667692 0.194972 0
M  V30 29 N -0.657178 -0.106460 2.177160 0
M  V30 30 H -1.203884 3.073521 -3.260408 0
M  V30 31 H 0.203901 2.574411 -4.281369 0
M  V30 32 H 0.338227 4.062687 -3.322304 0
M  V30 33 H 4.028186 0.856014 -4.658803 0
M  V30 34 H 3.663646 -0.409464 -0.634732 0
M  V30 35 H -0.287295 1.982295 -0.167532 0
M  V30 36 H 1.145269 2.704692 2.647671 0
M  V30 37 H 0.784763 1.996452 4.985972 0
M  V30 38 H -0.457404 0.005388 5.554667 0
M  V30 39 H -2.568873 -4.687341 3.507114 0
M  V30 40 H -1.137477 -2.435747 1.086465 0
M  V30 41 H 1.071947 -2.297831 2.583893 0
M  V30 42 H 1.078378 -3.305864 1.108767 0
M  V30 43 H 0.886454 -4.051677 2.742915 0
M  V30 END ATOM
M  V30 BEGIN BOND
M  V30 1 1 1 2
M  V30 2 1 2 3
M  V30 3 2 3 4
M  V30 4 1 4 5
M  V30 5 2 5 6
M  V30 6 1 6 7
M  V30 7 1 6 8
M  V30 8 2 8 9
M  V30 9 1 9 10
M  V30 10 2 10 11
M  V30 11 1 10 12
M  V30 12 1 12 13
M  V30 13 2 13 14
M  V30 14 1 14 15
M  V30 15 2 15 16
M  V30 16 1 16 17
M  V30 17 1 17 18
M  V30 18 2 18 19
M  V30 19 1 19 20
M  V30 20 2 20 21
M  V30 21 1 21 22
M  V30 22 1 22 23
M  V30 23 1 23 24
M  V30 24 1 23 25
M  V30 25 1 25 26
M  V30 26 1 25 27
M  V30 27 1 25 28
M  V30 28 2 17 29
M  V30 29 1 9 3
M  V30 30 1 29 13
M  V30 31 1 22 18
M  V30 32 1 1 30
M  V30 33 1 1 31
M  V30 34 1 1 32
M  V30 35 1 5 33
M  V30 36 1 8 34
M  V30 37 1 12 35
M  V30 38 1 14 36
M  V30 39 1 15 37
M  V30 40 1 16 38
M  V30 41 1 21 39
M  V30 42 1 23 40 CFG=3
M  V30 43 1 24 41
M  V30 44 1 24 42
M  V30 45 1 24 43
M  V30 END BOND
M  V30 END CTAB
M  END
>  <Dataset>  (955) 
ChEMBL_Kinases

>  <Ligand_Instance>  (955) 
nan

>  <PDB_ID>  (955) 
nan

>  <Standardized_SMILES>  (955) 
COc1ncc(F)cc1C(=O)Nc1cccc(-c2nncn2[C@@H](C)C(F)(F)F)n1

>  <Name>  (955) 
nan

>  <Pocket>  (955) 
nan

>  <ATP_Site>  (955) 
nan

>  <Peripheral>  (955) 
nan

>  <Num_H_Atoms_ProtBoundConf>  (955) 
nan

>  <Num_Resolved_Atoms>  (955) 
nan

>  <Num_Not_Resolved_Atoms>  (955) 
nan

$$$$
CHEMBL4849097
     RDKit          3D

  0  0  0  0  0  0  0  0  0  0999 V3000
M  V30 BEGIN CTAB
M  V30 COUNTS 64 68 0 0 0
M  V30 BEGIN ATOM
M  V30 1 C 1.011316 -5.122905 3.540130 0
M  V30 2 C 2.056745 -4.306128 3.518922 0
M  V30 3 C 3.337705 -3.712261 3.000366 0
M  V30 4 N 3.129377 -2.304855 2.717537 0
M  V30 5 C 3.295226 -1.248948 3.536477 0
M  V30 6 O 3.672495 -1.283164 4.734734 0
M  V30 7 C 2.987242 -0.082056 2.869021 0
M  V30 8 C 2.952626 1.271661 3.130240 0
M  V30 9 N 2.591032 2.199587 2.228088 0
M  V30 10 C 2.238382 1.771540 0.981341 0
M  V30 11 N 1.814599 2.506865 -0.161359 0
M  V30 12 C 0.420189 2.715293 -0.369183 0
M  V30 13 C -0.076448 3.419380 -1.464409 0
M  V30 14 C -1.446242 3.605902 -1.647743 0
M  V30 15 C -2.336499 3.088650 -0.734793 0
M  V30 16 C -1.877144 2.376672 0.376799 0
M  V30 17 C -0.516049 2.211052 0.527101 0
M  V30 18 C -2.841258 1.817575 1.366348 0
M  V30 19 C -4.111384 1.372544 0.743458 0
M  V30 20 N -4.508644 2.024963 -0.455929 0
M  V30 21 C -4.746415 1.109511 -1.553157 0
M  V30 22 C -3.796982 3.213481 -0.815990 0
M  V30 23 N 2.260166 0.452917 0.688658 0
M  V30 24 C 2.621172 -0.492558 1.584760 0
M  V30 25 N 2.722029 -1.851639 1.537451 0
M  V30 26 C 2.400403 -2.563377 0.324391 0
M  V30 27 C 3.209305 -3.314823 -0.492379 0
M  V30 28 C 2.640202 -3.896857 -1.605515 0
M  V30 29 C 1.299773 -3.718438 -1.873117 0
M  V30 30 C 0.496626 -2.961837 -1.046088 0
M  V30 31 C -0.969069 -2.761448 -1.328685 0
M  V30 32 C -1.509260 -1.868105 -0.208946 0
M  V30 33 C -1.743441 -4.037733 -1.298100 0
M  V30 34 O -1.077262 -2.085204 -2.535899 0
M  V30 35 N 1.097179 -2.421701 0.016017 0
M  V30 36 H 0.101567 -5.449433 4.023809 0
M  V30 37 H 1.129192 -5.763174 2.649222 0
M  V30 38 H 1.790310 -3.757423 4.439663 0
M  V30 39 H 3.635682 -4.222201 2.073095 0
M  V30 40 H 4.106479 -3.858907 3.790553 0
M  V30 41 H 3.229840 1.598023 4.106665 0
M  V30 42 H 2.463532 2.914954 -0.875880 0
M  V30 43 H 0.627943 3.836853 -2.200276 0
M  V30 44 H -1.845133 4.150834 -2.493770 0
M  V30 45 H -0.143971 1.656302 1.391646 0
M  V30 46 H -2.355142 0.939267 1.856391 0
M  V30 47 H -3.043561 2.539808 2.187781 0
M  V30 48 H -4.103524 0.270387 0.600463 0
M  V30 49 H -4.942585 1.549697 1.488066 0
M  V30 50 H -4.702160 0.039178 -1.217234 0
M  V30 51 H -4.090736 1.273642 -2.418227 0
M  V30 52 H -5.783167 1.287626 -1.904327 0
M  V30 53 H -4.226734 4.071361 -0.267362 0
M  V30 54 H -4.027108 3.396074 -1.904444 0
M  V30 55 H 4.230833 -3.354748 -0.142402 0
M  V30 56 H 3.317590 -4.475307 -2.212124 0
M  V30 57 H 0.873851 -4.189444 -2.759506 0
M  V30 58 H -1.158641 -2.282926 0.770758 0
M  V30 59 H -2.612974 -1.834400 -0.195754 0
M  V30 60 H -1.075976 -0.852432 -0.260769 0
M  V30 61 H -2.728602 -3.856717 -0.823013 0
M  V30 62 H -1.230448 -4.800057 -0.668002 0
M  V30 63 H -1.973868 -4.440005 -2.315719 0
M  V30 64 H -0.949718 -1.095769 -2.416138 0
M  V30 END ATOM
M  V30 BEGIN BOND
M  V30 1 2 1 2
M  V30 2 1 2 3
M  V30 3 1 3 4
M  V30 4 1 4 5
M  V30 5 2 5 6
M  V30 6 1 5 7
M  V30 7 2 7 8
M  V30 8 1 8 9
M  V30 9 2 9 10
M  V30 10 1 10 11
M  V30 11 1 11 12
M  V30 12 2 12 13
M  V30 13 1 13 14
M  V30 14 2 14 15
M  V30 15 1 15 16
M  V30 16 2 16 17
M  V30 17 1 16 18
M  V30 18 1 18 19
M  V30 19 1 19 20
M  V30 20 1 20 21
M  V30 21 1 20 22
M  V30 22 1 10 23
M  V30 23 2 23 24
M  V30 24 1 24 25
M  V30 25 1 25 26
M  V30 26 2 26 27
M  V30 27 1 27 28
M  V30 28 2 28 29
M  V30 29 1 29 30
M  V30 30 1 30 31
M  V30 31 1 31 32
M  V30 32 1 31 33
M  V30 33 1 31 34
M  V30 34 2 30 35
M  V30 35 1 25 4
M  V30 36 1 35 26
M  V30 37 1 24 7
M  V30 38 1 17 12
M  V30 39 1 22 15
M  V30 40 1 1 36
M  V30 41 1 1 37
M  V30 42 1 2 38
M  V30 43 1 3 39
M  V30 44 1 3 40
M  V30 45 1 8 41
M  V30 46 1 11 42
M  V30 47 1 13 43
M  V30 48 1 14 44
M  V30 49 1 17 45
M  V30 50 1 18 46
M  V30 51 1 18 47
M  V30 52 1 19 48
M  V30 53 1 19 49
M  V30 54 1 21 50
M  V30 55 1 21 51
M  V30 56 1 21 52
M  V30 57 1 22 53
M  V30 58 1 22 54
M  V30 59 1 27 55
M  V30 60 1 28 56
M  V30 61 1 29 57
M  V30 62 1 32 58
M  V30 63 1 32 59
M  V30 64 1 32 60
M  V30 65 1 33 61
M  V30 66 1 33 62
M  V30 67 1 33 63
M  V30 68 1 34 64
M  V30 END BOND
M  V30 END CTAB
M  END
>  <Dataset>  (956) 
ChEMBL_Kinases

>  <Ligand_Instance>  (956) 
nan

>  <PDB_ID>  (956) 
nan

>  <Standardized_SMILES>  (956) 
C=CCn1c(=O)c2cnc(Nc3ccc4c(c3)CCN(C)C4)nc2n1-c1cccc(C(C)(C)O)n1

>  <Name>  (956) 
nan

>  <Pocket>  (956) 
nan

>  <ATP_Site>  (956) 
nan

>  <Peripheral>  (956) 
nan

>  <Num_H_Atoms_ProtBoundConf>  (956) 
nan

>  <Num_Resolved_Atoms>  (956) 
nan

>  <Num_Not_Resolved_Atoms>  (956) 
nan

$$$$
CHEMBL4846348
     RDKit          3D

  0  0  0  0  0  0  0  0  0  0999 V3000
M  V30 BEGIN CTAB
M  V30 COUNTS 46 48 0 0 0
M  V30 BEGIN ATOM
M  V30 1 C -0.452541 -3.005282 2.073400 0
M  V30 2 N -1.288666 -3.811719 1.223503 0
M  V30 3 C -1.796101 -3.523746 -0.083107 0
M  V30 4 N -1.498227 -2.362031 -0.669853 0
M  V30 5 C -1.899044 -1.973946 -1.865313 0
M  V30 6 N -1.568148 -0.719638 -2.480292 0
M  V30 7 C -0.780112 0.353554 -1.997844 0
M  V30 8 C -0.615839 1.481061 -2.816531 0
M  V30 9 N 0.122673 2.521961 -2.400143 0
M  V30 10 C 0.730913 2.541369 -1.204982 0
M  V30 11 C 1.504497 3.666627 -0.804366 0
M  V30 12 N 2.126717 4.586955 -0.497532 0
M  V30 13 C 0.657070 1.511816 -0.305297 0
M  V30 14 O 1.123347 1.234162 0.908459 0
M  V30 15 C 1.905172 1.866063 1.827410 0 CFG=1
M  V30 16 C 1.222398 2.064719 3.176595 0
M  V30 17 C 2.003870 1.558685 4.336704 0
M  V30 18 C 3.479894 1.849345 4.289736 0
M  V30 19 N 4.005403 1.861022 2.943750 0
M  V30 20 C 3.194760 1.067689 2.039116 0
M  V30 21 C -0.118963 0.442628 -0.767860 0
M  V30 22 N -2.668370 -2.829006 -2.532296 0
M  V30 23 C -3.020901 -4.011604 -2.033488 0
M  V30 24 C -2.592575 -4.396583 -0.786234 0
M  V30 25 C -2.920713 -5.687408 -0.128618 0
M  V30 26 F -3.729158 -6.422562 -0.995713 0
M  V30 27 F -1.766935 -6.419686 0.047564 0
M  V30 28 F -3.590733 -5.525603 1.068340 0
M  V30 29 H 0.557685 -3.500546 2.170471 0
M  V30 30 H -0.274498 -2.018321 1.625624 0
M  V30 31 H -0.844153 -2.876122 3.104009 0
M  V30 32 H -1.527442 -4.723457 1.674009 0
M  V30 33 H -1.978113 -0.568374 -3.453108 0
M  V30 34 H -1.058618 1.577973 -3.799511 0
M  V30 35 H 2.234963 2.856161 1.479203 0
M  V30 36 H 0.270499 1.464109 3.118829 0
M  V30 37 H 0.892568 3.106205 3.277146 0
M  V30 38 H 1.797930 0.477289 4.541450 0
M  V30 39 H 1.628967 2.091642 5.247751 0
M  V30 40 H 3.780074 2.772903 4.814123 0
M  V30 41 H 3.975152 1.002244 4.823872 0
M  V30 42 H 4.962150 1.399199 2.931163 0
M  V30 43 H 3.712425 1.026862 1.071613 0
M  V30 44 H 2.934175 0.109082 2.485549 0
M  V30 45 H -0.297923 -0.464159 -0.202997 0
M  V30 46 H -3.647233 -4.697997 -2.586405 0
M  V30 END ATOM
M  V30 BEGIN BOND
M  V30 1 1 1 2
M  V30 2 1 2 3
M  V30 3 2 3 4
M  V30 4 1 4 5
M  V30 5 1 5 6
M  V30 6 1 6 7
M  V30 7 2 7 8
M  V30 8 1 8 9
M  V30 9 2 9 10
M  V30 10 1 10 11
M  V30 11 3 11 12
M  V30 12 1 10 13
M  V30 13 1 13 14
M  V30 14 1 14 15
M  V30 15 1 15 16
M  V30 16 1 16 17
M  V30 17 1 17 18
M  V30 18 1 18 19
M  V30 19 1 19 20
M  V30 20 2 13 21
M  V30 21 2 5 22
M  V30 22 1 22 23
M  V30 23 2 23 24
M  V30 24 1 24 25
M  V30 25 1 25 26
M  V30 26 1 25 27
M  V30 27 1 25 28
M  V30 28 1 24 3
M  V30 29 1 21 7
M  V30 30 1 20 15
M  V30 31 1 1 29
M  V30 32 1 1 30
M  V30 33 1 1 31
M  V30 34 1 2 32
M  V30 35 1 6 33
M  V30 36 1 8 34
M  V30 37 1 15 35 CFG=3
M  V30 38 1 16 36
M  V30 39 1 16 37
M  V30 40 1 17 38
M  V30 41 1 17 39
M  V30 42 1 18 40
M  V30 43 1 18 41
M  V30 44 1 19 42
M  V30 45 1 20 43
M  V30 46 1 20 44
M  V30 47 1 21 45
M  V30 48 1 23 46
M  V30 END BOND
M  V30 END CTAB
M  END
>  <Dataset>  (957) 
ChEMBL_Kinases

>  <Ligand_Instance>  (957) 
nan

>  <PDB_ID>  (957) 
nan

>  <Standardized_SMILES>  (957) 
CNc1nc(Nc2cnc(C#N)c(O[C@H]3CCCNC3)c2)ncc1C(F)(F)F

>  <Name>  (957) 
nan

>  <Pocket>  (957) 
nan

>  <ATP_Site>  (957) 
nan

>  <Peripheral>  (957) 
nan

>  <Num_H_Atoms_ProtBoundConf>  (957) 
nan

>  <Num_Resolved_Atoms>  (957) 
nan

>  <Num_Not_Resolved_Atoms>  (957) 
nan

$$$$
CHEMBL4849148
     RDKit          3D

  0  0  0  0  0  0  0  0  0  0999 V3000
M  V30 BEGIN CTAB
M  V30 COUNTS 68 71 0 0 0
M  V30 BEGIN ATOM
M  V30 1 C 5.571888 -1.539513 0.693069 0
M  V30 2 O 4.633568 -0.620251 0.226175 0
M  V30 3 C 4.678094 0.749727 0.445849 0
M  V30 4 C 5.711795 1.278212 1.175317 0
M  V30 5 C 5.713073 2.661449 1.369435 0
M  V30 6 F 6.710059 3.241566 2.082713 0
M  V30 7 C 4.705377 3.456613 0.841478 0
M  V30 8 C 3.680034 2.893091 0.112438 0
M  V30 9 C 2.550756 3.687627 -0.491507 0 CFG=1
M  V30 10 C 2.838983 3.801787 -1.963875 0
M  V30 11 O 1.802996 4.460067 -2.631161 0
M  V30 12 N 1.358593 2.964002 -0.194751 0
M  V30 13 C 0.349138 3.508827 0.629059 0
M  V30 14 O 0.493003 4.675703 1.132204 0
M  V30 15 C -0.985240 3.002745 1.108119 0 CFG=1
M  V30 16 C -2.063888 4.028658 1.041334 0
M  V30 17 N -1.255887 1.775746 0.419561 0
M  V30 18 C -1.595303 1.594347 -0.963102 0
M  V30 19 C -1.739994 0.097901 -1.037669 0
M  V30 20 C -2.054470 -0.544742 -2.217688 0
M  V30 21 C -2.182316 -1.919108 -2.218354 0
M  V30 22 C -1.993212 -2.625762 -1.038461 0
M  V30 23 C -2.087718 -4.072072 -0.856190 0
M  V30 24 N -2.740978 -4.654228 0.182416 0
M  V30 25 C -2.820749 -5.974601 0.339041 0
M  V30 26 N -3.513107 -6.551742 1.439443 0
M  V30 27 C -4.154816 -5.708715 2.426228 0 CFG=1
M  V30 28 C -4.814293 -6.574240 3.483804 0
M  V30 29 C -3.173784 -4.820474 3.172008 0
M  V30 30 O -3.938366 -4.073765 4.081806 0
M  V30 31 N -2.226705 -6.763410 -0.574004 0
M  V30 32 C -1.563043 -6.253909 -1.627209 0
M  V30 33 C -1.479168 -4.883397 -1.791432 0
M  V30 34 Cl -0.601517 -4.301141 -3.180825 0
M  V30 35 C -1.679302 -1.941463 0.120260 0
M  V30 36 C -1.543761 -0.567341 0.155916 0
M  V30 37 C -1.232776 0.502033 1.099938 0
M  V30 38 O -0.993170 0.232185 2.320539 0
M  V30 39 C 3.654518 1.514556 -0.096444 0
M  V30 40 H 6.565035 -1.488439 0.205278 0
M  V30 41 H 5.718576 -1.464362 1.803594 0
M  V30 42 H 5.141818 -2.559410 0.518350 0
M  V30 43 H 6.489864 0.640466 1.579740 0
M  V30 44 H 4.704165 4.517546 0.989035 0
M  V30 45 H 2.599301 4.672983 -0.033523 0
M  V30 46 H 3.059555 2.815625 -2.411297 0
M  V30 47 H 3.752728 4.418990 -2.088831 0
M  V30 48 H 0.975757 3.937745 -2.674745 0
M  V30 49 H 1.095263 2.013763 -0.511699 0
M  V30 50 H -0.803169 2.754552 2.194281 0
M  V30 51 H -1.622727 5.030089 1.255482 0
M  V30 52 H -2.824078 3.851966 1.832380 0
M  V30 53 H -2.617915 4.036730 0.071379 0
M  V30 54 H -0.933138 2.014099 -1.702532 0
M  V30 55 H -2.619588 2.069684 -1.073010 0
M  V30 56 H -2.220384 -0.103057 -3.176116 0
M  V30 57 H -2.423685 -2.521287 -3.076715 0
M  V30 58 H -3.557994 -7.589824 1.534924 0
M  V30 59 H -4.913511 -5.037344 1.970326 0
M  V30 60 H -5.151820 -7.556018 3.051636 0
M  V30 61 H -5.664828 -6.048959 3.934021 0
M  V30 62 H -4.064629 -6.794137 4.251409 0
M  V30 63 H -2.505845 -5.485917 3.729767 0
M  V30 64 H -2.636967 -4.122375 2.499459 0
M  V30 65 H -4.631540 -3.589681 3.544881 0
M  V30 66 H -1.104041 -6.931480 -2.330984 0
M  V30 67 H -1.513528 -2.421939 1.094425 0
M  V30 68 H 2.871789 1.022155 -0.661624 0
M  V30 END ATOM
M  V30 BEGIN BOND
M  V30 1 1 1 2
M  V30 2 1 2 3
M  V30 3 2 3 4
M  V30 4 1 4 5
M  V30 5 1 5 6
M  V30 6 2 5 7
M  V30 7 1 7 8
M  V30 8 1 8 9
M  V30 9 1 9 10
M  V30 10 1 10 11
M  V30 11 1 9 12
M  V30 12 1 12 13
M  V30 13 2 13 14
M  V30 14 1 13 15
M  V30 15 1 15 16
M  V30 16 1 15 17
M  V30 17 1 17 18
M  V30 18 1 18 19
M  V30 19 2 19 20
M  V30 20 1 20 21
M  V30 21 2 21 22
M  V30 22 1 22 23
M  V30 23 2 23 24
M  V30 24 1 24 25
M  V30 25 1 25 26
M  V30 26 1 26 27
M  V30 27 1 27 28
M  V30 28 1 27 29
M  V30 29 1 29 30
M  V30 30 2 25 31
M  V30 31 1 31 32
M  V30 32 2 32 33
M  V30 33 1 33 34
M  V30 34 1 22 35
M  V30 35 2 35 36
M  V30 36 1 36 37
M  V30 37 2 37 38
M  V30 38 2 8 39
M  V30 39 1 39 3
M  V30 40 1 37 17
M  V30 41 1 36 19
M  V30 42 1 33 23
M  V30 43 1 1 40
M  V30 44 1 1 41
M  V30 45 1 1 42
M  V30 46 1 4 43
M  V30 47 1 7 44
M  V30 48 1 9 45 CFG=1
M  V30 49 1 10 46
M  V30 50 1 10 47
M  V30 51 1 11 48
M  V30 52 1 12 49
M  V30 53 1 15 50 CFG=1
M  V30 54 1 16 51
M  V30 55 1 16 52
M  V30 56 1 16 53
M  V30 57 1 18 54
M  V30 58 1 18 55
M  V30 59 1 20 56
M  V30 60 1 21 57
M  V30 61 1 26 58
M  V30 62 1 27 59 CFG=3
M  V30 63 1 28 60
M  V30 64 1 28 61
M  V30 65 1 28 62
M  V30 66 1 29 63
M  V30 67 1 29 64
M  V30 68 1 30 65
M  V30 69 1 32 66
M  V30 70 1 35 67
M  V30 71 1 39 68
M  V30 END BOND
M  V30 END CTAB
M  END
>  <Dataset>  (958) 
ChEMBL_Kinases

>  <Ligand_Instance>  (958) 
nan

>  <PDB_ID>  (958) 
nan

>  <Standardized_SMILES>  (958) 
COc1cc(F)cc([C@@H](CO)NC(=O)[C@@H](C)N2Cc3ccc(-c4nc(N[C@@H](C)CO)ncc4Cl)cc3C2=O)c1

>  <Name>  (958) 
nan

>  <Pocket>  (958) 
nan

>  <ATP_Site>  (958) 
nan

>  <Peripheral>  (958) 
nan

>  <Num_H_Atoms_ProtBoundConf>  (958) 
nan

>  <Num_Resolved_Atoms>  (958) 
nan

>  <Num_Not_Resolved_Atoms>  (958) 
nan

$$$$
CHEMBL4849149
     RDKit          3D

  0  0  0  0  0  0  0  0  0  0999 V3000
M  V30 BEGIN CTAB
M  V30 COUNTS 58 60 0 0 0
M  V30 BEGIN ATOM
M  V30 1 C -0.287780 -3.436288 3.902491 0
M  V30 2 C 0.013606 -2.182010 3.175833 0
M  V30 3 C 1.093168 -1.461474 3.610524 0
M  V30 4 C 1.434257 -0.289567 2.985340 0
M  V30 5 N 2.412883 0.728485 3.068724 0
M  V30 6 C 3.682288 0.944169 2.445143 0
M  V30 7 O 4.030981 0.016706 1.637892 0
M  V30 8 C 4.439861 2.203815 2.792328 0 CFG=2
M  V30 9 O 3.883381 2.723066 3.951871 0
M  V30 10 C 4.162923 3.209664 1.696697 0
M  V30 11 C 3.734954 2.817643 0.451434 0
M  V30 12 C 3.431455 3.655249 -0.599415 0
M  V30 13 F 3.009584 3.200925 -1.805032 0
M  V30 14 C 3.572885 5.026814 -0.386319 0
M  V30 15 C 4.009401 5.462504 0.870691 0
M  V30 16 F 4.126268 6.805568 1.013957 0
M  V30 17 C 4.291632 4.581407 1.869270 0
M  V30 18 C 0.637363 0.121875 1.904660 0
M  V30 19 C -0.473732 -0.599008 1.439853 0
M  V30 20 C -0.778837 -1.790368 2.113971 0
M  V30 21 C -1.908343 -2.594352 1.700493 0
M  V30 22 C -2.999805 -3.144967 2.387672 0
M  V30 23 N -3.913350 -3.882143 1.753567 0
M  V30 24 C -3.895091 -4.168272 0.446215 0
M  V30 25 C -4.959107 -4.989100 -0.180786 0
M  V30 26 C -2.835983 -3.650615 -0.302186 0
M  V30 27 C -2.714825 -3.919965 -1.734414 0
M  V30 28 O -2.730858 -5.080524 -2.204214 0
M  V30 29 N -2.572153 -2.699682 -2.500615 0
M  V30 30 C -2.417072 -2.536172 -3.919617 0
M  V30 31 C -3.433455 -1.633360 -4.557484 0
M  V30 32 C -1.063406 -1.826355 -4.110235 0
M  V30 33 C -1.877290 -2.886784 0.327511 0
M  V30 34 H -0.763411 -4.188666 3.239167 0
M  V30 35 H -0.857419 -3.271630 4.847043 0
M  V30 36 H 0.680877 -3.893024 4.204782 0
M  V30 37 H 1.783069 -1.639771 4.410848 0
M  V30 38 H 2.054781 1.429811 3.750275 0
M  V30 39 H 5.488976 1.964390 2.868187 0
M  V30 40 H 3.094559 3.277768 3.740918 0
M  V30 41 H 3.598649 1.761295 0.195931 0
M  V30 42 H 3.318754 5.654715 -1.237977 0
M  V30 43 H 4.626813 4.953551 2.819121 0
M  V30 44 H 0.701166 1.008410 1.244857 0
M  V30 45 H -1.137917 -0.370316 0.629046 0
M  V30 46 H -2.954088 -2.877727 3.435025 0
M  V30 47 H -4.616722 -6.006138 -0.408461 0
M  V30 48 H -5.452217 -4.496869 -1.045675 0
M  V30 49 H -5.780191 -5.092771 0.597873 0
M  V30 50 H -2.567510 -1.748903 -2.072967 0
M  V30 51 H -2.357896 -3.476042 -4.477665 0
M  V30 52 H -4.419378 -2.125921 -4.569040 0
M  V30 53 H -3.435063 -0.607297 -4.195761 0
M  V30 54 H -3.125555 -1.561083 -5.638159 0
M  V30 55 H -1.023459 -0.947525 -3.405645 0
M  V30 56 H -0.906618 -1.481003 -5.138121 0
M  V30 57 H -0.227586 -2.501963 -3.817816 0
M  V30 58 H -1.083807 -2.528026 -0.334341 0
M  V30 END ATOM
M  V30 BEGIN BOND
M  V30 1 1 1 2
M  V30 2 2 2 3
M  V30 3 1 3 4
M  V30 4 1 4 5
M  V30 5 1 5 6
M  V30 6 2 6 7
M  V30 7 1 6 8
M  V30 8 1 8 9
M  V30 9 1 8 10
M  V30 10 2 10 11
M  V30 11 1 11 12
M  V30 12 1 12 13
M  V30 13 2 12 14
M  V30 14 1 14 15
M  V30 15 1 15 16
M  V30 16 2 15 17
M  V30 17 2 4 18
M  V30 18 1 18 19
M  V30 19 2 19 20
M  V30 20 1 20 21
M  V30 21 2 21 22
M  V30 22 1 22 23
M  V30 23 2 23 24
M  V30 24 1 24 25
M  V30 25 1 24 26
M  V30 26 1 26 27
M  V30 27 2 27 28
M  V30 28 1 27 29
M  V30 29 1 29 30
M  V30 30 1 30 31
M  V30 31 1 30 32
M  V30 32 2 26 33
M  V30 33 1 20 2
M  V30 34 1 33 21
M  V30 35 1 17 10
M  V30 36 1 1 34
M  V30 37 1 1 35
M  V30 38 1 1 36
M  V30 39 1 3 37
M  V30 40 1 5 38
M  V30 41 1 8 39 CFG=1
M  V30 42 1 9 40
M  V30 43 1 11 41
M  V30 44 1 14 42
M  V30 45 1 17 43
M  V30 46 1 18 44
M  V30 47 1 19 45
M  V30 48 1 22 46
M  V30 49 1 25 47
M  V30 50 1 25 48
M  V30 51 1 25 49
M  V30 52 1 29 50
M  V30 53 1 30 51
M  V30 54 1 31 52
M  V30 55 1 31 53
M  V30 56 1 31 54
M  V30 57 1 32 55
M  V30 58 1 32 56
M  V30 59 1 32 57
M  V30 60 1 33 58
M  V30 END BOND
M  V30 END CTAB
M  END
>  <Dataset>  (959) 
ChEMBL_Kinases

>  <Ligand_Instance>  (959) 
nan

>  <PDB_ID>  (959) 
nan

>  <Standardized_SMILES>  (959) 
Cc1cc(NC(=O)[C@H](O)c2cc(F)cc(F)c2)ccc1-c1cnc(C)c(C(=O)NC(C)C)c1

>  <Name>  (959) 
nan

>  <Pocket>  (959) 
nan

>  <ATP_Site>  (959) 
nan

>  <Peripheral>  (959) 
nan

>  <Num_H_Atoms_ProtBoundConf>  (959) 
nan

>  <Num_Resolved_Atoms>  (959) 
nan

>  <Num_Not_Resolved_Atoms>  (959) 
nan

$$$$
CHEMBL4849172
     RDKit          3D

  0  0  0  0  0  0  0  0  0  0999 V3000
M  V30 BEGIN CTAB
M  V30 COUNTS 25 27 0 0 0
M  V30 BEGIN ATOM
M  V30 1 F 0.637417 -3.023875 5.189495 0
M  V30 2 C 0.686640 -2.263988 4.068698 0
M  V30 3 C -0.430733 -2.257573 3.273234 0
M  V30 4 C -0.346205 -1.469068 2.133803 0
M  V30 5 C 0.780591 -0.739163 1.816364 0
M  V30 6 C 1.093301 0.097777 0.763789 0
M  V30 7 C 0.258616 0.461116 -0.375438 0
M  V30 8 C -0.459161 -0.500188 -1.056188 0
M  V30 9 C -1.262826 -0.177201 -2.146679 0
M  V30 10 C -1.277343 1.178813 -2.483148 0
M  V30 11 C -0.578047 2.176677 -1.834318 0
M  V30 12 C 0.207721 1.789417 -0.751330 0
M  V30 13 N 2.359434 0.543426 0.976547 0
M  V30 14 N 2.837064 0.019963 2.108265 0
M  V30 15 C 1.888745 -0.776678 2.652628 0
M  V30 16 C 1.846948 -1.555696 3.807684 0
M  V30 17 H -1.321321 -2.809809 3.486632 0
M  V30 18 H -1.209162 -1.440284 1.483297 0
M  V30 19 H -0.440037 -1.542296 -0.787610 0
M  V30 20 H -1.827162 -0.900689 -2.689499 0
M  V30 21 H -1.912595 1.423844 -3.342755 0
M  V30 22 H -0.687251 3.187623 -2.209431 0
M  V30 23 H 0.746093 2.587659 -0.258836 0
M  V30 24 H 3.798481 0.191736 2.523104 0
M  V30 25 H 2.696239 -1.606177 4.481654 0
M  V30 END ATOM
M  V30 BEGIN BOND
M  V30 1 1 1 2
M  V30 2 2 2 3
M  V30 3 1 3 4
M  V30 4 2 4 5
M  V30 5 1 5 6
M  V30 6 1 6 7
M  V30 7 2 7 8
M  V30 8 1 8 9
M  V30 9 2 9 10
M  V30 10 1 10 11
M  V30 11 2 11 12
M  V30 12 2 6 13
M  V30 13 1 13 14
M  V30 14 1 14 15
M  V30 15 2 15 16
M  V30 16 1 16 2
M  V30 17 1 15 5
M  V30 18 1 12 7
M  V30 19 1 3 17
M  V30 20 1 4 18
M  V30 21 1 8 19
M  V30 22 1 9 20
M  V30 23 1 10 21
M  V30 24 1 11 22
M  V30 25 1 12 23
M  V30 26 1 14 24
M  V30 27 1 16 25
M  V30 END BOND
M  V30 END CTAB
M  END
>  <Dataset>  (960) 
ChEMBL_Kinases

>  <Ligand_Instance>  (960) 
nan

>  <PDB_ID>  (960) 
nan

>  <Standardized_SMILES>  (960) 
Fc1ccc2c(-c3ccccc3)n[nH]c2c1

>  <Name>  (960) 
nan

>  <Pocket>  (960) 
nan

>  <ATP_Site>  (960) 
nan

>  <Peripheral>  (960) 
nan

>  <Num_H_Atoms_ProtBoundConf>  (960) 
nan

>  <Num_Resolved_Atoms>  (960) 
nan

>  <Num_Not_Resolved_Atoms>  (960) 
nan

$$$$
CHEMBL4086818
     RDKit          3D

  0  0  0  0  0  0  0  0  0  0999 V3000
M  V30 BEGIN CTAB
M  V30 COUNTS 27 29 0 0 0
M  V30 BEGIN ATOM
M  V30 1 N -2.709340 -3.085471 3.332715 0
M  V30 2 C -2.294181 -2.438334 2.133772 0
M  V30 3 C -0.967653 -2.036338 2.043098 0
M  V30 4 C -0.600624 -1.407881 0.856636 0
M  V30 5 C 0.771646 -0.948371 0.664760 0
M  V30 6 C 1.951257 -1.613867 0.944398 0
M  V30 7 N 3.011144 -0.828357 0.615629 0
M  V30 8 C 2.555154 0.338240 0.126285 0
M  V30 9 C 3.274182 1.424946 -0.328947 0
M  V30 10 Cl 5.025678 1.480233 -0.351215 0
M  V30 11 C 2.522043 2.508906 -0.783798 0
M  V30 12 C 1.127327 2.525353 -0.791423 0
M  V30 13 C 0.513112 1.381631 -0.312233 0
M  V30 14 C 1.175850 0.285482 0.147678 0
M  V30 15 C -1.552637 -1.229225 -0.127243 0
M  V30 16 C -2.879197 -1.652529 0.011259 0
M  V30 17 N -3.215262 -2.258309 1.165765 0
M  V30 18 H -2.521760 -2.549322 4.225935 0
M  V30 19 H -3.178723 -4.033303 3.415570 0
M  V30 20 H -0.263911 -2.200636 2.842733 0
M  V30 21 H 1.970618 -2.612701 1.363176 0
M  V30 22 H 4.019938 -1.111331 0.734805 0
M  V30 23 H 3.032594 3.395064 -1.155063 0
M  V30 24 H 0.593398 3.392951 -1.155448 0
M  V30 25 H -0.560016 1.392893 -0.317483 0
M  V30 26 H -1.333549 -0.753651 -1.061049 0
M  V30 27 H -3.621430 -1.510434 -0.762078 0
M  V30 END ATOM
M  V30 BEGIN BOND
M  V30 1 1 1 2
M  V30 2 2 2 3
M  V30 3 1 3 4
M  V30 4 1 4 5
M  V30 5 2 5 6
M  V30 6 1 6 7
M  V30 7 1 7 8
M  V30 8 2 8 9
M  V30 9 1 9 10
M  V30 10 1 9 11
M  V30 11 2 11 12
M  V30 12 1 12 13
M  V30 13 2 13 14
M  V30 14 2 4 15
M  V30 15 1 15 16
M  V30 16 2 16 17
M  V30 17 1 17 2
M  V30 18 1 14 5
M  V30 19 1 14 8
M  V30 20 1 1 18
M  V30 21 1 1 19
M  V30 22 1 3 20
M  V30 23 1 6 21
M  V30 24 1 7 22
M  V30 25 1 11 23
M  V30 26 1 12 24
M  V30 27 1 13 25
M  V30 28 1 15 26
M  V30 29 1 16 27
M  V30 END BOND
M  V30 END CTAB
M  END
>  <Dataset>  (961) 
ChEMBL_Kinases

>  <Ligand_Instance>  (961) 
nan

>  <PDB_ID>  (961) 
nan

>  <Standardized_SMILES>  (961) 
Nc1cc(-c2c[nH]c3c(Cl)cccc23)ccn1

>  <Name>  (961) 
nan

>  <Pocket>  (961) 
nan

>  <ATP_Site>  (961) 
nan

>  <Peripheral>  (961) 
nan

>  <Num_H_Atoms_ProtBoundConf>  (961) 
nan

>  <Num_Resolved_Atoms>  (961) 
nan

>  <Num_Not_Resolved_Atoms>  (961) 
nan

$$$$
CHEMBL4849181
     RDKit          3D

  0  0  0  0  0  0  0  0  0  0999 V3000
M  V30 BEGIN CTAB
M  V30 COUNTS 37 40 0 0 0
M  V30 BEGIN ATOM
M  V30 1 N 2.722093 -6.303348 1.668531 0
M  V30 2 C 2.091002 -5.039001 1.429548 0
M  V30 3 C 1.355381 -4.544762 2.461523 0
M  V30 4 C 0.686298 -3.340722 2.390623 0
M  V30 5 C 0.752347 -2.592905 1.236593 0
M  V30 6 C 0.149522 -1.324173 0.882368 0
M  V30 7 C 1.045901 -0.365023 0.408563 0
M  V30 8 C 0.598511 0.891647 0.061284 0
M  V30 9 C 1.527323 1.825615 -0.409128 0
M  V30 10 C 1.070508 3.080678 -0.754048 0
M  V30 11 C 2.038703 4.054648 -1.244559 0
M  V30 12 O 3.260324 3.788407 -1.360845 0
M  V30 13 O 1.659942 5.339900 -1.612807 0
M  V30 14 C -0.251236 3.464804 -0.660498 0
M  V30 15 C -1.162707 2.526547 -0.191571 0
M  V30 16 C -0.722272 1.275279 0.154815 0
M  V30 17 C -1.584305 0.330389 0.617382 0
M  V30 18 C -2.919312 0.625317 0.735851 0
M  V30 19 N -3.780958 -0.315346 1.189531 0
M  V30 20 C -3.363253 -1.551532 1.533799 0
M  V30 21 C -2.032084 -1.878556 1.426847 0
M  V30 22 C -1.160061 -0.924620 0.967824 0
M  V30 23 C 1.522676 -3.147355 0.206032 0
M  V30 24 N 2.181197 -4.338211 0.284303 0
M  V30 25 H 3.132208 -6.523373 2.607610 0
M  V30 26 H 2.837942 -7.077352 1.006428 0
M  V30 27 H 1.217673 -5.031462 3.429687 0
M  V30 28 H 0.098751 -2.889009 3.166395 0
M  V30 29 H 2.105452 -0.568531 0.298341 0
M  V30 30 H 2.563031 1.599427 -0.507579 0
M  V30 31 H 2.237738 5.934359 -2.218976 0
M  V30 32 H -0.554770 4.460943 -0.944200 0
M  V30 33 H -2.174441 2.875721 -0.138446 0
M  V30 34 H -3.409418 1.549711 0.507118 0
M  V30 35 H -4.098329 -2.271374 1.892969 0
M  V30 36 H -1.723994 -2.869430 1.698575 0
M  V30 37 H 1.680262 -2.683730 -0.776911 0
M  V30 END ATOM
M  V30 BEGIN BOND
M  V30 1 1 1 2
M  V30 2 2 2 3
M  V30 3 1 3 4
M  V30 4 2 4 5
M  V30 5 1 5 6
M  V30 6 2 6 7
M  V30 7 1 7 8
M  V30 8 2 8 9
M  V30 9 1 9 10
M  V30 10 1 10 11
M  V30 11 2 11 12
M  V30 12 1 11 13
M  V30 13 2 10 14
M  V30 14 1 14 15
M  V30 15 2 15 16
M  V30 16 1 16 17
M  V30 17 2 17 18
M  V30 18 1 18 19
M  V30 19 2 19 20
M  V30 20 1 20 21
M  V30 21 2 21 22
M  V30 22 1 5 23
M  V30 23 2 23 24
M  V30 24 1 24 2
M  V30 25 1 22 6
M  V30 26 1 16 8
M  V30 27 1 22 17
M  V30 28 1 1 25
M  V30 29 1 1 26
M  V30 30 1 3 27
M  V30 31 1 4 28
M  V30 32 1 7 29
M  V30 33 1 9 30
M  V30 34 1 13 31
M  V30 35 1 14 32
M  V30 36 1 15 33
M  V30 37 1 18 34
M  V30 38 1 20 35
M  V30 39 1 21 36
M  V30 40 1 23 37
M  V30 END BOND
M  V30 END CTAB
M  END
>  <Dataset>  (962) 
ChEMBL_Kinases

>  <Ligand_Instance>  (962) 
nan

>  <PDB_ID>  (962) 
nan

>  <Standardized_SMILES>  (962) 
Nc1ccc(-c2cc3cc(C(=O)O)ccc3c3cnccc23)cn1

>  <Name>  (962) 
nan

>  <Pocket>  (962) 
nan

>  <ATP_Site>  (962) 
nan

>  <Peripheral>  (962) 
nan

>  <Num_H_Atoms_ProtBoundConf>  (962) 
nan

>  <Num_Resolved_Atoms>  (962) 
nan

>  <Num_Not_Resolved_Atoms>  (962) 
nan

$$$$
CHEMBL4086790
     RDKit          3D

  0  0  0  0  0  0  0  0  0  0999 V3000
M  V30 BEGIN CTAB
M  V30 COUNTS 42 45 0 0 0
M  V30 BEGIN ATOM
M  V30 1 C -0.460957 -6.160442 1.315060 0
M  V30 2 C 0.806594 -5.730453 1.960082 0
M  V30 3 N 1.661950 -6.407309 2.721836 0
M  V30 4 N 2.667961 -5.633053 3.087488 0
M  V30 5 C 2.544477 -4.372478 2.584839 0
M  V30 6 C 1.366166 -4.475466 1.885113 0
M  V30 7 C 0.763460 -3.358008 1.132197 0
M  V30 8 C 1.218749 -2.059845 0.977392 0
M  V30 9 C 0.437674 -1.239298 0.213631 0
M  V30 10 N 0.661520 0.054687 -0.083638 0
M  V30 11 C -0.183639 0.761611 -0.848643 0
M  V30 12 C 0.195755 2.199567 -1.097442 0
M  V30 13 C -0.993918 2.929978 -1.640401 0
M  V30 14 N 0.631487 2.853825 0.087485 0
M  V30 15 C -0.302169 2.933759 1.157675 0
M  V30 16 C 0.390547 2.350822 2.363062 0
M  V30 17 C 1.841818 2.678244 2.096343 0
M  V30 18 C 1.923668 2.551232 0.575260 0
M  V30 19 N -1.317639 0.296654 -1.398125 0
M  V30 20 C -1.586571 -0.990251 -1.131345 0
M  V30 21 O -2.590093 -1.590429 -1.553916 0
M  V30 22 C -0.736487 -1.763920 -0.340704 0
M  V30 23 S -0.740703 -3.429408 0.219178 0
M  V30 24 H -0.456326 -5.963198 0.223709 0
M  V30 25 H -1.332334 -5.640557 1.795240 0
M  V30 26 H -0.632003 -7.244420 1.475654 0
M  V30 27 H 3.469112 -5.970585 3.700853 0
M  V30 28 H 3.201819 -3.525989 2.708750 0
M  V30 29 H 2.143433 -1.789748 1.462270 0
M  V30 30 H 1.005182 2.221416 -1.831535 0
M  V30 31 H -1.080455 2.858859 -2.740124 0
M  V30 32 H -1.934784 2.699099 -1.126241 0
M  V30 33 H -0.822732 4.028890 -1.443946 0
M  V30 34 H -1.277693 2.448778 0.957044 0
M  V30 35 H -0.470131 4.018684 1.385521 0
M  V30 36 H 0.040667 2.853466 3.309804 0
M  V30 37 H 0.190219 1.263305 2.397495 0
M  V30 38 H 2.032660 3.716064 2.410817 0
M  V30 39 H 2.544054 1.955627 2.575370 0
M  V30 40 H 2.406096 1.639848 0.237082 0
M  V30 41 H 2.604783 3.387714 0.240533 0
M  V30 42 H -1.966324 0.850182 -1.989010 0
M  V30 END ATOM
M  V30 BEGIN BOND
M  V30 1 1 1 2
M  V30 2 2 2 3
M  V30 3 1 3 4
M  V30 4 1 4 5
M  V30 5 2 5 6
M  V30 6 1 6 7
M  V30 7 2 7 8
M  V30 8 1 8 9
M  V30 9 1 9 10
M  V30 10 2 10 11
M  V30 11 1 11 12
M  V30 12 1 12 13
M  V30 13 1 12 14
M  V30 14 1 14 15
M  V30 15 1 15 16
M  V30 16 1 16 17
M  V30 17 1 17 18
M  V30 18 1 11 19
M  V30 19 1 19 20
M  V30 20 2 20 21
M  V30 21 1 20 22
M  V30 22 1 22 23
M  V30 23 1 6 2
M  V30 24 1 23 7
M  V30 25 2 22 9
M  V30 26 1 18 14
M  V30 27 1 1 24
M  V30 28 1 1 25
M  V30 29 1 1 26
M  V30 30 1 4 27
M  V30 31 1 5 28
M  V30 32 1 8 29
M  V30 33 1 12 30
M  V30 34 1 13 31
M  V30 35 1 13 32
M  V30 36 1 13 33
M  V30 37 1 15 34
M  V30 38 1 15 35
M  V30 39 1 16 36
M  V30 40 1 16 37
M  V30 41 1 17 38
M  V30 42 1 17 39
M  V30 43 1 18 40
M  V30 44 1 18 41
M  V30 45 1 19 42
M  V30 END BOND
M  V30 END CTAB
M  END
>  <Dataset>  (963) 
ChEMBL_Kinases

>  <Ligand_Instance>  (963) 
nan

>  <PDB_ID>  (963) 
nan

>  <Standardized_SMILES>  (963) 
Cc1n[nH]cc1-c1cc2nc(C(C)N3CCCC3)[nH]c(=O)c2s1

>  <Name>  (963) 
nan

>  <Pocket>  (963) 
nan

>  <ATP_Site>  (963) 
nan

>  <Peripheral>  (963) 
nan

>  <Num_H_Atoms_ProtBoundConf>  (963) 
nan

>  <Num_Resolved_Atoms>  (963) 
nan

>  <Num_Not_Resolved_Atoms>  (963) 
nan

$$$$
CHEMBL4849189
     RDKit          3D

  0  0  0  0  0  0  0  0  0  0999 V3000
M  V30 BEGIN CTAB
M  V30 COUNTS 33 35 0 0 0
M  V30 BEGIN ATOM
M  V30 1 C -0.812614 -2.106202 4.372047 0
M  V30 2 C -0.639811 -1.479582 3.048513 0
M  V30 3 C 0.307638 -1.898398 2.140066 0
M  V30 4 C 0.519599 -1.343155 0.877739 0
M  V30 5 C 1.547395 -1.866022 -0.017017 0
M  V30 6 C 2.429394 -2.870459 0.337084 0
M  V30 7 N 3.199888 -3.055313 -0.761653 0
M  V30 8 N 2.829504 -2.233409 -1.726862 0
M  V30 9 N 3.361767 -2.133764 -2.961421 0
M  V30 10 C 2.774919 -1.192054 -3.767065 0
M  V30 11 C 1.720613 -0.376244 -3.412203 0
M  V30 12 C 1.210246 -0.519310 -2.130154 0
M  V30 13 C 1.784698 -1.453316 -1.312839 0
M  V30 14 N -0.315369 -0.302285 0.582495 0
M  V30 15 C -1.243162 0.118427 1.455510 0
M  V30 16 N -2.100412 1.237109 1.155091 0
M  V30 17 C -1.871580 2.377343 2.007958 0
M  V30 18 C -3.154364 1.471113 0.155532 0
M  V30 19 N -1.428213 -0.432081 2.663942 0
M  V30 20 H -1.632509 -2.878659 4.321543 0
M  V30 21 H -1.143625 -1.308823 5.103621 0
M  V30 22 H 0.111890 -2.552161 4.763269 0
M  V30 23 H 0.931847 -2.721309 2.433451 0
M  V30 24 H 2.496509 -3.406819 1.291989 0
M  V30 25 H 3.252989 -1.155817 -4.760695 0
M  V30 26 H 1.339037 0.329628 -4.129477 0
M  V30 27 H 0.385713 0.095136 -1.806676 0
M  V30 28 H -1.325815 2.118095 2.942743 0
M  V30 29 H -1.413446 3.232709 1.514954 0
M  V30 30 H -2.898223 2.709775 2.342856 0
M  V30 31 H -3.352951 0.599971 -0.470921 0
M  V30 32 H -4.085427 1.703844 0.700617 0
M  V30 33 H -2.845145 2.309959 -0.518932 0
M  V30 END ATOM
M  V30 BEGIN BOND
M  V30 1 1 1 2
M  V30 2 2 2 3
M  V30 3 1 3 4
M  V30 4 1 4 5
M  V30 5 1 5 6
M  V30 6 2 6 7
M  V30 7 1 7 8
M  V30 8 1 8 9
M  V30 9 2 9 10
M  V30 10 1 10 11
M  V30 11 2 11 12
M  V30 12 1 12 13
M  V30 13 2 4 14
M  V30 14 1 14 15
M  V30 15 1 15 16
M  V30 16 1 16 17
M  V30 17 1 16 18
M  V30 18 2 15 19
M  V30 19 1 19 2
M  V30 20 2 13 5
M  V30 21 1 13 8
M  V30 22 1 1 20
M  V30 23 1 1 21
M  V30 24 1 1 22
M  V30 25 1 3 23
M  V30 26 1 6 24
M  V30 27 1 10 25
M  V30 28 1 11 26
M  V30 29 1 12 27
M  V30 30 1 17 28
M  V30 31 1 17 29
M  V30 32 1 17 30
M  V30 33 1 18 31
M  V30 34 1 18 32
M  V30 35 1 18 33
M  V30 END BOND
M  V30 END CTAB
M  END
>  <Dataset>  (964) 
ChEMBL_Kinases

>  <Ligand_Instance>  (964) 
nan

>  <PDB_ID>  (964) 
nan

>  <Standardized_SMILES>  (964) 
Cc1cc(-c2cnn3ncccc23)nc(N(C)C)n1

>  <Name>  (964) 
nan

>  <Pocket>  (964) 
nan

>  <ATP_Site>  (964) 
nan

>  <Peripheral>  (964) 
nan

>  <Num_H_Atoms_ProtBoundConf>  (964) 
nan

>  <Num_Resolved_Atoms>  (964) 
nan

>  <Num_Not_Resolved_Atoms>  (964) 
nan

$$$$
CHEMBL4086747
     RDKit          3D

  0  0  0  0  0  0  0  0  0  0999 V3000
M  V30 BEGIN CTAB
M  V30 COUNTS 42 45 0 0 0
M  V30 BEGIN ATOM
M  V30 1 N -1.994148 -6.326620 2.123463 0
M  V30 2 C -1.995083 -4.912469 2.341486 0
M  V30 3 N -2.023531 -4.320950 3.540839 0
M  V30 4 C -2.022280 -2.980140 3.658084 0
M  V30 5 N -1.991773 -2.219077 2.543404 0
M  V30 6 C -1.962409 -2.790451 1.309657 0
M  V30 7 N -1.933788 -1.797409 0.283396 0
M  V30 8 C -0.927502 -1.064939 -0.437970 0
M  V30 9 C -0.939314 -1.252565 -1.799831 0
M  V30 10 C 0.016200 -0.559627 -2.515608 0
M  V30 11 Cl 0.056452 -0.752126 -4.245135 0
M  V30 12 C 0.920482 0.266724 -1.886529 0
M  V30 13 N 0.924738 0.444129 -0.552845 0
M  V30 14 C -0.011260 -0.232089 0.166669 0
M  V30 15 O -0.153028 -0.185497 1.414941 0
M  V30 16 C 1.957010 1.349964 -0.076031 0
M  V30 17 C 3.026901 0.657773 0.692258 0
M  V30 18 C 2.867221 0.594086 2.159037 0
M  V30 19 C 2.101723 1.686644 2.810866 0
M  V30 20 C 1.757899 2.844388 1.958619 0
M  V30 21 C 1.409389 2.578265 0.537629 0
M  V30 22 N 2.580400 1.714415 -1.360930 0
M  V30 23 C 1.981163 1.072583 -2.462075 0
M  V30 24 O 2.378968 1.249954 -3.632014 0
M  V30 25 C -1.963609 -4.164578 1.186679 0
M  V30 26 Cl -1.923902 -4.727603 -0.461842 0
M  V30 27 H -1.027172 -6.562077 2.497286 0
M  V30 28 H -2.717187 -6.971359 1.717326 0
M  V30 29 H -2.045718 -2.550044 4.641033 0
M  V30 30 H -2.905919 -1.565570 0.008286 0
M  V30 31 H -1.641678 -1.896017 -2.302105 0
M  V30 32 H 4.011476 1.119193 0.451433 0
M  V30 33 H 3.105443 -0.384644 0.265366 0
M  V30 34 H 2.386586 -0.387096 2.425448 0
M  V30 35 H 3.900773 0.483826 2.605953 0
M  V30 36 H 2.705167 2.074544 3.659705 0
M  V30 37 H 1.174636 1.287249 3.318710 0
M  V30 38 H 2.546068 3.644295 2.043781 0
M  V30 39 H 0.853183 3.337684 2.414944 0
M  V30 40 H 0.289067 2.543255 0.381480 0
M  V30 41 H 1.716059 3.473917 -0.051233 0
M  V30 42 H 3.377190 2.387515 -1.341917 0
M  V30 END ATOM
M  V30 BEGIN BOND
M  V30 1 1 1 2
M  V30 2 2 2 3
M  V30 3 1 3 4
M  V30 4 2 4 5
M  V30 5 1 5 6
M  V30 6 1 6 7
M  V30 7 1 7 8
M  V30 8 2 8 9
M  V30 9 1 9 10
M  V30 10 1 10 11
M  V30 11 2 10 12
M  V30 12 1 12 13
M  V30 13 1 13 14
M  V30 14 2 14 15
M  V30 15 1 13 16
M  V30 16 1 16 17
M  V30 17 1 17 18
M  V30 18 1 18 19
M  V30 19 1 19 20
M  V30 20 1 20 21
M  V30 21 1 16 22
M  V30 22 1 22 23
M  V30 23 2 23 24
M  V30 24 2 6 25
M  V30 25 1 25 26
M  V30 26 1 25 2
M  V30 27 1 14 8
M  V30 28 1 21 16
M  V30 29 1 23 12
M  V30 30 1 1 27
M  V30 31 1 1 28
M  V30 32 1 4 29
M  V30 33 1 7 30
M  V30 34 1 9 31
M  V30 35 1 17 32
M  V30 36 1 17 33
M  V30 37 1 18 34
M  V30 38 1 18 35
M  V30 39 1 19 36
M  V30 40 1 19 37
M  V30 41 1 20 38
M  V30 42 1 20 39
M  V30 43 1 21 40
M  V30 44 1 21 41
M  V30 45 1 22 42
M  V30 END BOND
M  V30 END CTAB
M  END
>  <Dataset>  (965) 
ChEMBL_Kinases

>  <Ligand_Instance>  (965) 
nan

>  <PDB_ID>  (965) 
nan

>  <Standardized_SMILES>  (965) 
Nc1ncnc(Nc2cc(Cl)c3n(c2=O)C2(CCCCC2)NC3=O)c1Cl

>  <Name>  (965) 
nan

>  <Pocket>  (965) 
nan

>  <ATP_Site>  (965) 
nan

>  <Peripheral>  (965) 
nan

>  <Num_H_Atoms_ProtBoundConf>  (965) 
nan

>  <Num_Resolved_Atoms>  (965) 
nan

>  <Num_Not_Resolved_Atoms>  (965) 
nan

$$$$
CHEMBL4849192
     RDKit          3D

  0  0  0  0  0  0  0  0  0  0999 V3000
M  V30 BEGIN CTAB
M  V30 COUNTS 28 30 0 0 0
M  V30 BEGIN ATOM
M  V30 1 C -3.135932 -2.780657 3.990887 0
M  V30 2 O -1.805057 -2.307152 4.147936 0
M  V30 3 C -1.035781 -1.897423 3.064992 0
M  V30 4 C 0.217394 -1.485217 3.503880 0
M  V30 5 C 1.174422 -1.025746 2.590323 0
M  V30 6 C 0.847630 -0.990996 1.248159 0
M  V30 7 C 1.811174 -0.519790 0.253654 0
M  V30 8 N 3.105220 -0.883479 0.228037 0
M  V30 9 N 3.727955 -0.297474 -0.784653 0
M  V30 10 C 2.869246 0.486910 -1.481481 0
M  V30 11 N 2.946056 1.286396 -2.562265 0
M  V30 12 C 1.829804 1.936633 -2.982481 0
M  V30 13 C 0.579232 1.841291 -2.370385 0
M  V30 14 Br -0.901656 2.800000 -3.054126 0
M  V30 15 C 0.539326 1.008888 -1.260701 0
M  V30 16 C 1.660069 0.339448 -0.816994 0
M  V30 17 C -0.401515 -1.403534 0.824989 0
M  V30 18 C -1.351304 -1.858199 1.720156 0
M  V30 19 H -3.736567 -2.628193 4.909245 0
M  V30 20 H -3.635385 -2.327976 3.094801 0
M  V30 21 H -3.072285 -3.873947 3.811676 0
M  V30 22 H 0.591517 -1.464535 4.518538 0
M  V30 23 H 2.169572 -0.691934 2.882914 0
M  V30 24 H 4.736863 -0.378034 -1.071467 0
M  V30 25 H 1.968696 2.562224 -3.858859 0
M  V30 26 H -0.414278 0.908549 -0.757619 0
M  V30 27 H -0.729388 -1.405508 -0.203734 0
M  V30 28 H -2.349420 -2.203530 1.517190 0
M  V30 END ATOM
M  V30 BEGIN BOND
M  V30 1 1 1 2
M  V30 2 1 2 3
M  V30 3 2 3 4
M  V30 4 1 4 5
M  V30 5 2 5 6
M  V30 6 1 6 7
M  V30 7 2 7 8
M  V30 8 1 8 9
M  V30 9 1 9 10
M  V30 10 2 10 11
M  V30 11 1 11 12
M  V30 12 2 12 13
M  V30 13 1 13 14
M  V30 14 1 13 15
M  V30 15 2 15 16
M  V30 16 1 6 17
M  V30 17 2 17 18
M  V30 18 1 18 3
M  V30 19 1 16 7
M  V30 20 1 16 10
M  V30 21 1 1 19
M  V30 22 1 1 20
M  V30 23 1 1 21
M  V30 24 1 4 22
M  V30 25 1 5 23
M  V30 26 1 9 24
M  V30 27 1 12 25
M  V30 28 1 15 26
M  V30 29 1 17 27
M  V30 30 1 18 28
M  V30 END BOND
M  V30 END CTAB
M  END
>  <Dataset>  (966) 
ChEMBL_Kinases

>  <Ligand_Instance>  (966) 
nan

>  <PDB_ID>  (966) 
nan

>  <Standardized_SMILES>  (966) 
COc1ccc(-c2n[nH]c3ncc(Br)cc23)cc1

>  <Name>  (966) 
nan

>  <Pocket>  (966) 
nan

>  <ATP_Site>  (966) 
nan

>  <Peripheral>  (966) 
nan

>  <Num_H_Atoms_ProtBoundConf>  (966) 
nan

>  <Num_Resolved_Atoms>  (966) 
nan

>  <Num_Not_Resolved_Atoms>  (966) 
nan

$$$$
CHEMBL4849247
     RDKit          3D

  0  0  0  0  0  0  0  0  0  0999 V3000
M  V30 BEGIN CTAB
M  V30 COUNTS 38 41 0 0 0
M  V30 BEGIN ATOM
M  V30 1 C 1.453759 -7.166525 3.227557 0
M  V30 2 O 1.416126 -5.750671 3.294097 0
M  V30 3 C 0.999264 -4.943078 2.267527 0
M  V30 4 O 0.695316 -5.758111 1.352594 0
M  V30 5 C 0.966438 -3.482702 2.352284 0
M  V30 6 C 1.374375 -2.862835 3.523933 0
M  V30 7 C 1.300467 -1.484664 3.488392 0
M  V30 8 C 0.864370 -0.755119 2.400949 0
M  V30 9 C 0.470513 -1.428288 1.260888 0
M  V30 10 C 0.519734 -2.812303 1.229280 0
M  V30 11 N 0.089456 -0.518073 0.343038 0
M  V30 12 C 0.243024 0.690440 0.899738 0
M  V30 13 C -0.013330 1.951727 0.359187 0
M  V30 14 N -0.512099 2.094329 -0.966523 0
M  V30 15 C -0.772811 3.381776 -1.515868 0
M  V30 16 O -0.558649 4.405196 -0.818200 0
M  V30 17 C -1.297557 3.553141 -2.908108 0
M  V30 18 C -2.286100 2.528389 -3.384803 0
M  V30 19 C -0.932822 2.611893 -3.974689 0
M  V30 20 N 0.222805 3.027165 1.122344 0
M  V30 21 C 0.693370 2.951841 2.380139 0
M  V30 22 C 0.963153 1.736521 2.962286 0
M  V30 23 C 0.726082 0.605536 2.190029 0
M  V30 24 H 0.457432 -7.526743 3.558442 0
M  V30 25 H 2.198300 -7.593349 3.924683 0
M  V30 26 H 1.601291 -7.528765 2.191329 0
M  V30 27 H 1.713272 -3.431046 4.368845 0
M  V30 28 H 1.599839 -0.920224 4.361231 0
M  V30 29 H 0.208452 -3.309467 0.332387 0
M  V30 30 H -0.248747 -0.751463 -0.595067 0
M  V30 31 H -0.683584 1.224563 -1.531118 0
M  V30 32 H -1.442996 4.610008 -3.174533 0
M  V30 33 H -3.187634 2.956835 -3.857796 0
M  V30 34 H -2.520281 1.641811 -2.748381 0
M  V30 35 H -0.257368 1.733155 -3.775584 0
M  V30 36 H -0.795324 3.023435 -4.976307 0
M  V30 37 H 0.860308 3.858305 2.936988 0
M  V30 38 H 1.346876 1.616226 3.980991 0
M  V30 END ATOM
M  V30 BEGIN BOND
M  V30 1 1 1 2
M  V30 2 1 2 3
M  V30 3 2 3 4
M  V30 4 1 3 5
M  V30 5 2 5 6
M  V30 6 1 6 7
M  V30 7 2 7 8
M  V30 8 1 8 9
M  V30 9 2 9 10
M  V30 10 1 9 11
M  V30 11 1 11 12
M  V30 12 2 12 13
M  V30 13 1 13 14
M  V30 14 1 14 15
M  V30 15 2 15 16
M  V30 16 1 15 17
M  V30 17 1 17 18
M  V30 18 1 18 19
M  V30 19 1 13 20
M  V30 20 2 20 21
M  V30 21 1 21 22
M  V30 22 2 22 23
M  V30 23 1 10 5
M  V30 24 1 23 12
M  V30 25 1 23 8
M  V30 26 1 19 17
M  V30 27 1 1 24
M  V30 28 1 1 25
M  V30 29 1 1 26
M  V30 30 1 6 27
M  V30 31 1 7 28
M  V30 32 1 10 29
M  V30 33 1 11 30
M  V30 34 1 14 31
M  V30 35 1 17 32
M  V30 36 1 18 33
M  V30 37 1 18 34
M  V30 38 1 19 35
M  V30 39 1 19 36
M  V30 40 1 21 37
M  V30 41 1 22 38
M  V30 END BOND
M  V30 END CTAB
M  END
>  <Dataset>  (967) 
ChEMBL_Kinases

>  <Ligand_Instance>  (967) 
nan

>  <PDB_ID>  (967) 
nan

>  <Standardized_SMILES>  (967) 
COC(=O)c1ccc2c(c1)[nH]c1c(NC(=O)C3CC3)nccc12

>  <Name>  (967) 
nan

>  <Pocket>  (967) 
nan

>  <ATP_Site>  (967) 
nan

>  <Peripheral>  (967) 
nan

>  <Num_H_Atoms_ProtBoundConf>  (967) 
nan

>  <Num_Resolved_Atoms>  (967) 
nan

>  <Num_Not_Resolved_Atoms>  (967) 
nan

$$$$
CHEMBL4849289
     RDKit          3D

  0  0  0  0  0  0  0  0  0  0999 V3000
M  V30 BEGIN CTAB
M  V30 COUNTS 75 79 0 0 0
M  V30 BEGIN ATOM
M  V30 1 C 2.827335 -2.144407 2.860489 0
M  V30 2 C 4.005787 -2.100624 1.893463 0
M  V30 3 C 4.071374 -0.875685 1.090878 0
M  V30 4 O 5.101199 -1.133372 0.355998 0
M  V30 5 N 3.384927 0.384936 0.917863 0
M  V30 6 C 2.235212 0.779968 1.700459 0
M  V30 7 C 1.885628 2.208018 1.676319 0
M  V30 8 C 2.873979 3.125099 1.037836 0
M  V30 9 C 3.504474 2.582191 -0.213206 0 CFG=2
M  V30 10 N 2.663430 2.935370 -1.330458 0
M  V30 11 C 2.724059 4.194172 -1.853988 0
M  V30 12 O 3.552493 4.987953 -1.294016 0
M  V30 13 C 2.010016 4.721027 -2.906573 0
M  V30 14 C 1.115647 3.862059 -3.510271 0
M  V30 15 C 0.295969 4.316756 -4.650348 0
M  V30 16 C 1.016804 2.587124 -3.021798 0
M  V30 17 C 0.117303 1.741320 -3.632764 0
M  V30 18 N 0.008981 0.471893 -3.154039 0
M  V30 19 C 0.777305 0.059915 -2.095264 0
M  V30 20 N 0.428923 -1.298943 -1.832940 0
M  V30 21 C -0.445146 -1.849338 -0.856722 0
M  V30 22 C -1.055553 -1.029521 0.097427 0
M  V30 23 C -1.912110 -1.458759 1.100729 0
M  V30 24 C -2.128994 -2.819930 1.088023 0
M  V30 25 N -2.990803 -3.354370 2.088212 0
M  V30 26 C -3.443924 -2.653873 3.244966 0
M  V30 27 C -4.901081 -2.330704 3.019567 0
M  V30 28 N -5.623019 -3.532996 2.887443 0
M  V30 29 C -6.820333 -3.302874 2.100512 0
M  V30 30 C -4.990834 -4.719408 2.502210 0
M  V30 31 C -3.568512 -4.702380 2.084890 0
M  V30 32 C -1.559056 -3.682633 0.176495 0
M  V30 33 C -0.713560 -3.200821 -0.800838 0
M  V30 34 O -0.082771 -3.962401 -1.768675 0
M  V30 35 C -0.335431 -5.371961 -1.746794 0
M  V30 36 N 1.649973 0.888675 -1.506944 0
M  V30 37 C 1.772621 2.134675 -1.957795 0
M  V30 38 C 3.972037 1.203695 -0.129072 0
M  V30 39 H 2.671356 -3.243703 3.118181 0
M  V30 40 H 1.878078 -1.855690 2.392339 0
M  V30 41 H 2.995179 -1.575644 3.782917 0
M  V30 42 H 4.914721 -2.183629 2.546741 0
M  V30 43 H 3.931997 -3.007417 1.231768 0
M  V30 44 H 2.346381 0.445332 2.750275 0
M  V30 45 H 1.380828 0.172187 1.279941 0
M  V30 46 H 1.607565 2.550220 2.691890 0
M  V30 47 H 0.928300 2.331549 1.089616 0
M  V30 48 H 3.664517 3.353670 1.798459 0
M  V30 49 H 2.411531 4.099088 0.781875 0
M  V30 50 H 4.417344 3.243493 -0.359476 0
M  V30 51 H 2.160773 5.738649 -3.215716 0
M  V30 52 H -0.802063 4.108042 -4.491032 0
M  V30 53 H 0.541668 3.777693 -5.591951 0
M  V30 54 H 0.375338 5.404924 -4.824777 0
M  V30 55 H -0.482416 2.098871 -4.477419 0
M  V30 56 H 0.922095 -1.952360 -2.491750 0
M  V30 57 H -0.832735 0.032077 0.037769 0
M  V30 58 H -2.337233 -0.773043 1.789062 0
M  V30 59 H -3.394335 -3.328931 4.137769 0
M  V30 60 H -2.844881 -1.753535 3.488768 0
M  V30 61 H -5.329931 -1.742130 3.861640 0
M  V30 62 H -4.972691 -1.740194 2.059169 0
M  V30 63 H -6.712302 -3.604078 1.035890 0
M  V30 64 H -7.104136 -2.230987 2.116262 0
M  V30 65 H -7.700491 -3.855687 2.489565 0
M  V30 66 H -5.061091 -5.427682 3.384895 0
M  V30 67 H -5.622809 -5.257319 1.729380 0
M  V30 68 H -3.484669 -5.106663 1.055464 0
M  V30 69 H -2.909741 -5.355042 2.727458 0
M  V30 70 H -1.708452 -4.741411 0.140260 0
M  V30 71 H -0.043615 -5.807497 -0.759655 0
M  V30 72 H -1.389870 -5.623485 -1.935833 0
M  V30 73 H 0.268709 -5.839416 -2.568712 0
M  V30 74 H 5.071877 1.215054 0.147559 0
M  V30 75 H 3.976972 0.693730 -1.109015 0
M  V30 END ATOM
M  V30 BEGIN BOND
M  V30 1 1 1 2
M  V30 2 1 2 3
M  V30 3 2 3 4
M  V30 4 1 3 5
M  V30 5 1 5 6
M  V30 6 1 6 7
M  V30 7 1 7 8
M  V30 8 1 8 9
M  V30 9 1 9 10
M  V30 10 1 10 11
M  V30 11 2 11 12
M  V30 12 1 11 13
M  V30 13 2 13 14
M  V30 14 1 14 15
M  V30 15 1 14 16
M  V30 16 2 16 17
M  V30 17 1 17 18
M  V30 18 2 18 19
M  V30 19 1 19 20
M  V30 20 1 20 21
M  V30 21 2 21 22
M  V30 22 1 22 23
M  V30 23 2 23 24
M  V30 24 1 24 25
M  V30 25 1 25 26
M  V30 26 1 26 27
M  V30 27 1 27 28
M  V30 28 1 28 29
M  V30 29 1 28 30
M  V30 30 1 30 31
M  V30 31 1 24 32
M  V30 32 2 32 33
M  V30 33 1 33 34
M  V30 34 1 34 35
M  V30 35 1 19 36
M  V30 36 2 36 37
M  V30 37 1 9 38
M  V30 38 1 38 5
M  V30 39 1 37 10
M  V30 40 1 37 16
M  V30 41 1 33 21
M  V30 42 1 31 25
M  V30 43 1 1 39
M  V30 44 1 1 40
M  V30 45 1 1 41
M  V30 46 1 2 42
M  V30 47 1 2 43
M  V30 48 1 6 44
M  V30 49 1 6 45
M  V30 50 1 7 46
M  V30 51 1 7 47
M  V30 52 1 8 48
M  V30 53 1 8 49
M  V30 54 1 9 50 CFG=3
M  V30 55 1 13 51
M  V30 56 1 15 52
M  V30 57 1 15 53
M  V30 58 1 15 54
M  V30 59 1 17 55
M  V30 60 1 20 56
M  V30 61 1 22 57
M  V30 62 1 23 58
M  V30 63 1 26 59
M  V30 64 1 26 60
M  V30 65 1 27 61
M  V30 66 1 27 62
M  V30 67 1 29 63
M  V30 68 1 29 64
M  V30 69 1 29 65
M  V30 70 1 30 66
M  V30 71 1 30 67
M  V30 72 1 31 68
M  V30 73 1 31 69
M  V30 74 1 32 70
M  V30 75 1 35 71
M  V30 76 1 35 72
M  V30 77 1 35 73
M  V30 78 1 38 74
M  V30 79 1 38 75
M  V30 END BOND
M  V30 END CTAB
M  END
>  <Dataset>  (968) 
ChEMBL_Kinases

>  <Ligand_Instance>  (968) 
nan

>  <PDB_ID>  (968) 
nan

>  <Standardized_SMILES>  (968) 
CCC(=O)N1CCC[C@H](n2c(=O)cc(C)c3cnc(Nc4ccc(N5CCN(C)CC5)cc4OC)nc32)C1

>  <Name>  (968) 
nan

>  <Pocket>  (968) 
nan

>  <ATP_Site>  (968) 
nan

>  <Peripheral>  (968) 
nan

>  <Num_H_Atoms_ProtBoundConf>  (968) 
nan

>  <Num_Resolved_Atoms>  (968) 
nan

>  <Num_Not_Resolved_Atoms>  (968) 
nan

$$$$
CHEMBL4849098
     RDKit          3D

  0  0  0  0  0  0  0  0  0  0999 V3000
M  V30 BEGIN CTAB
M  V30 COUNTS 31 33 0 0 0
M  V30 BEGIN ATOM
M  V30 1 O -0.721703 -2.506311 2.359061 0
M  V30 2 C 0.537057 -3.082641 2.548729 0
M  V30 3 C 0.810564 -3.819980 3.683267 0
M  V30 4 C 2.074988 -4.363880 3.811231 0
M  V30 5 C 3.022337 -4.167036 2.827640 0
M  V30 6 C 2.738734 -3.426046 1.693314 0
M  V30 7 C 1.475431 -2.878166 1.557497 0
M  V30 8 C 1.202463 -2.100872 0.351223 0
M  V30 9 N 0.005645 -1.520529 0.113105 0
M  V30 10 C 0.014462 -0.862206 -1.068658 0
M  V30 11 C -1.172489 -0.125691 -1.592307 0
M  V30 12 C -1.159513 1.296952 -1.127696 0
M  V30 13 C -0.567971 2.351807 -1.792425 0
M  V30 14 C -0.650664 3.602854 -1.220602 0
M  V30 15 C -1.296604 3.835381 -0.020688 0
M  V30 16 C -1.888184 2.792474 0.648202 0
M  V30 17 C -1.803279 1.542342 0.072857 0
M  V30 18 N 1.268105 -1.072038 -1.530259 0
M  V30 19 O 1.927896 -1.796724 -0.676027 0
M  V30 20 H -0.940355 -1.773974 3.048144 0
M  V30 21 H 0.018229 -3.933357 4.414352 0
M  V30 22 H 2.231744 -4.932591 4.722451 0
M  V30 23 H 4.004079 -4.610325 2.964490 0
M  V30 24 H 3.538001 -3.318393 0.967820 0
M  V30 25 H -1.159914 -0.081417 -2.706046 0
M  V30 26 H -2.089751 -0.627692 -1.239166 0
M  V30 27 H -0.075102 2.120205 -2.726558 0
M  V30 28 H -0.184483 4.431534 -1.745353 0
M  V30 29 H -1.315445 4.838339 0.355430 0
M  V30 30 H -2.403334 2.935227 1.590549 0
M  V30 31 H -2.286309 0.728444 0.631883 0
M  V30 END ATOM
M  V30 BEGIN BOND
M  V30 1 1 1 2
M  V30 2 2 2 3
M  V30 3 1 3 4
M  V30 4 2 4 5
M  V30 5 1 5 6
M  V30 6 2 6 7
M  V30 7 1 7 8
M  V30 8 2 8 9
M  V30 9 1 9 10
M  V30 10 1 10 11
M  V30 11 1 11 12
M  V30 12 2 12 13
M  V30 13 1 13 14
M  V30 14 2 14 15
M  V30 15 1 15 16
M  V30 16 2 16 17
M  V30 17 2 10 18
M  V30 18 1 18 19
M  V30 19 1 7 2
M  V30 20 1 19 8
M  V30 21 1 17 12
M  V30 22 1 1 20
M  V30 23 1 3 21
M  V30 24 1 4 22
M  V30 25 1 5 23
M  V30 26 1 6 24
M  V30 27 1 11 25
M  V30 28 1 11 26
M  V30 29 1 13 27
M  V30 30 1 14 28
M  V30 31 1 15 29
M  V30 32 1 16 30
M  V30 33 1 17 31
M  V30 END BOND
M  V30 END CTAB
M  END
>  <Dataset>  (969) 
ChEMBL_Kinases

>  <Ligand_Instance>  (969) 
nan

>  <PDB_ID>  (969) 
nan

>  <Standardized_SMILES>  (969) 
Oc1ccccc1-c1nc(Cc2ccccc2)no1

>  <Name>  (969) 
nan

>  <Pocket>  (969) 
nan

>  <ATP_Site>  (969) 
nan

>  <Peripheral>  (969) 
nan

>  <Num_H_Atoms_ProtBoundConf>  (969) 
nan

>  <Num_Resolved_Atoms>  (969) 
nan

>  <Num_Not_Resolved_Atoms>  (969) 
nan

$$$$
CHEMBL4087394
     RDKit          3D

  0  0  0  0  0  0  0  0  0  0999 V3000
M  V30 BEGIN CTAB
M  V30 COUNTS 36 39 0 0 0
M  V30 BEGIN ATOM
M  V30 1 N 1.929011 -2.501384 3.814041 0
M  V30 2 C 1.088659 -2.215344 3.080480 0
M  V30 3 C 0.032020 -1.869184 2.184619 0
M  V30 4 C 0.361752 -1.400485 0.912967 0
M  V30 5 C 1.755883 -1.244461 0.446773 0
M  V30 6 C 2.514192 -2.201898 -0.199467 0
M  V30 7 C 3.810209 -1.878216 -0.565632 0
M  V30 8 C 4.331330 -0.642290 -0.296334 0
M  V30 9 C 3.597635 0.327508 0.345293 0
M  V30 10 C 4.134376 1.568464 0.610616 0
M  V30 11 C 3.403322 2.540346 1.252046 0
M  V30 12 C 2.099238 2.252517 1.634755 0
M  V30 13 C 1.588847 1.007094 1.357824 0
M  V30 14 C 2.306762 0.014436 0.713517 0
M  V30 15 C -0.641939 -1.058871 0.027581 0
M  V30 16 C -1.898656 -1.219884 0.502540 0
M  V30 17 C -3.028969 -0.873565 -0.391298 0
M  V30 18 C -4.449339 -0.895031 -0.286086 0
M  V30 19 C -5.137012 -0.480314 -1.378621 0
M  V30 20 C -4.468361 -0.090422 -2.449721 0
M  V30 21 S -2.753007 -0.233026 -2.123475 0
M  V30 22 N -2.294576 -1.656204 1.689304 0
M  V30 23 C -1.296008 -1.991661 2.558302 0
M  V30 24 O -1.601674 -2.413773 3.703839 0
M  V30 25 H 2.018609 -3.147636 -0.369076 0
M  V30 26 H 4.383271 -2.658976 -1.075558 0
M  V30 27 H 5.341166 -0.403611 -0.586754 0
M  V30 28 H 5.148413 1.825497 0.325537 0
M  V30 29 H 3.739292 3.546259 1.504453 0
M  V30 30 H 1.480378 2.993741 2.147043 0
M  V30 31 H 0.569946 0.809150 1.666997 0
M  V30 32 H -0.422655 -0.690589 -0.970290 0
M  V30 33 H -4.760242 -1.252748 0.686511 0
M  V30 34 H -6.236305 -0.513632 -1.252249 0
M  V30 35 H -5.145159 0.277012 -3.415425 0
M  V30 36 H -3.286742 -1.755687 1.989933 0
M  V30 END ATOM
M  V30 BEGIN BOND
M  V30 1 3 1 2
M  V30 2 1 2 3
M  V30 3 2 3 4
M  V30 4 1 4 5
M  V30 5 2 5 6
M  V30 6 1 6 7
M  V30 7 2 7 8
M  V30 8 1 8 9
M  V30 9 2 9 10
M  V30 10 1 10 11
M  V30 11 2 11 12
M  V30 12 1 12 13
M  V30 13 2 13 14
M  V30 14 1 4 15
M  V30 15 2 15 16
M  V30 16 1 16 17
M  V30 17 2 17 18
M  V30 18 1 18 19
M  V30 19 2 19 20
M  V30 20 1 20 21
M  V30 21 1 16 22
M  V30 22 1 22 23
M  V30 23 2 23 24
M  V30 24 1 23 3
M  V30 25 1 14 5
M  V30 26 1 21 17
M  V30 27 1 14 9
M  V30 28 1 6 25
M  V30 29 1 7 26
M  V30 30 1 8 27
M  V30 31 1 10 28
M  V30 32 1 11 29
M  V30 33 1 12 30
M  V30 34 1 13 31
M  V30 35 1 15 32
M  V30 36 1 18 33
M  V30 37 1 19 34
M  V30 38 1 20 35
M  V30 39 1 22 36
M  V30 END BOND
M  V30 END CTAB
M  END
>  <Dataset>  (970) 
ChEMBL_Kinases

>  <Ligand_Instance>  (970) 
nan

>  <PDB_ID>  (970) 
nan

>  <Standardized_SMILES>  (970) 
N#Cc1c(-c2cccc3ccccc23)cc(-c2cccs2)[nH]c1=O

>  <Name>  (970) 
nan

>  <Pocket>  (970) 
nan

>  <ATP_Site>  (970) 
nan

>  <Peripheral>  (970) 
nan

>  <Num_H_Atoms_ProtBoundConf>  (970) 
nan

>  <Num_Resolved_Atoms>  (970) 
nan

>  <Num_Not_Resolved_Atoms>  (970) 
nan

$$$$
CHEMBL484808
     RDKit          3D

  0  0  0  0  0  0  0  0  0  0999 V3000
M  V30 BEGIN CTAB
M  V30 COUNTS 37 40 0 0 0
M  V30 BEGIN ATOM
M  V30 1 N -1.880725 -4.664859 1.067075 0
M  V30 2 C -0.814854 -3.867056 0.509168 0
M  V30 3 O -1.576931 -3.927605 -0.484176 0
M  V30 4 C 0.202334 -3.691941 1.577638 0
M  V30 5 C 1.378537 -2.875570 1.108741 0
M  V30 6 N 1.041420 -1.555626 0.678800 0
M  V30 7 C 0.695035 -1.094548 -0.554662 0
M  V30 8 C 0.592698 -1.845118 -1.707514 0
M  V30 9 C 0.231125 -1.251621 -2.896964 0
M  V30 10 C -0.020152 0.122599 -2.868848 0
M  V30 11 O -0.381483 0.691965 -4.078393 0
M  V30 12 C 0.102606 0.803290 -1.681184 0
M  V30 13 C 0.453022 0.256399 -0.503517 0
M  V30 14 C 0.656674 0.615484 0.780981 0
M  V30 15 C 0.555962 1.829379 1.380246 0
M  V30 16 C 0.815998 1.952833 2.722770 0
M  V30 17 C 1.186260 0.849965 3.500021 0
M  V30 18 C 1.280550 -0.369596 2.865183 0
M  V30 19 C 1.019145 -0.484637 1.523629 0
M  V30 20 C 0.666077 3.315003 3.219874 0
M  V30 21 O 0.830051 3.752469 4.385592 0
M  V30 22 N 0.279777 4.064973 2.053048 0
M  V30 23 C 0.218098 3.163785 0.961469 0
M  V30 24 O -0.102886 3.647920 -0.131106 0
M  V30 25 H -2.435955 -5.514794 1.352628 0
M  V30 26 H -2.744762 -5.043689 1.522804 0
M  V30 27 H 0.566114 -4.703810 1.849390 0
M  V30 28 H -0.264655 -3.268115 2.492200 0
M  V30 29 H 2.148652 -2.908544 1.892549 0
M  V30 30 H 1.820817 -3.417440 0.238277 0
M  V30 31 H 0.790373 -2.906338 -1.711460 0
M  V30 32 H 0.150720 -1.837247 -3.799055 0
M  V30 33 H -0.810228 1.608218 -4.136516 0
M  V30 34 H -0.114670 1.835797 -1.795640 0
M  V30 35 H 1.394374 0.909827 4.540159 0
M  V30 36 H 1.564190 -1.244705 3.433645 0
M  V30 37 H 0.104340 5.096528 2.136121 0
M  V30 END ATOM
M  V30 BEGIN BOND
M  V30 1 1 1 2
M  V30 2 2 2 3
M  V30 3 1 2 4
M  V30 4 1 4 5
M  V30 5 1 5 6
M  V30 6 1 6 7
M  V30 7 2 7 8
M  V30 8 1 8 9
M  V30 9 2 9 10
M  V30 10 1 10 11
M  V30 11 1 10 12
M  V30 12 2 12 13
M  V30 13 1 13 14
M  V30 14 2 14 15
M  V30 15 1 15 16
M  V30 16 2 16 17
M  V30 17 1 17 18
M  V30 18 2 18 19
M  V30 19 1 16 20
M  V30 20 2 20 21
M  V30 21 1 20 22
M  V30 22 1 22 23
M  V30 23 2 23 24
M  V30 24 1 19 6
M  V30 25 1 13 7
M  V30 26 1 19 14
M  V30 27 1 23 15
M  V30 28 1 1 25
M  V30 29 1 1 26
M  V30 30 1 4 27
M  V30 31 1 4 28
M  V30 32 1 5 29
M  V30 33 1 5 30
M  V30 34 1 8 31
M  V30 35 1 9 32
M  V30 36 1 11 33
M  V30 37 1 12 34
M  V30 38 1 17 35
M  V30 39 1 18 36
M  V30 40 1 22 37
M  V30 END BOND
M  V30 END CTAB
M  END
>  <Dataset>  (971) 
ChEMBL_Kinases

>  <Ligand_Instance>  (971) 
nan

>  <PDB_ID>  (971) 
nan

>  <Standardized_SMILES>  (971) 
NC(=O)CCn1c2ccc(O)cc2c2c3c(ccc21)C(=O)NC3=O

>  <Name>  (971) 
nan

>  <Pocket>  (971) 
nan

>  <ATP_Site>  (971) 
nan

>  <Peripheral>  (971) 
nan

>  <Num_H_Atoms_ProtBoundConf>  (971) 
nan

>  <Num_Resolved_Atoms>  (971) 
nan

>  <Num_Not_Resolved_Atoms>  (971) 
nan

$$$$
CHEMBL4848143
     RDKit          3D

  0  0  0  0  0  0  0  0  0  0999 V3000
M  V30 BEGIN CTAB
M  V30 COUNTS 54 56 0 0 0
M  V30 BEGIN ATOM
M  V30 1 C 4.997842 -3.997423 1.337733 0
M  V30 2 C 4.638507 -4.010396 -0.141297 0
M  V30 3 C 3.691782 -5.182093 -0.375229 0
M  V30 4 N 3.995081 -2.799564 -0.542834 0
M  V30 5 C 4.349069 -1.864032 -1.554830 0
M  V30 6 O 5.354039 -2.002838 -2.276351 0
M  V30 7 C 3.533157 -0.678394 -1.795028 0
M  V30 8 C 2.384733 -0.347144 -1.104809 0
M  V30 9 C 1.673687 0.782108 -1.388327 0
M  V30 10 C 0.455864 1.132010 -0.655638 0
M  V30 11 C -0.576351 1.546150 -1.486542 0
M  V30 12 C -1.803852 1.916151 -0.966140 0
M  V30 13 C -1.938834 1.850065 0.405758 0
M  V30 14 N -3.195818 2.226887 0.963515 0
M  V30 15 C -4.004342 1.047348 1.025486 0
M  V30 16 O -3.566256 -0.076642 0.623923 0
M  V30 17 C -5.402605 0.865008 1.520383 0 CFG=2
M  V30 18 O -5.981505 2.023351 1.983168 0
M  V30 19 C -5.316263 -0.103000 2.658055 0
M  V30 20 C -5.681637 -1.428516 2.477629 0
M  V30 21 C -5.627515 -2.373639 3.479894 0
M  V30 22 F -6.010541 -3.617677 3.166224 0
M  V30 23 C -5.190403 -1.999392 4.731152 0
M  V30 24 C -4.820049 -0.691825 4.944860 0
M  V30 25 F -4.400748 -0.370673 6.177924 0
M  V30 26 C -4.883655 0.232926 3.925954 0
M  V30 27 C -0.936928 1.443763 1.265556 0
M  V30 28 C 0.275698 1.081323 0.713736 0
M  V30 29 Cl 1.647947 0.543980 1.656975 0
M  V30 30 C 2.106977 1.639255 -2.404201 0
M  V30 31 N 3.234970 1.338686 -3.101188 0
M  V30 32 C 3.923542 0.200265 -2.792134 0
M  V30 33 N 5.064618 0.025890 -3.597218 0
M  V30 34 H 4.111389 -4.198494 1.963076 0
M  V30 35 H 5.685506 -4.880693 1.477744 0
M  V30 36 H 5.465228 -3.063083 1.647542 0
M  V30 37 H 5.536460 -4.160733 -0.772258 0
M  V30 38 H 4.058392 -5.799365 -1.228004 0
M  V30 39 H 3.543604 -5.761141 0.545487 0
M  V30 40 H 2.704741 -4.808533 -0.677756 0
M  V30 41 H 3.152230 -2.681791 0.061517 0
M  V30 42 H 2.063307 -1.003768 -0.335169 0
M  V30 43 H -0.503855 1.609557 -2.566125 0
M  V30 44 H -2.648797 2.249794 -1.579339 0
M  V30 45 H -3.711945 3.055015 1.332963 0
M  V30 46 H -6.033771 0.414964 0.749074 0
M  V30 47 H -5.508580 2.459053 2.711033 0
M  V30 48 H -6.025143 -1.685227 1.463221 0
M  V30 49 H -5.161356 -2.766039 5.490968 0
M  V30 50 H -4.593163 1.242072 4.108184 0
M  V30 51 H -1.055522 1.396369 2.339546 0
M  V30 52 H 1.527976 2.537910 -2.618973 0
M  V30 53 H 5.369227 -0.186227 -4.573082 0
M  V30 54 H 5.924819 0.154988 -3.007111 0
M  V30 END ATOM
M  V30 BEGIN BOND
M  V30 1 1 1 2
M  V30 2 1 2 3
M  V30 3 1 2 4
M  V30 4 1 4 5
M  V30 5 2 5 6
M  V30 6 1 5 7
M  V30 7 2 7 8
M  V30 8 1 8 9
M  V30 9 1 9 10
M  V30 10 2 10 11
M  V30 11 1 11 12
M  V30 12 2 12 13
M  V30 13 1 13 14
M  V30 14 1 14 15
M  V30 15 2 15 16
M  V30 16 1 15 17
M  V30 17 1 17 18
M  V30 18 1 17 19
M  V30 19 2 19 20
M  V30 20 1 20 21
M  V30 21 1 21 22
M  V30 22 2 21 23
M  V30 23 1 23 24
M  V30 24 1 24 25
M  V30 25 2 24 26
M  V30 26 1 13 27
M  V30 27 2 27 28
M  V30 28 1 28 29
M  V30 29 2 9 30
M  V30 30 1 30 31
M  V30 31 2 31 32
M  V30 32 1 32 33
M  V30 33 1 32 7
M  V30 34 1 28 10
M  V30 35 1 26 19
M  V30 36 1 1 34
M  V30 37 1 1 35
M  V30 38 1 1 36
M  V30 39 1 2 37
M  V30 40 1 3 38
M  V30 41 1 3 39
M  V30 42 1 3 40
M  V30 43 1 4 41
M  V30 44 1 8 42
M  V30 45 1 11 43
M  V30 46 1 12 44
M  V30 47 1 14 45
M  V30 48 1 17 46 CFG=3
M  V30 49 1 18 47
M  V30 50 1 20 48
M  V30 51 1 23 49
M  V30 52 1 26 50
M  V30 53 1 27 51
M  V30 54 1 30 52
M  V30 55 1 33 53
M  V30 56 1 33 54
M  V30 END BOND
M  V30 END CTAB
M  END
>  <Dataset>  (972) 
ChEMBL_Kinases

>  <Ligand_Instance>  (972) 
nan

>  <PDB_ID>  (972) 
nan

>  <Standardized_SMILES>  (972) 
CC(C)NC(=O)c1cc(-c2ccc(NC(=O)[C@H](O)c3cc(F)cc(F)c3)cc2Cl)cnc1N

>  <Name>  (972) 
nan

>  <Pocket>  (972) 
nan

>  <ATP_Site>  (972) 
nan

>  <Peripheral>  (972) 
nan

>  <Num_H_Atoms_ProtBoundConf>  (972) 
nan

>  <Num_Resolved_Atoms>  (972) 
nan

>  <Num_Not_Resolved_Atoms>  (972) 
nan

$$$$
CHEMBL4848224
     RDKit          3D

  0  0  0  0  0  0  0  0  0  0999 V3000
M  V30 BEGIN CTAB
M  V30 COUNTS 43 46 0 0 0
M  V30 BEGIN ATOM
M  V30 1 O 2.826050 3.876357 2.295491 0
M  V30 2 C 2.509468 2.666465 2.421354 0
M  V30 3 O 2.621674 2.060803 3.638929 0
M  V30 4 C 3.064469 2.651389 4.842025 0
M  V30 5 C 3.047696 1.518166 5.880064 0
M  V30 6 F 3.892206 0.494795 5.474535 0
M  V30 7 C 2.022364 1.929272 1.237169 0
M  V30 8 C 1.947310 2.539130 0.003546 0
M  V30 9 C 1.466205 1.824132 -1.083555 0
M  V30 10 C 1.065770 0.517070 -0.935702 0
M  V30 11 C 1.157170 -0.054615 0.313456 0
M  V30 12 C 1.627700 0.608044 1.425792 0
M  V30 13 N 0.769878 -1.319219 0.511036 0
M  V30 14 C 0.278101 -2.109313 -0.449740 0
M  V30 15 N -0.134329 -3.464606 -0.249790 0
M  V30 16 C -1.386770 -3.469647 0.422604 0
M  V30 17 C -1.264758 -3.260867 1.805339 0
M  V30 18 C -2.294942 -3.209438 2.713881 0
M  V30 19 C -3.560665 -3.382992 2.182384 0
M  V30 20 C -3.758650 -3.594117 0.830771 0
M  V30 21 Cl -5.330377 -3.819176 0.089508 0
M  V30 22 C -2.688474 -3.638977 -0.054779 0
M  V30 23 C 0.192182 -1.517539 -1.718107 0
M  V30 24 C -0.298649 -2.264721 -2.771765 0
M  V30 25 C -0.372173 -1.659236 -4.024514 0
M  V30 26 N 0.014176 -0.391113 -4.232566 0
M  V30 27 C 0.498421 0.360759 -3.214103 0
M  V30 28 C 0.577760 -0.209201 -1.991313 0
M  V30 29 H 4.026902 3.147624 4.798845 0
M  V30 30 H 2.286297 3.377070 5.244632 0
M  V30 31 H 3.423752 1.906682 6.843431 0
M  V30 32 H 2.037857 1.101749 6.029657 0
M  V30 33 H 2.285817 3.569386 -0.012084 0
M  V30 34 H 1.441651 2.376684 -2.004877 0
M  V30 35 H 1.708721 0.188118 2.406696 0
M  V30 36 H 0.424807 -4.283025 -0.567442 0
M  V30 37 H -0.281306 -3.115076 2.286056 0
M  V30 38 H -2.149731 -3.043731 3.769177 0
M  V30 39 H -4.445689 -3.357178 2.825576 0
M  V30 40 H -2.686249 -3.792020 -1.112156 0
M  V30 41 H -0.610372 -3.269534 -2.623881 0
M  V30 42 H -0.752193 -2.223859 -4.870048 0
M  V30 43 H 0.775889 1.356125 -3.486739 0
M  V30 END ATOM
M  V30 BEGIN BOND
M  V30 1 2 1 2
M  V30 2 1 2 3
M  V30 3 1 3 4
M  V30 4 1 4 5
M  V30 5 1 5 6
M  V30 6 1 2 7
M  V30 7 2 7 8
M  V30 8 1 8 9
M  V30 9 2 9 10
M  V30 10 1 10 11
M  V30 11 2 11 12
M  V30 12 1 11 13
M  V30 13 2 13 14
M  V30 14 1 14 15
M  V30 15 1 15 16
M  V30 16 2 16 17
M  V30 17 1 17 18
M  V30 18 2 18 19
M  V30 19 1 19 20
M  V30 20 1 20 21
M  V30 21 2 20 22
M  V30 22 1 14 23
M  V30 23 2 23 24
M  V30 24 1 24 25
M  V30 25 2 25 26
M  V30 26 1 26 27
M  V30 27 2 27 28
M  V30 28 1 12 7
M  V30 29 1 22 16
M  V30 30 1 28 23
M  V30 31 1 28 10
M  V30 32 1 4 29
M  V30 33 1 4 30
M  V30 34 1 5 31
M  V30 35 1 5 32
M  V30 36 1 8 33
M  V30 37 1 9 34
M  V30 38 1 12 35
M  V30 39 1 15 36
M  V30 40 1 17 37
M  V30 41 1 18 38
M  V30 42 1 19 39
M  V30 43 1 22 40
M  V30 44 1 24 41
M  V30 45 1 25 42
M  V30 46 1 27 43
M  V30 END BOND
M  V30 END CTAB
M  END
>  <Dataset>  (973) 
ChEMBL_Kinases

>  <Ligand_Instance>  (973) 
nan

>  <PDB_ID>  (973) 
nan

>  <Standardized_SMILES>  (973) 
O=C(OCCF)c1ccc2c(c1)nc(Nc1cccc(Cl)c1)c1ccncc12

>  <Name>  (973) 
nan

>  <Pocket>  (973) 
nan

>  <ATP_Site>  (973) 
nan

>  <Peripheral>  (973) 
nan

>  <Num_H_Atoms_ProtBoundConf>  (973) 
nan

>  <Num_Resolved_Atoms>  (973) 
nan

>  <Num_Not_Resolved_Atoms>  (973) 
nan

$$$$
CHEMBL4848306
     RDKit          3D

  0  0  0  0  0  0  0  0  0  0999 V3000
M  V30 BEGIN CTAB
M  V30 COUNTS 39 41 0 0 0
M  V30 BEGIN ATOM
M  V30 1 N 1.502350 -7.118403 0.230827 0
M  V30 2 C 1.683853 -5.987152 0.254002 0
M  V30 3 C 1.918452 -4.575576 0.298247 0
M  V30 4 C 3.205400 -4.110561 0.142826 0
M  V30 5 C 3.519421 -2.772495 0.171937 0
M  V30 6 C 2.544759 -1.795634 0.362388 0
M  V30 7 N 2.828326 -0.421595 0.397369 0
M  V30 8 C 1.952824 0.687898 0.587396 0
M  V30 9 N 2.500614 1.908138 0.571893 0
M  V30 10 C 1.833073 3.049134 0.732943 0
M  V30 11 C 0.476543 2.933417 0.928541 0
M  V30 12 C -0.343536 4.144624 1.113882 0
M  V30 13 F -1.325776 4.280119 0.137894 0
M  V30 14 F 0.449097 5.262188 1.040411 0
M  V30 15 F -0.926126 4.177579 2.381228 0
M  V30 16 C -0.108696 1.686268 0.948250 0
M  V30 17 N -1.524438 1.553488 1.153420 0
M  V30 18 C -2.206305 0.301393 1.187333 0 CFG=1
M  V30 19 C -2.105039 -0.531279 -0.050228 0
M  V30 20 C -2.449215 -1.913475 0.456295 0
M  V30 21 N -2.126065 -1.968291 1.851756 0
M  V30 22 C -1.728417 -0.648703 2.261066 0
M  V30 23 N 0.646051 0.592340 0.776729 0
M  V30 24 C 1.297565 -2.335874 0.508081 0
M  V30 25 N 0.969689 -3.640926 0.482733 0
M  V30 26 H 4.022450 -4.802513 -0.009881 0
M  V30 27 H 4.569197 -2.465226 0.041217 0
M  V30 28 H 3.866010 -0.222857 0.256430 0
M  V30 29 H 2.363986 3.971621 0.703842 0
M  V30 30 H -2.081516 2.451728 1.286730 0
M  V30 31 H -3.283429 0.470172 1.388620 0
M  V30 32 H -2.956157 -0.226569 -0.727416 0
M  V30 33 H -1.168394 -0.467333 -0.602736 0
M  V30 34 H -1.862589 -2.681067 -0.128137 0
M  V30 35 H -3.514332 -2.147554 0.318709 0
M  V30 36 H -1.346735 -2.615597 1.997027 0
M  V30 37 H -0.658977 -0.522402 2.424381 0
M  V30 38 H -2.281777 -0.414195 3.207659 0
M  V30 39 H 0.434824 -1.725632 0.662450 0
M  V30 END ATOM
M  V30 BEGIN BOND
M  V30 1 3 1 2
M  V30 2 1 2 3
M  V30 3 2 3 4
M  V30 4 1 4 5
M  V30 5 2 5 6
M  V30 6 1 6 7
M  V30 7 1 7 8
M  V30 8 2 8 9
M  V30 9 1 9 10
M  V30 10 2 10 11
M  V30 11 1 11 12
M  V30 12 1 12 13
M  V30 13 1 12 14
M  V30 14 1 12 15
M  V30 15 1 11 16
M  V30 16 1 16 17
M  V30 17 1 17 18
M  V30 18 1 18 19
M  V30 19 1 19 20
M  V30 20 1 20 21
M  V30 21 1 21 22
M  V30 22 2 16 23
M  V30 23 1 6 24
M  V30 24 2 24 25
M  V30 25 1 25 3
M  V30 26 1 23 8
M  V30 27 1 22 18
M  V30 28 1 4 26
M  V30 29 1 5 27
M  V30 30 1 7 28
M  V30 31 1 10 29
M  V30 32 1 17 30
M  V30 33 1 18 31 CFG=1
M  V30 34 1 19 32
M  V30 35 1 19 33
M  V30 36 1 20 34
M  V30 37 1 20 35
M  V30 38 1 21 36
M  V30 39 1 22 37
M  V30 40 1 22 38
M  V30 41 1 24 39
M  V30 END BOND
M  V30 END CTAB
M  END
>  <Dataset>  (974) 
ChEMBL_Kinases

>  <Ligand_Instance>  (974) 
nan

>  <PDB_ID>  (974) 
nan

>  <Standardized_SMILES>  (974) 
N#Cc1ccc(Nc2ncc(C(F)(F)F)c(N[C@H]3CCNC3)n2)cn1

>  <Name>  (974) 
nan

>  <Pocket>  (974) 
nan

>  <ATP_Site>  (974) 
nan

>  <Peripheral>  (974) 
nan

>  <Num_H_Atoms_ProtBoundConf>  (974) 
nan

>  <Num_Resolved_Atoms>  (974) 
nan

>  <Num_Not_Resolved_Atoms>  (974) 
nan

$$$$
CHEMBL4087393
     RDKit          3D

  0  0  0  0  0  0  0  0  0  0999 V3000
M  V30 BEGIN CTAB
M  V30 COUNTS 54 57 0 0 0
M  V30 BEGIN ATOM
M  V30 1 C 1.763008 -6.573747 3.978022 0
M  V30 2 O 2.245569 -6.190494 2.730904 0
M  V30 3 C 1.348345 -5.283927 2.113937 0
M  V30 4 C 1.877163 -4.872231 0.765585 0
M  V30 5 N 1.048614 -3.952873 0.048356 0
M  V30 6 C 1.270648 -2.564737 0.247994 0
M  V30 7 O 2.280382 -2.111111 0.871431 0
M  V30 8 C 0.334341 -1.564239 -0.259379 0
M  V30 9 C 0.199110 -0.216772 -0.274091 0
M  V30 10 C -0.973417 0.148333 -0.953420 0
M  V30 11 C -1.245644 1.568677 -1.024572 0
M  V30 12 N -0.466866 2.525418 -0.531753 0
M  V30 13 C -0.617882 3.832849 -0.524250 0
M  V30 14 N 0.455225 4.531358 0.091350 0
M  V30 15 C 0.940794 4.687303 1.416043 0
M  V30 16 C 2.038491 5.488629 1.747546 0
M  V30 17 C 2.147722 5.326225 3.097758 0
M  V30 18 N 1.215944 4.511826 3.550833 0
M  V30 19 N 0.447084 4.094095 2.536830 0
M  V30 20 C -0.668972 3.190341 2.640697 0
M  V30 21 N -1.724120 4.318746 -1.097866 0
M  V30 22 C -2.626596 3.495890 -1.650922 0
M  V30 23 C -2.369252 2.142147 -1.602898 0
M  V30 24 C -3.403697 1.264712 -2.219413 0
M  V30 25 N -1.492227 -1.017786 -1.319313 0
M  V30 26 C -0.751208 -2.068780 -0.929213 0
M  V30 27 C -1.054287 -3.471615 -1.177844 0
M  V30 28 C 0.032246 -4.420237 -0.848215 0 CFG=2
M  V30 29 C -0.551629 -5.767884 -0.445405 0
M  V30 30 H 1.657372 -5.661876 4.602730 0
M  V30 31 H 0.816719 -7.153697 3.880620 0
M  V30 32 H 2.518956 -7.211437 4.455340 0
M  V30 33 H 0.319827 -5.691836 2.085148 0
M  V30 34 H 1.302850 -4.429446 2.819634 0
M  V30 35 H 2.872293 -4.386077 0.949293 0
M  V30 36 H 2.087734 -5.742861 0.111823 0
M  V30 37 H 0.984735 0.366923 0.221017 0
M  V30 38 H 0.916288 4.999991 -0.714346 0
M  V30 39 H 2.646487 6.091155 1.068048 0
M  V30 40 H 2.885653 5.789036 3.729508 0
M  V30 41 H -0.316172 2.193391 2.242698 0
M  V30 42 H -1.596299 3.538701 2.173414 0
M  V30 43 H -0.838428 2.972602 3.735077 0
M  V30 44 H -3.514543 3.899493 -2.112848 0
M  V30 45 H -3.905804 0.607732 -1.476029 0
M  V30 46 H -3.051619 0.758283 -3.134734 0
M  V30 47 H -4.266959 1.896060 -2.597880 0
M  V30 48 H -2.361937 -1.031785 -1.840294 0
M  V30 49 H -1.958141 -3.786477 -0.573510 0
M  V30 50 H -1.379914 -3.613727 -2.239236 0
M  V30 51 H 0.575618 -4.644768 -1.816420 0
M  V30 52 H -1.084779 -6.229377 -1.330584 0
M  V30 53 H 0.188724 -6.506456 -0.153065 0
M  V30 54 H -1.306592 -5.597120 0.344567 0
M  V30 END ATOM
M  V30 BEGIN BOND
M  V30 1 1 1 2
M  V30 2 1 2 3
M  V30 3 1 3 4
M  V30 4 1 4 5
M  V30 5 1 5 6
M  V30 6 2 6 7
M  V30 7 1 6 8
M  V30 8 1 8 9
M  V30 9 2 9 10
M  V30 10 1 10 11
M  V30 11 2 11 12
M  V30 12 1 12 13
M  V30 13 1 13 14
M  V30 14 1 14 15
M  V30 15 2 15 16
M  V30 16 1 16 17
M  V30 17 2 17 18
M  V30 18 1 18 19
M  V30 19 1 19 20
M  V30 20 2 13 21
M  V30 21 1 21 22
M  V30 22 2 22 23
M  V30 23 1 23 24
M  V30 24 1 10 25
M  V30 25 1 25 26
M  V30 26 1 26 27
M  V30 27 1 27 28
M  V30 28 1 28 29
M  V30 29 1 28 5
M  V30 30 2 26 8
M  V30 31 1 23 11
M  V30 32 1 19 15
M  V30 33 1 1 30
M  V30 34 1 1 31
M  V30 35 1 1 32
M  V30 36 1 3 33
M  V30 37 1 3 34
M  V30 38 1 4 35
M  V30 39 1 4 36
M  V30 40 1 9 37
M  V30 41 1 14 38
M  V30 42 1 16 39
M  V30 43 1 17 40
M  V30 44 1 20 41
M  V30 45 1 20 42
M  V30 46 1 20 43
M  V30 47 1 22 44
M  V30 48 1 24 45
M  V30 49 1 24 46
M  V30 50 1 24 47
M  V30 51 1 25 48
M  V30 52 1 27 49
M  V30 53 1 27 50
M  V30 54 1 28 51 CFG=3
M  V30 55 1 29 52
M  V30 56 1 29 53
M  V30 57 1 29 54
M  V30 END BOND
M  V30 END CTAB
M  END
>  <Dataset>  (975) 
ChEMBL_Kinases

>  <Ligand_Instance>  (975) 
nan

>  <PDB_ID>  (975) 
nan

>  <Standardized_SMILES>  (975) 
COCCN1C(=O)c2cc(-c3nc(Nc4ccnn4C)ncc3C)[nH]c2C[C@@H]1C

>  <Name>  (975) 
nan

>  <Pocket>  (975) 
nan

>  <ATP_Site>  (975) 
nan

>  <Peripheral>  (975) 
nan

>  <Num_H_Atoms_ProtBoundConf>  (975) 
nan

>  <Num_Resolved_Atoms>  (975) 
nan

>  <Num_Not_Resolved_Atoms>  (975) 
nan

$$$$
CHEMBL4087384
     RDKit          3D

  0  0  0  0  0  0  0  0  0  0999 V3000
M  V30 BEGIN CTAB
M  V30 COUNTS 30 32 0 0 0
M  V30 BEGIN ATOM
M  V30 1 O 3.885454 -5.116763 -1.186005 0
M  V30 2 C 3.543869 -4.366467 -0.243642 0
M  V30 3 N 4.201954 -4.364189 0.983862 0
M  V30 4 C 3.761157 -3.487291 2.007605 0
M  V30 5 S 4.130047 -3.024728 3.508122 0
M  V30 6 S 2.302207 -2.636724 1.355322 0
M  V30 7 C 2.417775 -3.394136 -0.288919 0
M  V30 8 C 1.662104 -3.122590 -1.332560 0
M  V30 9 C 0.586262 -2.147350 -1.247683 0
M  V30 10 C -0.403937 -2.103502 -2.265284 0
M  V30 11 S -1.560867 -0.709238 -1.635587 0
M  V30 12 C -0.464064 -0.499889 -0.160530 0
M  V30 13 C -0.718535 0.509070 0.961613 0
M  V30 14 C 0.104778 0.611735 2.037750 0
M  V30 15 C -0.243292 1.552759 2.990137 0
M  V30 16 C -1.377791 2.326142 2.812366 0
M  V30 17 C -2.223358 2.219185 1.702987 0
M  V30 18 C -3.389338 3.124870 1.722229 0
M  V30 19 F -3.800241 3.346886 3.029028 0
M  V30 20 F -4.458510 2.569339 1.025265 0
M  V30 21 F -3.055371 4.292266 1.060995 0
M  V30 22 C -1.841344 1.265341 0.774966 0
M  V30 23 N 0.359818 -1.255817 -0.287454 0
M  V30 24 H 5.024250 -4.962082 1.273721 0
M  V30 25 H 1.892196 -3.670650 -2.242303 0
M  V30 26 H -0.458610 -2.762711 -3.215352 0
M  V30 27 H 0.931684 -0.067128 2.006596 0
M  V30 28 H 0.427707 1.604068 3.826393 0
M  V30 29 H -1.500595 3.016649 3.657495 0
M  V30 30 H -2.532539 1.235804 -0.048229 0
M  V30 END ATOM
M  V30 BEGIN BOND
M  V30 1 2 1 2
M  V30 2 1 2 3
M  V30 3 1 3 4
M  V30 4 2 4 5
M  V30 5 1 4 6
M  V30 6 1 6 7
M  V30 7 2 7 8
M  V30 8 1 8 9
M  V30 9 2 9 10
M  V30 10 1 10 11
M  V30 11 1 11 12
M  V30 12 1 12 13
M  V30 13 2 13 14
M  V30 14 1 14 15
M  V30 15 2 15 16
M  V30 16 1 16 17
M  V30 17 1 17 18
M  V30 18 1 18 19
M  V30 19 1 18 20
M  V30 20 1 18 21
M  V30 21 2 17 22
M  V30 22 2 12 23
M  V30 23 1 7 2
M  V30 24 1 23 9
M  V30 25 1 22 13
M  V30 26 1 3 24
M  V30 27 1 8 25
M  V30 28 1 10 26
M  V30 29 1 14 27
M  V30 30 1 15 28
M  V30 31 1 16 29
M  V30 32 1 22 30
M  V30 END BOND
M  V30 END CTAB
M  END
>  <Dataset>  (976) 
ChEMBL_Kinases

>  <Ligand_Instance>  (976) 
nan

>  <PDB_ID>  (976) 
nan

>  <Standardized_SMILES>  (976) 
O=C1NC(=S)S/C1=C\c1csc(-c2cccc(C(F)(F)F)c2)n1

>  <Name>  (976) 
nan

>  <Pocket>  (976) 
nan

>  <ATP_Site>  (976) 
nan

>  <Peripheral>  (976) 
nan

>  <Num_H_Atoms_ProtBoundConf>  (976) 
nan

>  <Num_Resolved_Atoms>  (976) 
nan

>  <Num_Not_Resolved_Atoms>  (976) 
nan

$$$$
CHEMBL4848359
     RDKit          3D

  0  0  0  0  0  0  0  0  0  0999 V3000
M  V30 BEGIN CTAB
M  V30 COUNTS 50 52 0 0 0
M  V30 BEGIN ATOM
M  V30 1 C 5.650331 -4.981846 1.842405 0
M  V30 2 N 4.338083 -4.591774 1.304768 0
M  V30 3 C 3.531675 -5.602415 0.769251 0
M  V30 4 O 3.971614 -6.783550 0.777108 0
M  V30 5 C 2.213298 -5.335878 0.208612 0
M  V30 6 N 1.766761 -4.073235 0.212275 0
M  V30 7 C 0.579358 -3.659284 -0.262903 0
M  V30 8 C 0.290342 -2.246183 -0.197441 0
M  V30 9 C 1.361928 -1.415287 0.055110 0
M  V30 10 C 1.271520 -0.046975 0.167189 0
M  V30 11 C 0.057591 0.579479 0.026727 0
M  V30 12 N -0.125508 1.985352 0.125748 0
M  V30 13 C -0.412554 2.590451 1.363067 0
M  V30 14 O -0.583390 2.267080 2.569248 0
M  V30 15 C -0.656599 3.946373 1.837928 0 CFG=2
M  V30 16 O -0.838064 3.851822 3.239018 0
M  V30 17 C -1.863948 4.600901 1.322863 0
M  V30 18 C -2.667312 4.281761 0.247963 0
M  V30 19 C -3.768976 5.039068 -0.072710 0
M  V30 20 F -4.506273 4.645294 -1.156762 0
M  V30 21 C -4.137744 6.139945 0.637972 0
M  V30 22 C -3.354376 6.485408 1.719335 0
M  V30 23 F -3.726595 7.584255 2.424817 0
M  V30 24 C -2.245909 5.734019 2.052155 0
M  V30 25 C -1.012735 -0.244623 -0.223890 0
M  V30 26 C -0.917395 -1.615266 -0.334761 0
M  V30 27 C -2.141826 -2.383553 -0.563218 0
M  V30 28 C -0.146787 -4.685793 -0.765826 0
M  V30 29 N 0.246475 -5.965964 -0.796342 0
M  V30 30 C 1.440998 -6.344829 -0.311252 0
M  V30 31 N 1.931281 -7.668640 -0.304195 0
M  V30 32 H 5.935663 -4.348826 2.710020 0
M  V30 33 H 5.681782 -6.053885 2.043055 0
M  V30 34 H 6.451527 -4.792263 1.078022 0
M  V30 35 H 4.042426 -3.611427 1.330039 0
M  V30 36 H 2.392228 -1.784357 0.188892 0
M  V30 37 H 2.131835 0.570737 0.364288 0
M  V30 38 H -0.083876 2.730204 -0.602187 0
M  V30 39 H 0.250839 4.607356 1.718831 0
M  V30 40 H -1.780256 3.563375 3.360615 0
M  V30 41 H -2.345211 3.410100 -0.283316 0
M  V30 42 H -5.015081 6.695522 0.336712 0
M  V30 43 H -1.707569 6.110798 2.929848 0
M  V30 44 H -1.984656 0.249549 -0.337022 0
M  V30 45 H -2.287764 -2.606394 -1.619607 0
M  V30 46 H -3.023658 -1.684821 -0.331303 0
M  V30 47 H -2.331054 -3.205443 0.158585 0
M  V30 48 H -1.094387 -4.501364 -1.197977 0
M  V30 49 H 2.724792 -7.833124 -0.984854 0
M  V30 50 H 1.398679 -8.243287 0.392367 0
M  V30 END ATOM
M  V30 BEGIN BOND
M  V30 1 1 1 2
M  V30 2 1 2 3
M  V30 3 2 3 4
M  V30 4 1 3 5
M  V30 5 2 5 6
M  V30 6 1 6 7
M  V30 7 1 7 8
M  V30 8 2 8 9
M  V30 9 1 9 10
M  V30 10 2 10 11
M  V30 11 1 11 12
M  V30 12 1 12 13
M  V30 13 2 13 14
M  V30 14 1 13 15
M  V30 15 1 15 16
M  V30 16 1 15 17
M  V30 17 2 17 18
M  V30 18 1 18 19
M  V30 19 1 19 20
M  V30 20 2 19 21
M  V30 21 1 21 22
M  V30 22 1 22 23
M  V30 23 2 22 24
M  V30 24 1 11 25
M  V30 25 2 25 26
M  V30 26 1 26 27
M  V30 27 2 7 28
M  V30 28 1 28 29
M  V30 29 2 29 30
M  V30 30 1 30 31
M  V30 31 1 30 5
M  V30 32 1 26 8
M  V30 33 1 24 17
M  V30 34 1 1 32
M  V30 35 1 1 33
M  V30 36 1 1 34
M  V30 37 1 2 35
M  V30 38 1 9 36
M  V30 39 1 10 37
M  V30 40 1 12 38
M  V30 41 1 15 39 CFG=1
M  V30 42 1 16 40
M  V30 43 1 18 41
M  V30 44 1 21 42
M  V30 45 1 24 43
M  V30 46 1 25 44
M  V30 47 1 27 45
M  V30 48 1 27 46
M  V30 49 1 27 47
M  V30 50 1 28 48
M  V30 51 1 31 49
M  V30 52 1 31 50
M  V30 END BOND
M  V30 END CTAB
M  END
>  <Dataset>  (977) 
ChEMBL_Kinases

>  <Ligand_Instance>  (977) 
nan

>  <PDB_ID>  (977) 
nan

>  <Standardized_SMILES>  (977) 
CNC(=O)c1nc(-c2ccc(NC(=O)[C@H](O)c3cc(F)cc(F)c3)cc2C)cnc1N

>  <Name>  (977) 
nan

>  <Pocket>  (977) 
nan

>  <ATP_Site>  (977) 
nan

>  <Peripheral>  (977) 
nan

>  <Num_H_Atoms_ProtBoundConf>  (977) 
nan

>  <Num_Resolved_Atoms>  (977) 
nan

>  <Num_Not_Resolved_Atoms>  (977) 
nan

$$$$
CHEMBL4848434
     RDKit          3D

  0  0  0  0  0  0  0  0  0  0999 V3000
M  V30 BEGIN CTAB
M  V30 COUNTS 26 28 0 0 0
M  V30 BEGIN ATOM
M  V30 1 O 1.155655 -4.897172 2.451473 0
M  V30 2 C 0.338134 -4.333237 1.681135 0
M  V30 3 O -0.631431 -5.089257 1.083015 0
M  V30 4 C 0.402816 -2.879306 1.410332 0
M  V30 5 C 1.400518 -2.163228 2.039996 0
M  V30 6 C 1.386536 -0.817662 1.731299 0
M  V30 7 C 0.507573 -0.190005 0.898172 0
M  V30 8 C -0.439194 -0.975100 0.323993 0
M  V30 9 C -1.417989 -0.496942 -0.554940 0
M  V30 10 C -1.382518 0.854584 -0.825898 0
M  V30 11 C -0.423293 1.653391 -0.244898 0
M  V30 12 C -0.434058 2.990110 -0.549030 0
M  V30 13 C 0.546041 3.744499 0.058357 0
M  V30 14 N 1.480797 3.226870 0.911250 0
M  V30 15 C 1.469935 1.911277 1.193624 0
M  V30 16 Cl 2.743549 1.489425 2.293194 0
M  V30 17 C 0.513163 1.126767 0.611315 0
M  V30 18 C -0.525180 -2.330691 0.555950 0
M  V30 19 H -1.014550 -5.953118 1.493504 0
M  V30 20 H 2.075260 -2.681649 2.687648 0
M  V30 21 H 2.173664 -0.344771 2.248398 0
M  V30 22 H -2.155583 -1.113718 -1.001134 0
M  V30 23 H -2.107009 1.285488 -1.493501 0
M  V30 24 H -1.159679 3.428720 -1.219224 0
M  V30 25 H 0.551630 4.800941 -0.170864 0
M  V30 26 H -1.278828 -2.983146 0.104982 0
M  V30 END ATOM
M  V30 BEGIN BOND
M  V30 1 2 1 2
M  V30 2 1 2 3
M  V30 3 1 2 4
M  V30 4 2 4 5
M  V30 5 1 5 6
M  V30 6 2 6 7
M  V30 7 1 7 8
M  V30 8 1 8 9
M  V30 9 2 9 10
M  V30 10 1 10 11
M  V30 11 2 11 12
M  V30 12 1 12 13
M  V30 13 2 13 14
M  V30 14 1 14 15
M  V30 15 1 15 16
M  V30 16 2 15 17
M  V30 17 2 8 18
M  V30 18 1 18 4
M  V30 19 1 17 7
M  V30 20 1 17 11
M  V30 21 1 3 19
M  V30 22 1 5 20
M  V30 23 1 6 21
M  V30 24 1 9 22
M  V30 25 1 10 23
M  V30 26 1 12 24
M  V30 27 1 13 25
M  V30 28 1 18 26
M  V30 END BOND
M  V30 END CTAB
M  END
>  <Dataset>  (978) 
ChEMBL_Kinases

>  <Ligand_Instance>  (978) 
nan

>  <PDB_ID>  (978) 
nan

>  <Standardized_SMILES>  (978) 
O=C(O)c1ccc2c(ccc3ccnc(Cl)c32)c1

>  <Name>  (978) 
nan

>  <Pocket>  (978) 
nan

>  <ATP_Site>  (978) 
nan

>  <Peripheral>  (978) 
nan

>  <Num_H_Atoms_ProtBoundConf>  (978) 
nan

>  <Num_Resolved_Atoms>  (978) 
nan

>  <Num_Not_Resolved_Atoms>  (978) 
nan

$$$$
CHEMBL4087322
     RDKit          3D

  0  0  0  0  0  0  0  0  0  0999 V3000
M  V30 BEGIN CTAB
M  V30 COUNTS 24 26 0 0 0
M  V30 BEGIN ATOM
M  V30 1 O -0.806560 -4.616770 -0.466145 0
M  V30 2 C -0.048475 -3.958483 0.293930 0
M  V30 3 N 0.564084 -4.445459 1.446061 0
M  V30 4 C 1.388789 -3.546031 2.175952 0
M  V30 5 S 2.490509 -3.807145 3.341100 0
M  V30 6 S 0.958600 -1.912009 1.521485 0
M  V30 7 C 0.245682 -2.562812 -0.013334 0
M  V30 8 C 0.106028 -1.783883 -1.073177 0
M  V30 9 C 0.516641 -0.358425 -1.064116 0
M  V30 10 C 1.079291 0.201363 -2.208386 0
M  V30 11 S 1.367011 1.974981 -1.570241 0
M  V30 12 C 0.664638 1.541882 0.076626 0
M  V30 13 C 0.504808 2.457252 1.281123 0
M  V30 14 C 0.003161 2.255862 2.553583 0
M  V30 15 C 0.146379 3.506633 3.161853 0
M  V30 16 C 0.717712 4.376745 2.234341 0
M  V30 17 O 0.908298 3.697487 1.135543 0
M  V30 18 N 0.375475 0.433603 -0.010155 0
M  V30 19 H 0.448386 -5.432105 1.797880 0
M  V30 20 H -0.337936 -2.308427 -1.932322 0
M  V30 21 H 1.274167 -0.243745 -3.130103 0
M  V30 22 H -0.338855 1.249166 2.713370 0
M  V30 23 H -0.213757 3.519976 4.204717 0
M  V30 24 H 0.838062 5.352088 2.684426 0
M  V30 END ATOM
M  V30 BEGIN BOND
M  V30 1 2 1 2
M  V30 2 1 2 3
M  V30 3 1 3 4
M  V30 4 2 4 5
M  V30 5 1 4 6
M  V30 6 1 6 7
M  V30 7 2 7 8
M  V30 8 1 8 9
M  V30 9 2 9 10
M  V30 10 1 10 11
M  V30 11 1 11 12
M  V30 12 1 12 13
M  V30 13 2 13 14
M  V30 14 1 14 15
M  V30 15 2 15 16
M  V30 16 1 16 17
M  V30 17 2 12 18
M  V30 18 1 7 2
M  V30 19 1 18 9
M  V30 20 1 17 13
M  V30 21 1 3 19
M  V30 22 1 8 20
M  V30 23 1 10 21
M  V30 24 1 14 22
M  V30 25 1 15 23
M  V30 26 1 16 24
M  V30 END BOND
M  V30 END CTAB
M  END
>  <Dataset>  (979) 
ChEMBL_Kinases

>  <Ligand_Instance>  (979) 
nan

>  <PDB_ID>  (979) 
nan

>  <Standardized_SMILES>  (979) 
O=C1NC(=S)S/C1=C\c1csc(-c2ccco2)n1

>  <Name>  (979) 
nan

>  <Pocket>  (979) 
nan

>  <ATP_Site>  (979) 
nan

>  <Peripheral>  (979) 
nan

>  <Num_H_Atoms_ProtBoundConf>  (979) 
nan

>  <Num_Resolved_Atoms>  (979) 
nan

>  <Num_Not_Resolved_Atoms>  (979) 
nan

$$$$
CHEMBL4087295
     RDKit          3D

  0  0  0  0  0  0  0  0  0  0999 V3000
M  V30 BEGIN CTAB
M  V30 COUNTS 53 58 0 0 0
M  V30 BEGIN ATOM
M  V30 1 Cl -3.086979 -1.540705 5.818647 0
M  V30 2 C -1.708000 -1.214565 4.820423 0
M  V30 3 C -0.539720 -0.710954 5.348526 0
M  V30 4 C 0.569285 -0.445107 4.558375 0
M  V30 5 C 0.528042 -0.686561 3.179348 0
M  V30 6 N 1.536890 -0.465383 2.342544 0
M  V30 7 C 1.545584 -0.680302 1.018736 0
M  V30 8 N 2.807167 -0.324840 0.509698 0
M  V30 9 C 3.707389 0.708946 0.282305 0
M  V30 10 C 3.382920 1.874606 -0.562294 0
M  V30 11 C 2.229067 2.678336 -0.128101 0
M  V30 12 C 2.308649 3.813297 0.673505 0
M  V30 13 N 1.091046 4.319677 0.927897 0
M  V30 14 C 0.163967 3.560816 0.318819 0
M  V30 15 C -1.230721 3.568911 0.191693 0
M  V30 16 C -1.866203 2.599474 -0.557395 0
M  V30 17 C -1.199052 1.580354 -1.217785 0
M  V30 18 C 0.170074 1.634881 -1.048162 0
M  V30 19 C 0.867224 2.559201 -0.325209 0
M  V30 20 N 0.417203 -1.165074 0.521708 0
M  V30 21 C -0.660876 -1.426611 1.264504 0
M  V30 22 N -1.873847 -1.966307 0.787630 0
M  V30 23 C -1.954006 -3.138129 -0.031435 0
M  V30 24 C -3.182784 -3.743369 -0.256927 0
M  V30 25 C -3.234678 -4.874414 -1.042256 0
M  V30 26 C -2.135997 -5.462869 -1.634868 0
M  V30 27 N -1.927502 -6.540471 -2.425763 0
M  V30 28 N -0.628869 -6.601303 -2.681627 0
M  V30 29 C 0.028434 -5.591929 -2.080510 0
M  V30 30 C -0.919467 -4.834257 -1.392451 0
M  V30 31 C -0.852741 -3.702833 -0.607942 0
M  V30 32 C -0.641223 -1.193678 2.630156 0
M  V30 33 C -1.726537 -1.443695 3.464421 0
M  V30 34 H -0.438145 -0.498408 6.423213 0
M  V30 35 H 1.510341 -0.047613 4.948505 0
M  V30 36 H 3.025858 -1.332843 0.233506 0
M  V30 37 H 4.123724 1.046832 1.302534 0
M  V30 38 H 4.627956 0.236777 -0.223997 0
M  V30 39 H 4.254927 2.601301 -0.635286 0
M  V30 40 H 3.210440 1.602594 -1.635830 0
M  V30 41 H 3.232626 4.242924 1.051233 0
M  V30 42 H 0.811221 5.151279 1.488849 0
M  V30 43 H -1.732566 4.369826 0.713926 0
M  V30 44 H -2.943116 2.649440 -0.627407 0
M  V30 45 H -1.675795 0.828202 -1.797104 0
M  V30 46 H 0.723730 0.835393 -1.561738 0
M  V30 47 H -2.748172 -1.469085 1.051596 0
M  V30 48 H -4.113197 -3.344432 0.178073 0
M  V30 49 H -4.201219 -5.343631 -1.212015 0
M  V30 50 H -2.669040 -7.185291 -2.754721 0
M  V30 51 H 1.105992 -5.376878 -2.107292 0
M  V30 52 H 0.136454 -3.289397 -0.479262 0
M  V30 53 H -2.639692 -1.836117 3.044610 0
M  V30 END ATOM
M  V30 BEGIN BOND
M  V30 1 1 1 2
M  V30 2 2 2 3
M  V30 3 1 3 4
M  V30 4 2 4 5
M  V30 5 1 5 6
M  V30 6 2 6 7
M  V30 7 1 7 8
M  V30 8 1 8 9
M  V30 9 1 9 10
M  V30 10 1 10 11
M  V30 11 2 11 12
M  V30 12 1 12 13
M  V30 13 1 13 14
M  V30 14 2 14 15
M  V30 15 1 15 16
M  V30 16 2 16 17
M  V30 17 1 17 18
M  V30 18 2 18 19
M  V30 19 1 7 20
M  V30 20 2 20 21
M  V30 21 1 21 22
M  V30 22 1 22 23
M  V30 23 2 23 24
M  V30 24 1 24 25
M  V30 25 2 25 26
M  V30 26 1 26 27
M  V30 27 1 27 28
M  V30 28 2 28 29
M  V30 29 1 29 30
M  V30 30 2 30 31
M  V30 31 1 21 32
M  V30 32 2 32 33
M  V30 33 1 33 2
M  V30 34 1 32 5
M  V30 35 1 19 11
M  V30 36 1 31 23
M  V30 37 1 19 14
M  V30 38 1 30 26
M  V30 39 1 3 34
M  V30 40 1 4 35
M  V30 41 1 8 36
M  V30 42 1 9 37
M  V30 43 1 9 38
M  V30 44 1 10 39
M  V30 45 1 10 40
M  V30 46 1 12 41
M  V30 47 1 13 42
M  V30 48 1 15 43
M  V30 49 1 16 44
M  V30 50 1 17 45
M  V30 51 1 18 46
M  V30 52 1 22 47
M  V30 53 1 24 48
M  V30 54 1 25 49
M  V30 55 1 27 50
M  V30 56 1 29 51
M  V30 57 1 31 52
M  V30 58 1 33 53
M  V30 END BOND
M  V30 END CTAB
M  END
>  <Dataset>  (980) 
ChEMBL_Kinases

>  <Ligand_Instance>  (980) 
nan

>  <PDB_ID>  (980) 
nan

>  <Standardized_SMILES>  (980) 
Clc1ccc2nc(NCCc3c[nH]c4ccccc34)nc(Nc3ccc4[nH]ncc4c3)c2c1

>  <Name>  (980) 
nan

>  <Pocket>  (980) 
nan

>  <ATP_Site>  (980) 
nan

>  <Peripheral>  (980) 
nan

>  <Num_H_Atoms_ProtBoundConf>  (980) 
nan

>  <Num_Resolved_Atoms>  (980) 
nan

>  <Num_Not_Resolved_Atoms>  (980) 
nan

$$$$
CHEMBL4848653
     RDKit          3D

  0  0  0  0  0  0  0  0  0  0999 V3000
M  V30 BEGIN CTAB
M  V30 COUNTS 64 68 0 0 0
M  V30 BEGIN ATOM
M  V30 1 C 4.709116 -2.593878 2.197630 0
M  V30 2 O 4.372001 -1.258832 1.832952 0
M  V30 3 C 4.366270 -0.364840 2.898387 0
M  V30 4 C 4.649577 -0.662752 4.211973 0
M  V30 5 C 4.617262 0.301049 5.213418 0
M  V30 6 C 4.286315 1.588334 4.839661 0
M  V30 7 F 4.244729 2.561372 5.794529 0
M  V30 8 C 3.985921 1.981245 3.542482 0
M  V30 9 C 4.044288 0.956128 2.618917 0
M  V30 10 C 3.729067 1.347251 1.226149 0
M  V30 11 C 4.792096 1.751818 0.453779 0
M  V30 12 F 6.090940 1.822787 0.850088 0
M  V30 13 C 4.437615 2.107726 -0.833337 0
M  V30 14 N 3.170993 2.078987 -1.338400 0
M  V30 15 C 2.133182 1.676320 -0.560179 0
M  V30 16 N 0.801217 1.526389 -0.703915 0
M  V30 17 C 0.243388 1.078946 0.447599 0
M  V30 18 C -1.201694 0.812060 0.638669 0
M  V30 19 C -1.984215 1.039763 -0.397956 0
M  V30 20 C -3.412741 0.760848 -0.159948 0
M  V30 21 N -3.671003 -0.270619 0.771606 0
M  V30 22 C -3.868216 -1.573897 0.271241 0 CFG=1
M  V30 23 C -4.996809 -1.756038 -0.673590 0
M  V30 24 C -4.522985 -2.036369 -2.085041 0
M  V30 25 C -3.916402 -3.451157 -2.086021 0 CFG=1
M  V30 26 C -3.397106 -3.786236 -3.449166 0
M  V30 27 C -2.343596 -2.894995 -3.952714 0
M  V30 28 O -1.252109 -2.655435 -3.342079 0
M  V30 29 O -1.505549 -2.023434 -4.621809 0
M  V30 30 C -2.862770 -3.459051 -1.041128 0
M  V30 31 C -2.605905 -2.117194 -0.393277 0
M  V30 32 C -3.007585 -0.178322 2.023276 0
M  V30 33 C -1.604386 0.320218 1.967044 0
M  V30 34 C 1.276297 0.942207 1.356894 0
M  V30 35 C 2.445623 1.314818 0.724835 0
M  V30 36 H 4.591739 -3.294486 1.353931 0
M  V30 37 H 5.770965 -2.599066 2.516645 0
M  V30 38 H 4.097157 -2.962666 3.049987 0
M  V30 39 H 4.899472 -1.689631 4.430229 0
M  V30 40 H 4.836592 0.027463 6.215966 0
M  V30 41 H 3.725491 2.989445 3.253280 0
M  V30 42 H 5.179974 2.450052 -1.559546 0
M  V30 43 H 0.345145 1.744786 -1.613686 0
M  V30 44 H -1.647428 1.403973 -1.365266 0
M  V30 45 H -3.831370 1.700646 0.263541 0
M  V30 46 H -3.892823 0.601906 -1.121723 0
M  V30 47 H -3.986566 -2.245777 1.175462 0
M  V30 48 H -5.789922 -0.982095 -0.637012 0
M  V30 49 H -5.555345 -2.697188 -0.372800 0
M  V30 50 H -5.370692 -2.082784 -2.776911 0
M  V30 51 H -3.695767 -1.385579 -2.421995 0
M  V30 52 H -4.687345 -4.198020 -1.844551 0
M  V30 53 H -4.245570 -3.779176 -4.162980 0
M  V30 54 H -3.040076 -4.851819 -3.409476 0
M  V30 55 H -1.863229 -1.559554 -5.464241 0
M  V30 56 H -3.112147 -4.151561 -0.181848 0
M  V30 57 H -1.911392 -3.829053 -1.436778 0
M  V30 58 H -1.868106 -2.334719 0.439679 0
M  V30 59 H -2.144379 -1.366305 -1.030412 0
M  V30 60 H -3.006007 -1.152408 2.564092 0
M  V30 61 H -3.639317 0.484624 2.677736 0
M  V30 62 H -0.874078 -0.472342 2.298262 0
M  V30 63 H -1.472581 1.161088 2.672570 0
M  V30 64 H 1.155247 0.599651 2.378989 0
M  V30 END ATOM
M  V30 BEGIN BOND
M  V30 1 1 1 2
M  V30 2 1 2 3
M  V30 3 2 3 4
M  V30 4 1 4 5
M  V30 5 2 5 6
M  V30 6 1 6 7
M  V30 7 1 6 8
M  V30 8 2 8 9
M  V30 9 1 9 10
M  V30 10 2 10 11
M  V30 11 1 11 12
M  V30 12 1 11 13
M  V30 13 2 13 14
M  V30 14 1 14 15
M  V30 15 1 15 16
M  V30 16 1 16 17
M  V30 17 1 17 18
M  V30 18 2 18 19
M  V30 19 1 19 20
M  V30 20 1 20 21
M  V30 21 1 21 22
M  V30 22 1 22 23
M  V30 23 1 23 24
M  V30 24 1 24 25
M  V30 25 1 25 26
M  V30 26 1 26 27
M  V30 27 2 27 28
M  V30 28 1 27 29
M  V30 29 1 25 30
M  V30 30 1 30 31
M  V30 31 1 21 32
M  V30 32 1 32 33
M  V30 33 2 17 34
M  V30 34 1 34 35
M  V30 35 1 9 3
M  V30 36 1 35 10
M  V30 37 2 35 15
M  V30 38 1 33 18
M  V30 39 1 31 22
M  V30 40 1 1 36
M  V30 41 1 1 37
M  V30 42 1 1 38
M  V30 43 1 4 39
M  V30 44 1 5 40
M  V30 45 1 8 41
M  V30 46 1 13 42
M  V30 47 1 16 43
M  V30 48 1 19 44
M  V30 49 1 20 45
M  V30 50 1 20 46
M  V30 51 1 22 47 CFG=1
M  V30 52 1 23 48
M  V30 53 1 23 49
M  V30 54 1 24 50
M  V30 55 1 24 51
M  V30 56 1 25 52 CFG=1
M  V30 57 1 26 53
M  V30 58 1 26 54
M  V30 59 1 29 55
M  V30 60 1 30 56
M  V30 61 1 30 57
M  V30 62 1 31 58
M  V30 63 1 31 59
M  V30 64 1 32 60
M  V30 65 1 32 61
M  V30 66 1 33 62
M  V30 67 1 33 63
M  V30 68 1 34 64
M  V30 END BOND
M  V30 END CTAB
M  END
>  <Dataset>  (981) 
ChEMBL_Kinases

>  <Ligand_Instance>  (981) 
nan

>  <PDB_ID>  (981) 
nan

>  <Standardized_SMILES>  (981) 
COc1ccc(F)cc1-c1c(F)cnc2[nH]c(C3=CCN([C@H]4CC[C@@H](CC(=O)O)CC4)CC3)cc12

>  <Name>  (981) 
nan

>  <Pocket>  (981) 
nan

>  <ATP_Site>  (981) 
nan

>  <Peripheral>  (981) 
nan

>  <Num_H_Atoms_ProtBoundConf>  (981) 
nan

>  <Num_Resolved_Atoms>  (981) 
nan

>  <Num_Not_Resolved_Atoms>  (981) 
nan

$$$$
CHEMBL4848439
     RDKit          3D

  0  0  0  0  0  0  0  0  0  0999 V3000
M  V30 BEGIN CTAB
M  V30 COUNTS 46 49 0 0 0
M  V30 BEGIN ATOM
M  V30 1 C 2.334475 -3.156994 5.872761 0
M  V30 2 N 2.463765 -2.493894 4.580236 0
M  V30 3 C 3.490996 -2.853432 3.663783 0
M  V30 4 O 4.288222 -3.765869 4.005146 0
M  V30 5 C 3.674895 -2.229732 2.356263 0
M  V30 6 C 4.722270 -2.697467 1.589311 0
M  V30 7 C 4.889729 -2.092908 0.337893 0
M  V30 8 C 4.077010 -1.084102 -0.140150 0
M  V30 9 C 3.042863 -0.650942 0.664755 0
M  V30 10 C 2.165560 0.397379 0.216404 0
M  V30 11 C 1.428011 1.286310 -0.141381 0
M  V30 12 C 0.549051 2.370495 -0.555643 0
M  V30 13 C 1.121163 3.607580 -0.739632 0
M  V30 14 C 0.348669 4.678197 -1.131188 0
M  V30 15 C -1.001256 4.480799 -1.332504 0
M  V30 16 C -1.517787 3.219585 -1.132695 0
M  V30 17 C -0.800323 2.110058 -0.742141 0
M  V30 18 N -1.310764 0.823697 -0.535358 0
M  V30 19 C -2.649382 0.399786 -0.681743 0
M  V30 20 N -3.711420 1.131545 -1.047171 0
M  V30 21 C -4.963052 0.697797 -1.175331 0
M  V30 22 N -5.231227 -0.581862 -0.925829 0
M  V30 23 C -4.260575 -1.437362 -0.548271 0
M  V30 24 C -4.532793 -2.763174 -0.288725 0
M  V30 25 C -3.541115 -3.640266 0.097744 0
M  V30 26 C -2.279717 -3.092224 0.201025 0
M  V30 27 Cl -0.941536 -4.114824 0.685004 0
M  V30 28 N -2.034567 -1.796136 -0.056547 0
M  V30 29 C -2.993749 -0.913086 -0.438449 0
M  V30 30 C 2.845443 -1.222934 1.906228 0
M  V30 31 H 2.470272 -2.396331 6.661849 0
M  V30 32 H 1.290874 -3.560895 6.024563 0
M  V30 33 H 2.993696 -4.023477 5.930951 0
M  V30 34 H 1.798121 -1.746525 4.319269 0
M  V30 35 H 5.421406 -3.486190 1.869126 0
M  V30 36 H 5.704175 -2.436773 -0.291475 0
M  V30 37 H 4.242761 -0.644381 -1.115158 0
M  V30 38 H 2.199361 3.737359 -0.572327 0
M  V30 39 H 0.865407 5.619014 -1.256151 0
M  V30 40 H -1.608556 5.320874 -1.639951 0
M  V30 41 H -2.560857 3.140863 -1.305489 0
M  V30 42 H -0.621036 0.086527 -0.236829 0
M  V30 43 H -5.741959 1.384739 -1.478407 0
M  V30 44 H -5.558120 -3.116180 -0.394268 0
M  V30 45 H -3.713670 -4.681648 0.309174 0
M  V30 46 H 2.033557 -0.859463 2.499230 0
M  V30 END ATOM
M  V30 BEGIN BOND
M  V30 1 1 1 2
M  V30 2 1 2 3
M  V30 3 2 3 4
M  V30 4 1 3 5
M  V30 5 2 5 6
M  V30 6 1 6 7
M  V30 7 2 7 8
M  V30 8 1 8 9
M  V30 9 1 9 10
M  V30 10 3 10 11
M  V30 11 1 11 12
M  V30 12 2 12 13
M  V30 13 1 13 14
M  V30 14 2 14 15
M  V30 15 1 15 16
M  V30 16 2 16 17
M  V30 17 1 17 18
M  V30 18 1 18 19
M  V30 19 2 19 20
M  V30 20 1 20 21
M  V30 21 2 21 22
M  V30 22 1 22 23
M  V30 23 2 23 24
M  V30 24 1 24 25
M  V30 25 2 25 26
M  V30 26 1 26 27
M  V30 27 1 26 28
M  V30 28 2 28 29
M  V30 29 2 9 30
M  V30 30 1 30 5
M  V30 31 1 17 12
M  V30 32 1 29 19
M  V30 33 1 29 23
M  V30 34 1 1 31
M  V30 35 1 1 32
M  V30 36 1 1 33
M  V30 37 1 2 34
M  V30 38 1 6 35
M  V30 39 1 7 36
M  V30 40 1 8 37
M  V30 41 1 13 38
M  V30 42 1 14 39
M  V30 43 1 15 40
M  V30 44 1 16 41
M  V30 45 1 18 42
M  V30 46 1 21 43
M  V30 47 1 24 44
M  V30 48 1 25 45
M  V30 49 1 30 46
M  V30 END BOND
M  V30 END CTAB
M  END
>  <Dataset>  (982) 
ChEMBL_Kinases

>  <Ligand_Instance>  (982) 
nan

>  <PDB_ID>  (982) 
nan

>  <Standardized_SMILES>  (982) 
CNC(=O)c1cccc(C#Cc2ccccc2Nc2ncnc3ccc(Cl)nc23)c1

>  <Name>  (982) 
nan

>  <Pocket>  (982) 
nan

>  <ATP_Site>  (982) 
nan

>  <Peripheral>  (982) 
nan

>  <Num_H_Atoms_ProtBoundConf>  (982) 
nan

>  <Num_Resolved_Atoms>  (982) 
nan

>  <Num_Not_Resolved_Atoms>  (982) 
nan

$$$$
CHEMBL4087244
     RDKit          3D

  0  0  0  0  0  0  0  0  0  0999 V3000
M  V30 BEGIN CTAB
M  V30 COUNTS 58 62 0 0 0
M  V30 BEGIN ATOM
M  V30 1 O 1.739341 0.578726 1.989571 0
M  V30 2 C 2.177607 -0.165840 1.053426 0
M  V30 3 N 3.362794 -0.813948 1.474381 0
M  V30 4 C 3.956032 -0.631549 2.783887 0
M  V30 5 C 3.233439 -1.365347 3.835029 0
M  V30 6 C 3.522769 -2.683677 4.206073 0
M  V30 7 N 2.673807 -3.051736 5.201877 0
M  V30 8 N 1.849612 -2.035353 5.492206 0
M  V30 9 C 2.188925 -1.027690 4.671379 0
M  V30 10 C 1.514130 -0.288446 -0.232670 0
M  V30 11 C 0.355749 0.483888 -0.377484 0
M  V30 12 C -0.388482 0.480340 -1.536763 0
M  V30 13 C -1.606833 1.326253 -1.618670 0 CFG=2
M  V30 14 C -1.149489 2.753113 -1.522884 0
M  V30 15 C -2.214089 3.729885 -1.146202 0
M  V30 16 N -3.049317 3.266078 -0.054597 0
M  V30 17 C -3.711790 2.095729 -0.563541 0
M  V30 18 C -2.673758 0.963987 -0.629377 0 CFG=1
M  V30 19 C -3.461152 -0.254227 -1.041833 0
M  V30 20 O -2.661671 -1.366302 -1.172954 0
M  V30 21 C -1.892586 -2.058211 -0.307856 0
M  V30 22 C -1.596186 -1.960486 1.031091 0
M  V30 23 C -0.756393 -2.804918 1.718690 0
M  V30 24 C -0.178155 -3.821435 0.989947 0
M  V30 25 C -0.404970 -4.017800 -0.368658 0
M  V30 26 C -1.273268 -3.113773 -0.995950 0
M  V30 27 O 0.341407 -5.115317 -0.713909 0
M  V30 28 C 1.041518 -5.642429 0.374574 0
M  V30 29 O 0.694614 -4.793918 1.443477 0
M  V30 30 C -0.001776 -0.294402 -2.592264 0
M  V30 31 C 1.131015 -1.074731 -2.504550 0
M  V30 32 C 1.828176 -1.026990 -1.323162 0
M  V30 33 F 2.941002 -1.783068 -1.212412 0
M  V30 34 H 3.833377 -1.456760 0.804923 0
M  V30 35 H 3.886348 0.461591 3.041569 0
M  V30 36 H 5.021155 -0.957957 2.761072 0
M  V30 37 H 4.288617 -3.356208 3.801980 0
M  V30 38 H 1.093021 -2.027893 6.214511 0
M  V30 39 H 1.715370 -0.066793 4.654322 0
M  V30 40 H 0.000735 1.125413 0.442116 0
M  V30 41 H -2.057195 1.187963 -2.624230 0
M  V30 42 H -0.702740 3.075013 -2.485213 0
M  V30 43 H -0.333018 2.857933 -0.760114 0
M  V30 44 H -2.910411 3.942551 -1.993956 0
M  V30 45 H -1.725430 4.669993 -0.826138 0
M  V30 46 H -2.518252 3.077247 0.809740 0
M  V30 47 H -3.990954 2.257640 -1.635423 0
M  V30 48 H -4.620671 1.810540 -0.047819 0
M  V30 49 H -2.185687 0.855752 0.348522 0
M  V30 50 H -4.103714 -0.049044 -1.929559 0
M  V30 51 H -4.230298 -0.521619 -0.253206 0
M  V30 52 H -2.095420 -1.153216 1.512153 0
M  V30 53 H -0.608089 -2.622954 2.754537 0
M  V30 54 H -1.364989 -3.378072 -2.055728 0
M  V30 55 H 2.149907 -5.559951 0.219491 0
M  V30 56 H 0.772857 -6.702466 0.571709 0
M  V30 57 H -0.588347 -0.286572 -3.484629 0
M  V30 58 H 1.486416 -1.706387 -3.303234 0
M  V30 END ATOM
M  V30 BEGIN BOND
M  V30 1 2 1 2
M  V30 2 1 2 3
M  V30 3 1 3 4
M  V30 4 1 4 5
M  V30 5 1 5 6
M  V30 6 2 6 7
M  V30 7 1 7 8
M  V30 8 1 8 9
M  V30 9 1 2 10
M  V30 10 2 10 11
M  V30 11 1 11 12
M  V30 12 1 12 13
M  V30 13 1 13 14
M  V30 14 1 14 15
M  V30 15 1 15 16
M  V30 16 1 16 17
M  V30 17 1 17 18
M  V30 18 1 18 19
M  V30 19 1 19 20
M  V30 20 1 20 21
M  V30 21 2 21 22
M  V30 22 1 22 23
M  V30 23 2 23 24
M  V30 24 1 24 25
M  V30 25 2 25 26
M  V30 26 1 25 27
M  V30 27 1 27 28
M  V30 28 1 28 29
M  V30 29 2 12 30
M  V30 30 1 30 31
M  V30 31 2 31 32
M  V30 32 1 32 33
M  V30 33 2 9 5
M  V30 34 1 32 10
M  V30 35 1 18 13
M  V30 36 1 26 21
M  V30 37 1 29 24
M  V30 38 1 3 34
M  V30 39 1 4 35
M  V30 40 1 4 36
M  V30 41 1 6 37
M  V30 42 1 8 38
M  V30 43 1 9 39
M  V30 44 1 11 40
M  V30 45 1 13 41 CFG=3
M  V30 46 1 14 42
M  V30 47 1 14 43
M  V30 48 1 15 44
M  V30 49 1 15 45
M  V30 50 1 16 46
M  V30 51 1 17 47
M  V30 52 1 17 48
M  V30 53 1 18 49 CFG=1
M  V30 54 1 19 50
M  V30 55 1 19 51
M  V30 56 1 22 52
M  V30 57 1 23 53
M  V30 58 1 26 54
M  V30 59 1 28 55
M  V30 60 1 28 56
M  V30 61 1 30 57
M  V30 62 1 31 58
M  V30 END BOND
M  V30 END CTAB
M  END
>  <Dataset>  (983) 
ChEMBL_Kinases

>  <Ligand_Instance>  (983) 
nan

>  <PDB_ID>  (983) 
nan

>  <Standardized_SMILES>  (983) 
O=C(NCc1cn[nH]c1)c1cc([C@@H]2CCNC[C@H]2COc2ccc3c(c2)OCO3)ccc1F

>  <Name>  (983) 
nan

>  <Pocket>  (983) 
nan

>  <ATP_Site>  (983) 
nan

>  <Peripheral>  (983) 
nan

>  <Num_H_Atoms_ProtBoundConf>  (983) 
nan

>  <Num_Resolved_Atoms>  (983) 
nan

>  <Num_Not_Resolved_Atoms>  (983) 
nan

$$$$
CHEMBL4087219
     RDKit          3D

  0  0  0  0  0  0  0  0  0  0999 V3000
M  V30 BEGIN CTAB
M  V30 COUNTS 55 58 0 0 0
M  V30 BEGIN ATOM
M  V30 1 C 5.068698 -5.727123 1.343294 0
M  V30 2 O 4.452748 -4.459646 1.162557 0
M  V30 3 C 5.262303 -3.293177 1.229808 0
M  V30 4 N 6.291303 -2.774107 1.374791 0
M  V30 5 C 6.540951 -1.488751 1.338146 0
M  V30 6 C 5.501722 -0.560860 1.101617 0
M  V30 7 C 5.828228 0.829737 1.073778 0
M  V30 8 C 7.056759 1.375964 1.236272 0
M  V30 9 C 7.200959 2.725895 1.182848 0
M  V30 10 N 6.141107 3.558598 0.968760 0
M  V30 11 C 4.896265 3.001802 0.803754 0
M  V30 12 C 4.734030 1.601992 0.857873 0
M  V30 13 C 3.343063 1.460368 0.652894 0
M  V30 14 C 2.089151 1.592495 0.449743 0
M  V30 15 C 0.910809 0.751735 0.326868 0
M  V30 16 O 1.107443 -0.471941 0.448319 0
M  V30 17 N -0.202739 1.560612 0.092425 0
M  V30 18 C -1.556171 1.192489 -0.093051 0
M  V30 19 C -2.322413 1.139219 1.070484 0
M  V30 20 C -3.634012 0.807182 1.055828 0
M  V30 21 C -4.279164 0.503282 -0.133584 0
M  V30 22 C -5.719948 0.141328 -0.200246 0
M  V30 23 N -5.874908 -1.247461 -0.056566 0
M  V30 24 C -7.193550 -1.784039 -0.094629 0
M  V30 25 C -7.227283 -2.846637 1.015060 0
M  V30 26 O -5.941635 -3.377822 1.160585 0
M  V30 27 C -5.268736 -3.523157 -0.054217 0
M  V30 28 C -4.842618 -2.111511 -0.505330 0
M  V30 29 C -3.516655 0.557290 -1.287439 0
M  V30 30 C -2.175739 0.893627 -1.289555 0
M  V30 31 S 4.128479 -1.820739 0.943221 0
M  V30 32 H 5.500833 -6.106461 0.389713 0
M  V30 33 H 5.902744 -5.588114 2.055020 0
M  V30 34 H 4.382873 -6.492059 1.712950 0
M  V30 35 H 7.616999 -1.309504 1.513817 0
M  V30 36 H 7.839806 0.658372 1.400135 0
M  V30 37 H 8.232825 3.002163 1.330078 0
M  V30 38 H 4.249858 3.847975 0.653266 0
M  V30 39 H 3.304497 0.342656 0.730147 0
M  V30 40 H 2.210777 2.688845 0.391060 0
M  V30 41 H -0.258741 2.594074 0.005124 0
M  V30 42 H -1.961799 1.349484 2.083870 0
M  V30 43 H -4.285463 0.749574 1.937351 0
M  V30 44 H -6.169365 0.628751 0.719868 0
M  V30 45 H -6.178546 0.587031 -1.116230 0
M  V30 46 H -7.458788 -2.258398 -1.057451 0
M  V30 47 H -7.920314 -1.006365 0.209153 0
M  V30 48 H -7.508417 -2.380891 1.981790 0
M  V30 49 H -7.944212 -3.642615 0.692870 0
M  V30 50 H -4.323167 -4.058368 0.165571 0
M  V30 51 H -5.903164 -4.016415 -0.805527 0
M  V30 52 H -4.776902 -2.174497 -1.616728 0
M  V30 53 H -3.878778 -1.835264 -0.030811 0
M  V30 54 H -3.975757 0.328136 -2.240681 0
M  V30 55 H -1.551166 0.944310 -2.171414 0
M  V30 END ATOM
M  V30 BEGIN BOND
M  V30 1 1 1 2
M  V30 2 1 2 3
M  V30 3 2 3 4
M  V30 4 1 4 5
M  V30 5 2 5 6
M  V30 6 1 6 7
M  V30 7 2 7 8
M  V30 8 1 8 9
M  V30 9 2 9 10
M  V30 10 1 10 11
M  V30 11 2 11 12
M  V30 12 1 12 13
M  V30 13 2 13 14
M  V30 14 1 14 15
M  V30 15 2 15 16
M  V30 16 1 15 17
M  V30 17 1 17 18
M  V30 18 2 18 19
M  V30 19 1 19 20
M  V30 20 2 20 21
M  V30 21 1 21 22
M  V30 22 1 22 23
M  V30 23 1 23 24
M  V30 24 1 24 25
M  V30 25 1 25 26
M  V30 26 1 26 27
M  V30 27 1 27 28
M  V30 28 1 21 29
M  V30 29 2 29 30
M  V30 30 1 6 31
M  V30 31 1 31 3
M  V30 32 1 12 7
M  V30 33 1 30 18
M  V30 34 1 28 23
M  V30 35 1 1 32
M  V30 36 1 1 33
M  V30 37 1 1 34
M  V30 38 1 5 35
M  V30 39 1 8 36
M  V30 40 1 9 37
M  V30 41 1 11 38
M  V30 42 1 13 39
M  V30 43 1 14 40
M  V30 44 1 17 41
M  V30 45 1 19 42
M  V30 46 1 20 43
M  V30 47 1 22 44
M  V30 48 1 22 45
M  V30 49 1 24 46
M  V30 50 1 24 47
M  V30 51 1 25 48
M  V30 52 1 25 49
M  V30 53 1 27 50
M  V30 54 1 27 51
M  V30 55 1 28 52
M  V30 56 1 28 53
M  V30 57 1 29 54
M  V30 58 1 30 55
M  V30 END BOND
M  V30 END CTAB
M  END
>  <Dataset>  (984) 
ChEMBL_Kinases

>  <Ligand_Instance>  (984) 
nan

>  <PDB_ID>  (984) 
nan

>  <Standardized_SMILES>  (984) 
COc1ncc(-c2ccncc2/C=C/C(=O)Nc2ccc(CN3CCOCC3)cc2)s1

>  <Name>  (984) 
nan

>  <Pocket>  (984) 
nan

>  <ATP_Site>  (984) 
nan

>  <Peripheral>  (984) 
nan

>  <Num_H_Atoms_ProtBoundConf>  (984) 
nan

>  <Num_Resolved_Atoms>  (984) 
nan

>  <Num_Not_Resolved_Atoms>  (984) 
nan

$$$$
CHEMBL4087212
     RDKit          3D

  0  0  0  0  0  0  0  0  0  0999 V3000
M  V30 BEGIN CTAB
M  V30 COUNTS 54 58 0 0 0
M  V30 BEGIN ATOM
M  V30 1 N 4.857290 -3.843090 6.675033 0
M  V30 2 C 4.712309 -2.882256 5.627701 0
M  V30 3 C 5.117594 -3.151544 4.338601 0
M  V30 4 C 5.010079 -2.275507 3.276607 0
M  V30 5 C 4.446669 -1.027233 3.543717 0
M  V30 6 C 4.277082 -0.011806 2.507961 0
M  V30 7 C 5.177226 0.982858 2.133291 0
M  V30 8 N 4.594780 1.695381 1.128346 0
M  V30 9 C 3.371970 1.193413 0.856178 0
M  V30 10 C 2.409882 1.571145 -0.068667 0
M  V30 11 C 1.210067 0.897345 -0.168976 0
M  V30 12 C 0.139189 1.215934 -1.104733 0
M  V30 13 C 0.225764 2.254321 -2.007911 0
M  V30 14 N -0.760630 2.552320 -2.874026 0
M  V30 15 C -1.898564 1.830882 -2.893387 0
M  V30 16 C -1.999971 0.787690 -1.994694 0
M  V30 17 O -3.123435 -0.010581 -1.934704 0
M  V30 18 C -3.270870 -1.081783 -1.037838 0 CFG=1
M  V30 19 C -4.458822 -0.837089 -0.139199 0
M  V30 20 C -5.738721 -1.355363 -0.749393 0
M  V30 21 C -5.685819 -1.309261 -2.272601 0 CFG=2
M  V30 22 N -6.949580 -1.859178 -2.739889 0
M  V30 23 C -4.589284 -2.205958 -2.774410 0
M  V30 24 C -3.500128 -2.405429 -1.735994 0
M  V30 25 N -1.003315 0.504582 -1.136114 0
M  V30 26 C 1.029862 -0.161978 0.697248 0
M  V30 27 C 1.956784 -0.575442 1.633854 0
M  V30 28 C 3.154576 0.126224 1.707316 0
M  V30 29 C 4.041237 -0.760653 4.838171 0
M  V30 30 F 3.487049 0.440137 5.148136 0
M  V30 31 N 4.167661 -1.655515 5.850953 0
M  V30 32 H 5.803934 -3.718920 7.133062 0
M  V30 33 H 4.155115 -4.570980 6.969346 0
M  V30 34 H 5.553079 -4.143768 4.179896 0
M  V30 35 H 5.336169 -2.513324 2.276322 0
M  V30 36 H 6.160364 1.137822 2.580800 0
M  V30 37 H 5.013629 2.506252 0.633876 0
M  V30 38 H 2.575303 2.398897 -0.730763 0
M  V30 39 H 1.103737 2.875954 -2.052764 0
M  V30 40 H -2.738742 1.999750 -3.552977 0
M  V30 41 H -2.365032 -1.166255 -0.416374 0
M  V30 42 H -4.238169 -1.325269 0.832499 0
M  V30 43 H -4.497237 0.256875 0.071178 0
M  V30 44 H -5.879486 -2.428521 -0.498055 0
M  V30 45 H -6.566253 -0.726624 -0.396125 0
M  V30 46 H -5.556016 -0.255138 -2.614514 0
M  V30 47 H -6.883124 -2.254804 -3.715732 0
M  V30 48 H -7.715586 -1.178324 -2.734756 0
M  V30 49 H -4.996201 -3.217168 -2.975959 0
M  V30 50 H -4.169801 -1.767498 -3.704909 0
M  V30 51 H -3.863285 -3.111770 -0.961088 0
M  V30 52 H -2.602790 -2.830082 -2.179616 0
M  V30 53 H 0.103703 -0.714657 0.649766 0
M  V30 54 H 1.749719 -1.418466 2.285010 0
M  V30 END ATOM
M  V30 BEGIN BOND
M  V30 1 1 1 2
M  V30 2 2 2 3
M  V30 3 1 3 4
M  V30 4 2 4 5
M  V30 5 1 5 6
M  V30 6 2 6 7
M  V30 7 1 7 8
M  V30 8 1 8 9
M  V30 9 2 9 10
M  V30 10 1 10 11
M  V30 11 1 11 12
M  V30 12 2 12 13
M  V30 13 1 13 14
M  V30 14 2 14 15
M  V30 15 1 15 16
M  V30 16 1 16 17
M  V30 17 1 17 18
M  V30 18 1 18 19
M  V30 19 1 19 20
M  V30 20 1 20 21
M  V30 21 1 21 22
M  V30 22 1 21 23
M  V30 23 1 23 24
M  V30 24 2 16 25
M  V30 25 2 11 26
M  V30 26 1 26 27
M  V30 27 2 27 28
M  V30 28 1 5 29
M  V30 29 1 29 30
M  V30 30 2 29 31
M  V30 31 1 31 2
M  V30 32 1 28 6
M  V30 33 1 28 9
M  V30 34 1 25 12
M  V30 35 1 24 18
M  V30 36 1 1 32
M  V30 37 1 1 33
M  V30 38 1 3 34
M  V30 39 1 4 35
M  V30 40 1 7 36
M  V30 41 1 8 37
M  V30 42 1 10 38
M  V30 43 1 13 39
M  V30 44 1 15 40
M  V30 45 1 18 41 CFG=1
M  V30 46 1 19 42
M  V30 47 1 19 43
M  V30 48 1 20 44
M  V30 49 1 20 45
M  V30 50 1 21 46 CFG=1
M  V30 51 1 22 47
M  V30 52 1 22 48
M  V30 53 1 23 49
M  V30 54 1 23 50
M  V30 55 1 24 51
M  V30 56 1 24 52
M  V30 57 1 26 53
M  V30 58 1 27 54
M  V30 END BOND
M  V30 END CTAB
M  END
>  <Dataset>  (985) 
ChEMBL_Kinases

>  <Ligand_Instance>  (985) 
nan

>  <PDB_ID>  (985) 
nan

>  <Standardized_SMILES>  (985) 
Nc1ccc(-c2c[nH]c3cc(-c4cncc(O[C@H]5CC[C@H](N)CC5)n4)ccc23)c(F)n1

>  <Name>  (985) 
nan

>  <Pocket>  (985) 
nan

>  <ATP_Site>  (985) 
nan

>  <Peripheral>  (985) 
nan

>  <Num_H_Atoms_ProtBoundConf>  (985) 
nan

>  <Num_Resolved_Atoms>  (985) 
nan

>  <Num_Not_Resolved_Atoms>  (985) 
nan

$$$$
CHEMBL4848444
     RDKit          3D

  0  0  0  0  0  0  0  0  0  0999 V3000
M  V30 BEGIN CTAB
M  V30 COUNTS 59 62 0 0 0
M  V30 BEGIN ATOM
M  V30 1 C -1.688093 -0.221755 4.841743 0
M  V30 2 O -1.963024 -0.856106 3.623892 0
M  V30 3 C -1.235970 -0.724785 2.473136 0
M  V30 4 C -0.110352 0.033032 2.235538 0
M  V30 5 C 0.574709 0.113748 1.032940 0
M  V30 6 C 1.738521 0.950423 0.813854 0
M  V30 7 C 2.685705 1.303738 1.736657 0
M  V30 8 C 3.763504 2.095792 1.458111 0
M  V30 9 O 4.786545 2.557279 2.197039 0
M  V30 10 C 5.012032 2.330402 3.531371 0
M  V30 11 C 3.918657 2.583724 0.140255 0
M  V30 12 O 4.965638 3.413552 -0.329097 0
M  V30 13 C 4.697124 4.827674 -0.225094 0
M  V30 14 C 2.961134 2.239559 -0.834081 0
M  V30 15 O 3.114150 2.723543 -2.142742 0
M  V30 16 C 2.216895 2.443787 -3.167017 0
M  V30 17 C 1.909190 1.444316 -0.484449 0
M  V30 18 C 0.066744 -0.650862 -0.028131 0
M  V30 19 C -1.075339 -1.433283 0.174313 0
M  V30 20 C -1.719268 -1.475198 1.389500 0
M  V30 21 C -2.912778 -2.253745 1.522722 0
M  V30 22 C -3.313367 -3.466255 1.241863 0
M  V30 23 N -2.708471 -4.584380 0.655525 0
M  V30 24 C -2.457758 -4.975663 -0.707148 0
M  V30 25 C -3.656840 -5.396858 -1.282100 0
M  V30 26 C -3.650734 -5.838795 -2.610932 0
M  V30 27 C -2.458914 -5.854672 -3.343517 0
M  V30 28 C -1.317291 -5.422555 -2.700887 0
M  V30 29 C -0.089389 -5.439139 -3.427070 0
M  V30 30 N 0.905922 -5.458002 -4.038694 0
M  V30 31 C -1.267957 -4.976575 -1.391251 0
M  V30 32 C -4.705019 -3.658278 1.626732 0
M  V30 33 O -5.499047 -4.659917 1.545621 0
M  V30 34 N -5.215109 -2.457097 2.196406 0
M  V30 35 C -4.078986 -1.563617 2.131552 0
M  V30 36 O -4.268993 -0.378369 2.591392 0
M  V30 37 H -2.688985 0.090601 5.264939 0
M  V30 38 H -1.203111 -0.917679 5.574728 0
M  V30 39 H -1.070956 0.690670 4.718790 0
M  V30 40 H 0.244412 0.603227 3.078363 0
M  V30 41 H 2.610762 0.964256 2.731051 0
M  V30 42 H 5.372970 1.310053 3.775723 0
M  V30 43 H 4.116262 2.576834 4.154722 0
M  V30 44 H 5.857488 3.032840 3.850225 0
M  V30 45 H 4.999361 5.206042 0.772646 0
M  V30 46 H 5.273385 5.334287 -0.997841 0
M  V30 47 H 3.609149 4.997682 -0.451007 0
M  V30 48 H 2.432058 3.151306 -4.022939 0
M  V30 49 H 1.169340 2.732811 -2.852502 0
M  V30 50 H 2.232577 1.439321 -3.582264 0
M  V30 51 H 1.217414 1.225321 -1.290184 0
M  V30 52 H 0.516057 -0.665783 -1.006806 0
M  V30 53 H -1.445441 -2.002178 -0.642708 0
M  V30 54 H -2.325304 -5.349062 1.266104 0
M  V30 55 H -4.657228 -5.465535 -0.923551 0
M  V30 56 H -4.501507 -6.190956 -3.195574 0
M  V30 57 H -2.400290 -6.192861 -4.385861 0
M  V30 58 H -0.429273 -4.633084 -0.846047 0
M  V30 59 H -6.184046 -2.267713 2.571587 0
M  V30 END ATOM
M  V30 BEGIN BOND
M  V30 1 1 1 2
M  V30 2 1 2 3
M  V30 3 2 3 4
M  V30 4 1 4 5
M  V30 5 1 5 6
M  V30 6 2 6 7
M  V30 7 1 7 8
M  V30 8 1 8 9
M  V30 9 1 9 10
M  V30 10 2 8 11
M  V30 11 1 11 12
M  V30 12 1 12 13
M  V30 13 1 11 14
M  V30 14 1 14 15
M  V30 15 1 15 16
M  V30 16 2 14 17
M  V30 17 2 5 18
M  V30 18 1 18 19
M  V30 19 2 19 20
M  V30 20 1 20 21
M  V30 21 2 21 22
M  V30 22 1 22 23
M  V30 23 1 23 24
M  V30 24 2 24 25
M  V30 25 1 25 26
M  V30 26 2 26 27
M  V30 27 1 27 28
M  V30 28 1 28 29
M  V30 29 3 29 30
M  V30 30 2 28 31
M  V30 31 1 22 32
M  V30 32 2 32 33
M  V30 33 1 32 34
M  V30 34 1 34 35
M  V30 35 2 35 36
M  V30 36 1 20 3
M  V30 37 1 35 21
M  V30 38 1 17 6
M  V30 39 1 31 24
M  V30 40 1 1 37
M  V30 41 1 1 38
M  V30 42 1 1 39
M  V30 43 1 4 40
M  V30 44 1 7 41
M  V30 45 1 10 42
M  V30 46 1 10 43
M  V30 47 1 10 44
M  V30 48 1 13 45
M  V30 49 1 13 46
M  V30 50 1 13 47
M  V30 51 1 16 48
M  V30 52 1 16 49
M  V30 53 1 16 50
M  V30 54 1 17 51
M  V30 55 1 18 52
M  V30 56 1 19 53
M  V30 57 1 23 54
M  V30 58 1 25 55
M  V30 59 1 26 56
M  V30 60 1 27 57
M  V30 61 1 31 58
M  V30 62 1 34 59
M  V30 END BOND
M  V30 END CTAB
M  END
>  <Dataset>  (986) 
ChEMBL_Kinases

>  <Ligand_Instance>  (986) 
nan

>  <PDB_ID>  (986) 
nan

>  <Standardized_SMILES>  (986) 
COc1cc(-c2cc(OC)c(OC)c(OC)c2)ccc1C1=C(Nc2cccc(C#N)c2)C(=O)NC1=O

>  <Name>  (986) 
nan

>  <Pocket>  (986) 
nan

>  <ATP_Site>  (986) 
nan

>  <Peripheral>  (986) 
nan

>  <Num_H_Atoms_ProtBoundConf>  (986) 
nan

>  <Num_Resolved_Atoms>  (986) 
nan

>  <Num_Not_Resolved_Atoms>  (986) 
nan

$$$$
CHEMBL4087123
     RDKit          3D

  0  0  0  0  0  0  0  0  0  0999 V3000
M  V30 BEGIN CTAB
M  V30 COUNTS 33 35 0 0 0
M  V30 BEGIN ATOM
M  V30 1 N -0.124115 -2.855891 3.300074 0
M  V30 2 C 0.739985 -2.356327 2.714044 0
M  V30 3 C 1.825890 -1.745612 2.006040 0
M  V30 4 C 3.178268 -1.863791 2.321870 0
M  V30 5 N 3.900307 -1.134184 1.421454 0
M  V30 6 C 3.081565 -0.535865 0.519818 0
M  V30 7 N 3.194667 0.267024 -0.543362 0
M  V30 8 C 2.096213 0.689642 -1.234357 0
M  V30 9 N 2.307261 1.543035 -2.353635 0
M  V30 10 N 0.853196 0.288178 -0.837801 0
M  V30 11 C 0.683484 -0.527587 0.235709 0
M  V30 12 N -0.682144 -0.809532 0.431323 0
M  V30 13 C -1.462002 -2.024694 0.335137 0
M  V30 14 C -2.575789 -1.807753 1.305819 0
M  V30 15 C -2.351586 -0.447253 1.938397 0
M  V30 16 C -1.596839 0.252568 0.807181 0 CFG=2
M  V30 17 C -2.547143 0.529737 -0.356446 0
M  V30 18 O -1.810529 0.918200 -1.472605 0
M  V30 19 C 1.818395 -0.926943 0.900546 0
M  V30 20 H 3.582043 -2.439582 3.145098 0
M  V30 21 H 4.937862 -1.026175 1.395844 0
M  V30 22 H 1.863757 2.451661 -2.095342 0
M  V30 23 H 2.800964 1.267027 -3.211089 0
M  V30 24 H -0.895811 -2.945218 0.433792 0
M  V30 25 H -1.949661 -2.059543 -0.688795 0
M  V30 26 H -2.618700 -2.592977 2.088123 0
M  V30 27 H -3.587879 -1.723341 0.813585 0
M  V30 28 H -1.634699 -0.488874 2.783363 0
M  V30 29 H -3.300886 0.069169 2.180353 0
M  V30 30 H -1.103118 1.160528 1.145901 0
M  V30 31 H -3.104784 -0.366546 -0.626494 0
M  V30 32 H -3.187790 1.396586 -0.093982 0
M  V30 33 H -2.389401 0.862262 -2.274459 0
M  V30 END ATOM
M  V30 BEGIN BOND
M  V30 1 3 1 2
M  V30 2 1 2 3
M  V30 3 2 3 4
M  V30 4 1 4 5
M  V30 5 1 5 6
M  V30 6 2 6 7
M  V30 7 1 7 8
M  V30 8 1 8 9
M  V30 9 2 8 10
M  V30 10 1 10 11
M  V30 11 1 11 12
M  V30 12 1 12 13
M  V30 13 1 13 14
M  V30 14 1 14 15
M  V30 15 1 15 16
M  V30 16 1 16 17
M  V30 17 1 17 18
M  V30 18 2 11 19
M  V30 19 1 19 3
M  V30 20 1 19 6
M  V30 21 1 16 12
M  V30 22 1 4 20
M  V30 23 1 5 21
M  V30 24 1 9 22
M  V30 25 1 9 23
M  V30 26 1 13 24
M  V30 27 1 13 25
M  V30 28 1 14 26
M  V30 29 1 14 27
M  V30 30 1 15 28
M  V30 31 1 15 29
M  V30 32 1 16 30 CFG=1
M  V30 33 1 17 31
M  V30 34 1 17 32
M  V30 35 1 18 33
M  V30 END BOND
M  V30 END CTAB
M  END
>  <Dataset>  (987) 
ChEMBL_Kinases

>  <Ligand_Instance>  (987) 
nan

>  <PDB_ID>  (987) 
nan

>  <Standardized_SMILES>  (987) 
N#Cc1c[nH]c2nc(N)nc(N3CCC[C@@H]3CO)c12

>  <Name>  (987) 
nan

>  <Pocket>  (987) 
nan

>  <ATP_Site>  (987) 
nan

>  <Peripheral>  (987) 
nan

>  <Num_H_Atoms_ProtBoundConf>  (987) 
nan

>  <Num_Resolved_Atoms>  (987) 
nan

>  <Num_Not_Resolved_Atoms>  (987) 
nan

$$$$
CHEMBL4848449
     RDKit          3D

  0  0  0  0  0  0  0  0  0  0999 V3000
M  V30 BEGIN CTAB
M  V30 COUNTS 55 57 0 0 0
M  V30 BEGIN ATOM
M  V30 1 C 0.266783 -5.146197 -0.767915 0
M  V30 2 O -0.210243 -3.893124 -1.120785 0
M  V30 3 C -1.482913 -3.925592 -1.641226 0 CFG=1
M  V30 4 C -2.358405 -3.016010 -0.782302 0
M  V30 5 C -1.525699 -1.798295 -0.545026 0
M  V30 6 C -1.059879 -1.116450 -1.790523 0 CFG=2
M  V30 7 N -1.695539 0.190025 -1.837643 0
M  V30 8 C -1.565193 1.215045 -0.860485 0
M  V30 9 N -2.137943 2.414469 -0.886041 0
M  V30 10 C -1.956080 3.320718 0.088793 0
M  V30 11 C -1.141992 2.961449 1.135796 0
M  V30 12 C -0.979851 3.969189 2.172020 0
M  V30 13 N -1.582257 5.245991 2.109290 0
M  V30 14 O -0.405942 4.131140 3.270378 0
M  V30 15 C -0.522240 1.736688 1.217763 0
M  V30 16 N 0.312567 1.369261 2.305086 0
M  V30 17 C 1.023232 0.136645 2.495691 0 CFG=2
M  V30 18 C 1.736685 0.032484 3.831260 0
M  V30 19 C 2.209207 -1.365395 4.020964 0
M  V30 20 C 2.779852 -2.063792 2.850627 0
M  V30 21 C 2.433395 -1.521999 1.498765 0
M  V30 22 C 2.171843 -0.049881 1.492701 0 CFG=1
M  V30 23 O 1.804878 0.420877 0.272680 0
M  V30 24 N -0.779479 0.917215 0.186379 0
M  V30 25 C -1.320739 -1.841595 -3.059788 0
M  V30 26 C -1.453332 -3.310718 -3.004434 0
M  V30 27 H 0.316708 -5.849209 -1.599548 0
M  V30 28 H 1.312592 -4.981499 -0.414975 0
M  V30 29 H -0.287505 -5.586422 0.093425 0
M  V30 30 H -1.915656 -4.940131 -1.694926 0
M  V30 31 H -2.495187 -3.534697 0.188837 0
M  V30 32 H -3.306122 -2.835476 -1.311627 0
M  V30 33 H -0.641149 -2.156473 0.062754 0
M  V30 34 H -2.073286 -1.138699 0.161104 0
M  V30 35 H 0.033021 -0.919916 -1.694530 0
M  V30 36 H -2.320500 0.460928 -2.643552 0
M  V30 37 H -2.434949 4.268478 0.026017 0
M  V30 38 H -1.202687 6.212669 2.015306 0
M  V30 39 H -1.204128 6.212605 2.015394 0
M  V30 40 H 0.463924 2.034475 3.087836 0
M  V30 41 H 0.336160 -0.730136 2.429637 0
M  V30 42 H 1.021429 0.279385 4.644277 0
M  V30 43 H 2.565308 0.747152 3.928914 0
M  V30 44 H 1.393951 -1.940742 4.542560 0
M  V30 45 H 3.025485 -1.330875 4.801959 0
M  V30 46 H 3.886668 -2.218424 2.912796 0
M  V30 47 H 2.361679 -3.113219 2.870589 0
M  V30 48 H 1.543911 -2.021075 1.049021 0
M  V30 49 H 3.279042 -1.718379 0.803054 0
M  V30 50 H 3.040331 0.547249 1.843916 0
M  V30 51 H 2.517252 0.825753 -0.280626 0
M  V30 52 H -2.272611 -1.420453 -3.500190 0
M  V30 53 H -0.534222 -1.579856 -3.803948 0
M  V30 54 H -0.636776 -3.856381 -3.564156 0
M  V30 55 H -2.388317 -3.669713 -3.514091 0
M  V30 END ATOM
M  V30 BEGIN BOND
M  V30 1 1 1 2
M  V30 2 1 2 3
M  V30 3 1 3 4
M  V30 4 1 4 5
M  V30 5 1 5 6
M  V30 6 1 6 7
M  V30 7 1 7 8
M  V30 8 2 8 9
M  V30 9 1 9 10
M  V30 10 2 10 11
M  V30 11 1 11 12
M  V30 12 1 12 13
M  V30 13 2 12 14
M  V30 14 1 11 15
M  V30 15 1 15 16
M  V30 16 1 16 17
M  V30 17 1 17 18
M  V30 18 1 18 19
M  V30 19 1 19 20
M  V30 20 1 20 21
M  V30 21 1 21 22
M  V30 22 1 22 23
M  V30 23 2 15 24
M  V30 24 1 6 25
M  V30 25 1 25 26
M  V30 26 1 26 3
M  V30 27 1 24 8
M  V30 28 1 22 17
M  V30 29 1 1 27
M  V30 30 1 1 28
M  V30 31 1 1 29
M  V30 32 1 3 30 CFG=3
M  V30 33 1 4 31
M  V30 34 1 4 32
M  V30 35 1 5 33
M  V30 36 1 5 34
M  V30 37 1 6 35 CFG=1
M  V30 38 1 7 36
M  V30 39 1 10 37
M  V30 40 1 13 38
M  V30 41 1 13 39
M  V30 42 1 16 40
M  V30 43 1 17 41 CFG=1
M  V30 44 1 18 42
M  V30 45 1 18 43
M  V30 46 1 19 44
M  V30 47 1 19 45
M  V30 48 1 20 46
M  V30 49 1 20 47
M  V30 50 1 21 48
M  V30 51 1 21 49
M  V30 52 1 22 50 CFG=1
M  V30 53 1 23 51
M  V30 54 1 25 52
M  V30 55 1 25 53
M  V30 56 1 26 54
M  V30 57 1 26 55
M  V30 END BOND
M  V30 END CTAB
M  END
>  <Dataset>  (988) 
ChEMBL_Kinases

>  <Ligand_Instance>  (988) 
nan

>  <PDB_ID>  (988) 
nan

>  <Standardized_SMILES>  (988) 
CO[C@H]1CC[C@H](Nc2ncc(C(N)=O)c(N[C@@H]3CCCC[C@H]3O)n2)CC1

>  <Name>  (988) 
nan

>  <Pocket>  (988) 
nan

>  <ATP_Site>  (988) 
nan

>  <Peripheral>  (988) 
nan

>  <Num_H_Atoms_ProtBoundConf>  (988) 
nan

>  <Num_Resolved_Atoms>  (988) 
nan

>  <Num_Not_Resolved_Atoms>  (988) 
nan

$$$$
CHEMBL4087104
     RDKit          3D

  0  0  0  0  0  0  0  0  0  0999 V3000
M  V30 BEGIN CTAB
M  V30 COUNTS 58 62 0 0 0
M  V30 BEGIN ATOM
M  V30 1 C 9.009394 -0.030738 4.257077 0
M  V30 2 N 7.704660 -0.043284 3.608624 0
M  V30 3 C 7.351650 -1.201262 2.859831 0
M  V30 4 O 8.181313 -2.117526 2.813597 0
M  V30 5 C 6.076366 -1.337989 2.163628 0
M  V30 6 C 5.843244 -2.509250 1.473107 0
M  V30 7 C 4.666886 -2.724945 0.784954 0
M  V30 8 C 3.675648 -1.754491 0.771055 0
M  V30 9 C 3.920845 -0.585877 1.466344 0
M  V30 10 C 5.105066 -0.362113 2.162233 0
M  V30 11 C 3.051992 0.595940 1.616857 0
M  V30 12 O 3.570337 1.688165 1.971740 0
M  V30 13 C 1.597566 0.563437 1.371142 0
M  V30 14 C 1.042816 1.822526 1.512005 0
M  V30 15 C -0.310227 2.026436 1.326279 0
M  V30 16 C -1.135034 0.970583 0.995029 0
M  V30 17 N -2.533583 1.133166 0.792141 0
M  V30 18 C -3.477896 0.112496 0.497744 0
M  V30 19 C -4.215811 0.132859 -0.659382 0
M  V30 20 C -5.086829 -0.922734 -0.799311 0
M  V30 21 N -5.906239 -0.995451 -1.975986 0
M  V30 22 C -7.184554 -0.495597 -2.253394 0
M  V30 23 O -7.870553 0.158556 -1.420524 0
M  V30 24 C -7.708130 -0.775942 -3.601392 0
M  V30 25 C -7.259414 -1.935519 -4.392725 0
M  V30 26 C -6.660859 -0.607120 -4.714346 0
M  V30 27 C -5.247287 -1.943290 0.113378 0
M  V30 28 C -4.501384 -1.940682 1.257036 0
M  V30 29 C -3.599728 -0.886150 1.444854 0
M  V30 30 F -2.895280 -0.954526 2.610833 0
M  V30 31 C -0.579957 -0.285797 0.854679 0
M  V30 32 C 0.773504 -0.504711 1.037810 0
M  V30 33 C 1.194231 -1.937701 0.843198 0
M  V30 34 C 2.442004 -2.054733 0.012097 0
M  V30 35 H 9.056667 0.885322 4.880873 0
M  V30 36 H 9.038782 -0.946143 4.884437 0
M  V30 37 H 9.848947 0.033535 3.558822 0
M  V30 38 H 7.037903 0.757301 3.678088 0
M  V30 39 H 6.524264 -3.352724 1.395857 0
M  V30 40 H 4.441565 -3.623545 0.232018 0
M  V30 41 H 5.266270 0.553067 2.691826 0
M  V30 42 H 1.653893 2.662975 1.767760 0
M  V30 43 H -0.803273 2.999925 1.424525 0
M  V30 44 H -2.920435 2.100745 0.864416 0
M  V30 45 H -4.110815 0.911543 -1.383237 0
M  V30 46 H -5.319122 -1.541224 -2.650978 0
M  V30 47 H -8.708829 -0.367874 -3.775522 0
M  V30 48 H -7.945476 -2.340000 -5.160741 0
M  V30 49 H -6.651915 -2.734212 -3.918692 0
M  V30 50 H -7.028834 -0.061272 -5.591214 0
M  V30 51 H -5.604562 -0.478307 -4.416175 0
M  V30 52 H -5.943992 -2.748613 -0.042855 0
M  V30 53 H -4.611560 -2.727517 1.981518 0
M  V30 54 H -1.115658 -1.170938 0.601397 0
M  V30 55 H 1.441143 -2.320332 1.858441 0
M  V30 56 H 0.351547 -2.509368 0.461254 0
M  V30 57 H 2.357186 -1.279625 -0.787273 0
M  V30 58 H 2.456156 -3.037306 -0.467487 0
M  V30 END ATOM
M  V30 BEGIN BOND
M  V30 1 1 1 2
M  V30 2 1 2 3
M  V30 3 2 3 4
M  V30 4 1 3 5
M  V30 5 2 5 6
M  V30 6 1 6 7
M  V30 7 2 7 8
M  V30 8 1 8 9
M  V30 9 2 9 10
M  V30 10 1 9 11
M  V30 11 2 11 12
M  V30 12 1 11 13
M  V30 13 2 13 14
M  V30 14 1 14 15
M  V30 15 2 15 16
M  V30 16 1 16 17
M  V30 17 1 17 18
M  V30 18 2 18 19
M  V30 19 1 19 20
M  V30 20 1 20 21
M  V30 21 1 21 22
M  V30 22 2 22 23
M  V30 23 1 22 24
M  V30 24 1 24 25
M  V30 25 1 25 26
M  V30 26 2 20 27
M  V30 27 1 27 28
M  V30 28 2 28 29
M  V30 29 1 29 30
M  V30 30 1 16 31
M  V30 31 2 31 32
M  V30 32 1 32 33
M  V30 33 1 33 34
M  V30 34 1 10 5
M  V30 35 1 32 13
M  V30 36 1 34 8
M  V30 37 1 29 18
M  V30 38 1 26 24
M  V30 39 1 1 35
M  V30 40 1 1 36
M  V30 41 1 1 37
M  V30 42 1 2 38
M  V30 43 1 6 39
M  V30 44 1 7 40
M  V30 45 1 10 41
M  V30 46 1 14 42
M  V30 47 1 15 43
M  V30 48 1 17 44
M  V30 49 1 19 45
M  V30 50 1 21 46
M  V30 51 1 24 47
M  V30 52 1 25 48
M  V30 53 1 25 49
M  V30 54 1 26 50
M  V30 55 1 26 51
M  V30 56 1 27 52
M  V30 57 1 28 53
M  V30 58 1 31 54
M  V30 59 1 33 55
M  V30 60 1 33 56
M  V30 61 1 34 57
M  V30 62 1 34 58
M  V30 END BOND
M  V30 END CTAB
M  END
>  <Dataset>  (989) 
ChEMBL_Kinases

>  <Ligand_Instance>  (989) 
nan

>  <PDB_ID>  (989) 
nan

>  <Standardized_SMILES>  (989) 
CNC(=O)c1ccc2c(c1)C(=O)c1ccc(Nc3cc(NC(=O)C4CC4)ccc3F)cc1CC2

>  <Name>  (989) 
nan

>  <Pocket>  (989) 
nan

>  <ATP_Site>  (989) 
nan

>  <Peripheral>  (989) 
nan

>  <Num_H_Atoms_ProtBoundConf>  (989) 
nan

>  <Num_Resolved_Atoms>  (989) 
nan

>  <Num_Not_Resolved_Atoms>  (989) 
nan

$$$$
CHEMBL4087009
     RDKit          3D

  0  0  0  0  0  0  0  0  0  0999 V3000
M  V30 BEGIN CTAB
M  V30 COUNTS 46 49 0 0 0
M  V30 BEGIN ATOM
M  V30 1 O 0.348042 -6.426385 1.570690 0
M  V30 2 C 0.777514 -5.257677 1.414548 0
M  V30 3 N 2.031669 -4.686085 1.745612 0
M  V30 4 C 2.050914 -3.315999 1.374641 0
M  V30 5 C 3.012810 -2.308365 1.475573 0
M  V30 6 C 2.770297 -1.001626 1.024255 0
M  V30 7 C 1.535450 -0.703810 0.458964 0
M  V30 8 C 1.162086 0.638588 -0.039832 0
M  V30 9 O 0.033302 0.733554 -0.639997 0
M  V30 10 N 1.964355 1.781421 0.112435 0
M  V30 11 C 1.343616 2.942549 -0.472594 0 CFG=2
M  V30 12 C 2.304728 3.981333 -0.984970 0
M  V30 13 O 1.613198 5.083819 -1.545020 0
M  V30 14 C 0.626863 3.593742 0.713625 0
M  V30 15 C 1.230600 3.796286 1.935570 0
M  V30 16 C 0.460368 4.378953 2.906831 0
M  V30 17 C -0.841623 4.769236 2.759882 0
M  V30 18 C -1.437279 4.560561 1.527351 0
M  V30 19 C -0.705902 3.976906 0.514132 0
M  V30 20 C 0.623354 -1.734931 0.384168 0
M  V30 21 C 0.808805 -3.023297 0.809571 0
M  V30 22 C -0.018835 -4.226372 0.819216 0
M  V30 23 C -1.233136 -4.234720 0.362526 0
M  V30 24 C -2.082814 -5.454458 0.389180 0
M  V30 25 C -3.436099 -5.436911 0.782700 0
M  V30 26 C -4.149172 -6.591356 0.766618 0
M  V30 27 C -3.548710 -7.825740 0.356705 0
M  V30 28 S -1.780898 -7.264773 -0.045678 0
M  V30 29 H 2.778142 -5.233648 2.188589 0
M  V30 30 H 3.967908 -2.549161 1.914326 0
M  V30 31 H 3.499721 -0.219660 1.096904 0
M  V30 32 H 2.877677 1.719189 0.597005 0
M  V30 33 H 0.601843 2.732009 -1.246875 0
M  V30 34 H 2.829679 4.460323 -0.098699 0
M  V30 35 H 3.066775 3.579325 -1.654648 0
M  V30 36 H 0.763410 4.795285 -1.945853 0
M  V30 37 H 2.266598 3.485342 2.048630 0
M  V30 38 H 0.924815 4.553104 3.892200 0
M  V30 39 H -1.436960 5.225159 3.531347 0
M  V30 40 H -2.472613 4.826031 1.269494 0
M  V30 41 H -1.163605 3.808028 -0.460833 0
M  V30 42 H -0.360031 -1.519164 -0.057523 0
M  V30 43 H -1.741736 -3.414407 -0.068590 0
M  V30 44 H -3.911763 -4.524490 1.094916 0
M  V30 45 H -5.183047 -6.720142 1.041729 0
M  V30 46 H -3.882017 -8.794034 0.269082 0
M  V30 END ATOM
M  V30 BEGIN BOND
M  V30 1 2 1 2
M  V30 2 1 2 3
M  V30 3 1 3 4
M  V30 4 2 4 5
M  V30 5 1 5 6
M  V30 6 2 6 7
M  V30 7 1 7 8
M  V30 8 2 8 9
M  V30 9 1 8 10
M  V30 10 1 10 11
M  V30 11 1 11 12
M  V30 12 1 12 13
M  V30 13 1 11 14
M  V30 14 2 14 15
M  V30 15 1 15 16
M  V30 16 2 16 17
M  V30 17 1 17 18
M  V30 18 2 18 19
M  V30 19 1 7 20
M  V30 20 2 20 21
M  V30 21 1 21 22
M  V30 22 2 22 23
M  V30 23 1 23 24
M  V30 24 2 24 25
M  V30 25 1 25 26
M  V30 26 2 26 27
M  V30 27 1 27 28
M  V30 28 1 22 2
M  V30 29 1 28 24
M  V30 30 1 21 4
M  V30 31 1 19 14
M  V30 32 1 3 29
M  V30 33 1 5 30
M  V30 34 1 6 31
M  V30 35 1 10 32
M  V30 36 1 11 33 CFG=3
M  V30 37 1 12 34
M  V30 38 1 12 35
M  V30 39 1 13 36
M  V30 40 1 15 37
M  V30 41 1 16 38
M  V30 42 1 17 39
M  V30 43 1 18 40
M  V30 44 1 19 41
M  V30 45 1 20 42
M  V30 46 1 23 43
M  V30 47 1 25 44
M  V30 48 1 26 45
M  V30 49 1 27 46
M  V30 END BOND
M  V30 END CTAB
M  END
>  <Dataset>  (990) 
ChEMBL_Kinases

>  <Ligand_Instance>  (990) 
nan

>  <PDB_ID>  (990) 
nan

>  <Standardized_SMILES>  (990) 
O=C1Nc2ccc(C(=O)N[C@H](CO)c3ccccc3)cc2/C1=C/c1cccs1

>  <Name>  (990) 
nan

>  <Pocket>  (990) 
nan

>  <ATP_Site>  (990) 
nan

>  <Peripheral>  (990) 
nan

>  <Num_H_Atoms_ProtBoundConf>  (990) 
nan

>  <Num_Resolved_Atoms>  (990) 
nan

>  <Num_Not_Resolved_Atoms>  (990) 
nan

$$$$
CHEMBL4086971
     RDKit          3D

  0  0  0  0  0  0  0  0  0  0999 V3000
M  V30 BEGIN CTAB
M  V30 COUNTS 57 62 0 0 0
M  V30 BEGIN ATOM
M  V30 1 C 2.951835 -4.777049 5.312252 0
M  V30 2 O 3.264727 -3.421042 5.571942 0
M  V30 3 C 2.837170 -2.475289 4.649459 0
M  V30 4 C 3.135568 -1.151296 4.891385 0
M  V30 5 C 2.706663 -0.220043 3.969219 0
M  V30 6 C 2.004799 -0.607353 2.847690 0
M  V30 7 N 1.615256 0.362477 1.982523 0
M  V30 8 C 0.923791 0.090265 0.853051 0
M  V30 9 N 0.500150 1.112847 -0.082785 0
M  V30 10 C 0.929255 2.383637 0.393903 0
M  V30 11 C 0.575551 3.540171 -0.462023 0
M  V30 12 C -0.863470 3.767438 -0.696198 0
M  V30 13 C -1.580713 4.675443 0.096688 0
M  V30 14 N -2.869558 4.729884 -0.228199 0
M  V30 15 C -3.069653 3.870123 -1.242757 0
M  V30 16 C -4.161205 3.479469 -2.016414 0
M  V30 17 C -4.007886 2.544835 -3.023244 0
M  V30 18 C -2.758509 1.972162 -3.287697 0
M  V30 19 C -1.677130 2.355709 -2.524515 0
M  V30 20 C -1.852578 3.288094 -1.525408 0
M  V30 21 N 0.672211 -1.211475 0.687235 0
M  V30 22 C 0.989394 -2.232947 1.439007 0
M  V30 23 N 0.680009 -3.580556 1.180995 0
M  V30 24 C -0.002474 -4.172931 0.092891 0
M  V30 25 C -0.333706 -5.526886 -0.031315 0
M  V30 26 C -0.993602 -6.046146 -1.113023 0
M  V30 27 C -1.375578 -5.251394 -2.158806 0
M  V30 28 N -2.019751 -5.532111 -3.301506 0
M  V30 29 N -2.148198 -4.403185 -3.983481 0
M  V30 30 C -1.580605 -3.403890 -3.264734 0
M  V30 31 C -1.070996 -3.906862 -2.082774 0
M  V30 32 C -0.405392 -3.424193 -0.975914 0
M  V30 33 C 1.685535 -1.915763 2.567138 0
M  V30 34 C 2.132820 -2.809940 3.513065 0
M  V30 35 H 3.354180 -5.060209 4.296557 0
M  V30 36 H 1.857515 -4.947144 5.257346 0
M  V30 37 H 3.444554 -5.458472 6.031884 0
M  V30 38 H 3.683498 -0.881118 5.772563 0
M  V30 39 H 2.926360 0.819134 4.133764 0
M  V30 40 H -0.015216 0.696064 -0.882218 0
M  V30 41 H 0.514423 2.613111 1.420904 0
M  V30 42 H 2.047640 2.399166 0.569291 0
M  V30 43 H 1.043780 4.501100 -0.096141 0
M  V30 44 H 1.025774 3.389810 -1.487729 0
M  V30 45 H -1.193621 5.298757 0.903697 0
M  V30 46 H -3.622605 5.310093 0.190808 0
M  V30 47 H -5.104968 3.950444 -1.772959 0
M  V30 48 H -4.900779 2.283213 -3.590635 0
M  V30 49 H -2.661814 1.237860 -4.087150 0
M  V30 50 H -0.719726 1.914649 -2.746358 0
M  V30 51 H 0.953820 -4.338738 1.834433 0
M  V30 52 H -0.034517 -6.181217 0.800236 0
M  V30 53 H -1.189419 -7.099563 -1.089418 0
M  V30 54 H -2.349850 -6.497592 -3.572764 0
M  V30 55 H -1.519620 -2.350353 -3.550371 0
M  V30 56 H -0.249108 -2.364432 -1.082429 0
M  V30 57 H 1.937982 -3.850516 3.390132 0
M  V30 END ATOM
M  V30 BEGIN BOND
M  V30 1 1 1 2
M  V30 2 1 2 3
M  V30 3 2 3 4
M  V30 4 1 4 5
M  V30 5 2 5 6
M  V30 6 1 6 7
M  V30 7 2 7 8
M  V30 8 1 8 9
M  V30 9 1 9 10
M  V30 10 1 10 11
M  V30 11 1 11 12
M  V30 12 2 12 13
M  V30 13 1 13 14
M  V30 14 1 14 15
M  V30 15 2 15 16
M  V30 16 1 16 17
M  V30 17 2 17 18
M  V30 18 1 18 19
M  V30 19 2 19 20
M  V30 20 1 8 21
M  V30 21 2 21 22
M  V30 22 1 22 23
M  V30 23 1 23 24
M  V30 24 2 24 25
M  V30 25 1 25 26
M  V30 26 2 26 27
M  V30 27 1 27 28
M  V30 28 1 28 29
M  V30 29 2 29 30
M  V30 30 1 30 31
M  V30 31 2 31 32
M  V30 32 1 22 33
M  V30 33 2 33 34
M  V30 34 1 34 3
M  V30 35 1 33 6
M  V30 36 1 20 12
M  V30 37 1 32 24
M  V30 38 1 20 15
M  V30 39 1 31 27
M  V30 40 1 1 35
M  V30 41 1 1 36
M  V30 42 1 1 37
M  V30 43 1 4 38
M  V30 44 1 5 39
M  V30 45 1 9 40
M  V30 46 1 10 41
M  V30 47 1 10 42
M  V30 48 1 11 43
M  V30 49 1 11 44
M  V30 50 1 13 45
M  V30 51 1 14 46
M  V30 52 1 16 47
M  V30 53 1 17 48
M  V30 54 1 18 49
M  V30 55 1 19 50
M  V30 56 1 23 51
M  V30 57 1 25 52
M  V30 58 1 26 53
M  V30 59 1 28 54
M  V30 60 1 30 55
M  V30 61 1 32 56
M  V30 62 1 34 57
M  V30 END BOND
M  V30 END CTAB
M  END
>  <Dataset>  (991) 
ChEMBL_Kinases

>  <Ligand_Instance>  (991) 
nan

>  <PDB_ID>  (991) 
nan

>  <Standardized_SMILES>  (991) 
COc1ccc2nc(NCCc3c[nH]c4ccccc34)nc(Nc3ccc4[nH]ncc4c3)c2c1

>  <Name>  (991) 
nan

>  <Pocket>  (991) 
nan

>  <ATP_Site>  (991) 
nan

>  <Peripheral>  (991) 
nan

>  <Num_H_Atoms_ProtBoundConf>  (991) 
nan

>  <Num_Resolved_Atoms>  (991) 
nan

>  <Num_Not_Resolved_Atoms>  (991) 
nan

$$$$
CHEMBL4848491
     RDKit          3D

  0  0  0  0  0  0  0  0  0  0999 V3000
M  V30 BEGIN CTAB
M  V30 COUNTS 33 35 0 0 0
M  V30 BEGIN ATOM
M  V30 1 C -2.076503 -3.205566 -0.093736 0
M  V30 2 C -0.612841 -3.182565 0.202765 0
M  V30 3 N 0.214330 -4.200535 0.577093 0
M  V30 4 N 1.452907 -3.705840 0.732696 0
M  V30 5 N 2.465120 -4.508804 1.101976 0
M  V30 6 C 3.672007 -3.882928 1.224765 0
M  V30 7 C 3.811419 -2.522644 0.980654 0
M  V30 8 C 2.721858 -1.760397 0.603619 0
M  V30 9 C 1.505808 -2.366510 0.474983 0
M  V30 10 C 0.183178 -2.056237 0.140650 0
M  V30 11 C -0.203734 -0.687311 -0.213469 0
M  V30 12 C -0.147403 -0.283582 -1.521101 0
M  V30 13 C -0.509232 1.004729 -1.870938 0
M  V30 14 N -0.928201 1.899997 -0.931514 0
M  V30 15 C -0.973236 1.475686 0.342771 0
M  V30 16 N -1.405155 2.380014 1.352639 0
M  V30 17 C -0.375330 3.199939 2.001822 0
M  V30 18 C -2.846070 2.370814 1.613267 0
M  V30 19 N -0.621548 0.215493 0.700815 0
M  V30 20 H -2.269931 -2.839302 -1.127996 0
M  V30 21 H -2.568979 -2.528998 0.623588 0
M  V30 22 H -2.474254 -4.225895 0.046555 0
M  V30 23 H 4.604631 -4.390032 1.518340 0
M  V30 24 H 4.765664 -2.014444 1.075065 0
M  V30 25 H 2.724032 -0.704394 0.392285 0
M  V30 26 H 0.183269 -0.985192 -2.273768 0
M  V30 27 H -0.440865 1.255195 -2.918017 0
M  V30 28 H -0.829876 3.851099 2.778330 0
M  V30 29 H 0.127467 3.877791 1.292174 0
M  V30 30 H 0.358311 2.544447 2.546814 0
M  V30 31 H -3.101841 1.306587 1.881377 0
M  V30 32 H -3.067637 3.055708 2.473923 0
M  V30 33 H -3.396384 2.631607 0.706678 0
M  V30 END ATOM
M  V30 BEGIN BOND
M  V30 1 1 1 2
M  V30 2 2 2 3
M  V30 3 1 3 4
M  V30 4 1 4 5
M  V30 5 2 5 6
M  V30 6 1 6 7
M  V30 7 2 7 8
M  V30 8 1 8 9
M  V30 9 2 9 10
M  V30 10 1 10 11
M  V30 11 2 11 12
M  V30 12 1 12 13
M  V30 13 2 13 14
M  V30 14 1 14 15
M  V30 15 1 15 16
M  V30 16 1 16 17
M  V30 17 1 16 18
M  V30 18 2 15 19
M  V30 19 1 10 2
M  V30 20 1 19 11
M  V30 21 1 9 4
M  V30 22 1 1 20
M  V30 23 1 1 21
M  V30 24 1 1 22
M  V30 25 1 6 23
M  V30 26 1 7 24
M  V30 27 1 8 25
M  V30 28 1 12 26
M  V30 29 1 13 27
M  V30 30 1 17 28
M  V30 31 1 17 29
M  V30 32 1 17 30
M  V30 33 1 18 31
M  V30 34 1 18 32
M  V30 35 1 18 33
M  V30 END BOND
M  V30 END CTAB
M  END
>  <Dataset>  (992) 
ChEMBL_Kinases

>  <Ligand_Instance>  (992) 
nan

>  <PDB_ID>  (992) 
nan

>  <Standardized_SMILES>  (992) 
Cc1nn2ncccc2c1-c1ccnc(N(C)C)n1

>  <Name>  (992) 
nan

>  <Pocket>  (992) 
nan

>  <ATP_Site>  (992) 
nan

>  <Peripheral>  (992) 
nan

>  <Num_H_Atoms_ProtBoundConf>  (992) 
nan

>  <Num_Resolved_Atoms>  (992) 
nan

>  <Num_Not_Resolved_Atoms>  (992) 
nan

$$$$
CHEMBL4848618
     RDKit          3D

  0  0  0  0  0  0  0  0  0  0999 V3000
M  V30 BEGIN CTAB
M  V30 COUNTS 46 49 0 0 0
M  V30 BEGIN ATOM
M  V30 1 C 4.280642 -2.988282 2.728687 0
M  V30 2 O 3.577243 -2.107102 1.909073 0
M  V30 3 C 3.606477 -2.290497 0.498195 0
M  V30 4 N 4.061092 -3.017283 -0.524909 0
M  V30 5 N 3.578402 -2.470926 -1.658631 0
M  V30 6 C 4.056234 -3.233970 -2.790378 0
M  V30 7 C 2.845969 -1.416680 -1.157679 0
M  V30 8 C 2.809569 -1.217713 0.309932 0
M  V30 9 C 1.929454 -0.032943 0.101775 0
M  V30 10 O 1.995858 0.014602 1.388362 0
M  V30 11 N 1.182292 0.916317 -0.607079 0
M  V30 12 C 0.588434 1.834793 0.335144 0
M  V30 13 C 1.222497 2.980715 0.751883 0
M  V30 14 C 0.499979 3.732732 1.652426 0
M  V30 15 C -0.744986 3.317964 2.060550 0
M  V30 16 C -1.353446 2.161059 1.622334 0
M  V30 17 C -2.673950 1.742032 2.067044 0
M  V30 18 N -3.459355 2.409310 2.930846 0
M  V30 19 N -4.600283 1.717071 3.097673 0
M  V30 20 C -4.478635 0.610740 2.307276 0
M  V30 21 N -3.282881 0.615816 1.660624 0
M  V30 22 C -2.775131 -0.363152 0.743603 0 CFG=1
M  V30 23 C -1.748708 -1.284709 1.308565 0
M  V30 24 C -2.530792 -2.536610 1.595615 0
M  V30 25 O -3.873352 -2.203950 1.461418 0
M  V30 26 C -3.902655 -1.329107 0.377766 0
M  V30 27 N -0.636008 1.438592 0.744491 0
M  V30 28 H 3.564021 -3.432981 3.455719 0
M  V30 29 H 4.766849 -3.807651 2.157654 0
M  V30 30 H 5.037572 -2.457349 3.345429 0
M  V30 31 H 3.603530 -4.242046 -2.747421 0
M  V30 32 H 5.152990 -3.243355 -2.839202 0
M  V30 33 H 3.646709 -2.769514 -3.734556 0
M  V30 34 H 2.527849 -1.088403 -2.205562 0
M  V30 35 H 1.376026 0.545063 -1.563253 0
M  V30 36 H 2.204315 3.221731 0.371656 0
M  V30 37 H 0.950353 4.654412 2.020287 0
M  V30 38 H -1.256565 3.943536 2.760297 0
M  V30 39 H -5.217651 -0.196315 2.180687 0
M  V30 40 H -2.433063 0.086164 -0.218603 0
M  V30 41 H -0.965894 -1.462774 0.534612 0
M  V30 42 H -1.207388 -0.896032 2.189260 0
M  V30 43 H -2.235517 -3.373055 0.930470 0
M  V30 44 H -2.283395 -2.855703 2.631877 0
M  V30 45 H -3.643453 -1.849266 -0.565842 0
M  V30 46 H -4.872952 -0.821750 0.269785 0
M  V30 END ATOM
M  V30 BEGIN BOND
M  V30 1 1 1 2
M  V30 2 1 2 3
M  V30 3 2 3 4
M  V30 4 1 4 5
M  V30 5 1 5 6
M  V30 6 1 5 7
M  V30 7 2 7 8
M  V30 8 1 8 9
M  V30 9 2 9 10
M  V30 10 1 9 11
M  V30 11 1 11 12
M  V30 12 2 12 13
M  V30 13 1 13 14
M  V30 14 2 14 15
M  V30 15 1 15 16
M  V30 16 1 16 17
M  V30 17 2 17 18
M  V30 18 1 18 19
M  V30 19 2 19 20
M  V30 20 1 20 21
M  V30 21 1 21 22
M  V30 22 1 22 23
M  V30 23 1 23 24
M  V30 24 1 24 25
M  V30 25 1 25 26
M  V30 26 2 16 27
M  V30 27 1 8 3
M  V30 28 1 27 12
M  V30 29 1 21 17
M  V30 30 1 26 22
M  V30 31 1 1 28
M  V30 32 1 1 29
M  V30 33 1 1 30
M  V30 34 1 6 31
M  V30 35 1 6 32
M  V30 36 1 6 33
M  V30 37 1 7 34
M  V30 38 1 11 35
M  V30 39 1 13 36
M  V30 40 1 14 37
M  V30 41 1 15 38
M  V30 42 1 20 39
M  V30 43 1 22 40 CFG=3
M  V30 44 1 23 41
M  V30 45 1 23 42
M  V30 46 1 24 43
M  V30 47 1 24 44
M  V30 48 1 26 45
M  V30 49 1 26 46
M  V30 END BOND
M  V30 END CTAB
M  END
>  <Dataset>  (993) 
ChEMBL_Kinases

>  <Ligand_Instance>  (993) 
nan

>  <PDB_ID>  (993) 
nan

>  <Standardized_SMILES>  (993) 
COc1nn(C)cc1C(=O)Nc1cccc(-c2nncn2[C@H]2CCOC2)n1

>  <Name>  (993) 
nan

>  <Pocket>  (993) 
nan

>  <ATP_Site>  (993) 
nan

>  <Peripheral>  (993) 
nan

>  <Num_H_Atoms_ProtBoundConf>  (993) 
nan

>  <Num_Resolved_Atoms>  (993) 
nan

>  <Num_Not_Resolved_Atoms>  (993) 
nan

$$$$
CHEMBL4087294
     RDKit          3D

  0  0  0  0  0  0  0  0  0  0999 V3000
M  V30 BEGIN CTAB
M  V30 COUNTS 54 57 0 0 0
M  V30 BEGIN ATOM
M  V30 1 C 2.653637 -0.066430 3.844419 0
M  V30 2 C 2.820033 0.531400 2.446636 0
M  V30 3 C 2.939530 -0.591097 1.458738 0
M  V30 4 C 3.947126 1.498584 2.395032 0 CFG=2
M  V30 5 C 3.609036 2.617083 3.395143 0
M  V30 6 C 4.170168 2.092636 1.050136 0
M  V30 7 O 3.194578 2.821769 0.443723 0
M  V30 8 C 1.964095 2.534575 0.006345 0
M  V30 9 C 1.604029 3.814866 -0.481530 0
M  V30 10 N 0.387792 4.100792 -1.065808 0
M  V30 11 C -0.524344 3.088028 -1.180822 0
M  V30 12 C -0.198371 1.842461 -0.716414 0
M  V30 13 C -1.028143 0.651530 -0.751968 0
M  V30 14 C -0.636615 -0.573824 -0.267938 0
M  V30 15 C -1.469311 -1.671909 -0.328251 0
M  V30 16 C -2.724760 -1.611645 -0.868126 0
M  V30 17 C -3.708751 -2.567063 -1.028942 0
M  V30 18 C -3.570635 -3.958212 -0.607288 0
M  V30 19 C -3.043834 -4.847049 -1.546738 0
M  V30 20 C -2.916056 -6.171476 -1.134975 0
M  V30 21 C -3.282712 -6.616285 0.132333 0
M  V30 22 N -3.072943 -7.993622 0.348607 0
M  V30 23 N -3.787638 -5.712446 1.002828 0
M  V30 24 C -3.927581 -4.420696 0.643447 0
M  V30 25 F -4.436516 -3.537206 1.536708 0
M  V30 26 C -4.743044 -1.880274 -1.640430 0
M  V30 27 N -4.379951 -0.595042 -1.825116 0
M  V30 28 C -3.118109 -0.381025 -1.354322 0
M  V30 29 C -2.288941 0.722361 -1.296853 0
M  V30 30 N 0.981248 1.640867 -0.169619 0
M  V30 31 H 2.036118 0.607754 4.464941 0
M  V30 32 H 2.064546 -0.994573 3.716233 0
M  V30 33 H 3.600001 -0.302555 4.333499 0
M  V30 34 H 1.891129 1.080977 2.264964 0
M  V30 35 H 2.096934 -1.307634 1.628220 0
M  V30 36 H 2.903383 -0.280468 0.397862 0
M  V30 37 H 3.895310 -1.151646 1.570382 0
M  V30 38 H 4.894915 1.004867 2.753777 0
M  V30 39 H 3.290720 2.212989 4.360814 0
M  V30 40 H 2.811244 3.254623 2.982491 0
M  V30 41 H 4.555716 3.188905 3.612236 0
M  V30 42 H 4.570039 1.268695 0.350495 0
M  V30 43 H 5.114694 2.728374 1.160790 0
M  V30 44 H 2.082423 4.818602 -0.545680 0
M  V30 45 H -1.502419 3.199444 -1.619454 0
M  V30 46 H 0.330708 -0.660346 0.157938 0
M  V30 47 H -1.113284 -2.622693 0.069147 0
M  V30 48 H -2.750255 -4.532537 -2.537438 0
M  V30 49 H -2.499981 -6.836205 -1.898480 0
M  V30 50 H -2.148400 -7.876402 0.821707 0
M  V30 51 H -2.249253 -8.477512 0.815773 0
M  V30 52 H -5.677707 -2.357298 -1.905826 0
M  V30 53 H -4.989233 0.135244 -2.270556 0
M  V30 54 H -2.729404 1.614286 -1.714090 0
M  V30 END ATOM
M  V30 BEGIN BOND
M  V30 1 1 1 2
M  V30 2 1 2 3
M  V30 3 1 2 4
M  V30 4 1 4 5
M  V30 5 1 4 6
M  V30 6 1 6 7
M  V30 7 1 7 8
M  V30 8 2 8 9
M  V30 9 1 9 10
M  V30 10 2 10 11
M  V30 11 1 11 12
M  V30 12 1 12 13
M  V30 13 2 13 14
M  V30 14 1 14 15
M  V30 15 2 15 16
M  V30 16 1 16 17
M  V30 17 1 17 18
M  V30 18 2 18 19
M  V30 19 1 19 20
M  V30 20 2 20 21
M  V30 21 1 21 22
M  V30 22 1 21 23
M  V30 23 2 23 24
M  V30 24 1 24 25
M  V30 25 2 17 26
M  V30 26 1 26 27
M  V30 27 1 27 28
M  V30 28 2 28 29
M  V30 29 2 12 30
M  V30 30 1 30 8
M  V30 31 1 29 13
M  V30 32 1 28 16
M  V30 33 1 24 18
M  V30 34 1 1 31
M  V30 35 1 1 32
M  V30 36 1 1 33
M  V30 37 1 2 34
M  V30 38 1 3 35
M  V30 39 1 3 36
M  V30 40 1 3 37
M  V30 41 1 4 38 CFG=1
M  V30 42 1 5 39
M  V30 43 1 5 40
M  V30 44 1 5 41
M  V30 45 1 6 42
M  V30 46 1 6 43
M  V30 47 1 9 44
M  V30 48 1 11 45
M  V30 49 1 14 46
M  V30 50 1 15 47
M  V30 51 1 19 48
M  V30 52 1 20 49
M  V30 53 1 22 50
M  V30 54 1 22 51
M  V30 55 1 26 52
M  V30 56 1 27 53
M  V30 57 1 29 54
M  V30 END BOND
M  V30 END CTAB
M  END
>  <Dataset>  (994) 
ChEMBL_Kinases

>  <Ligand_Instance>  (994) 
nan

>  <PDB_ID>  (994) 
nan

>  <Standardized_SMILES>  (994) 
CC(C)[C@H](C)COc1cncc(-c2ccc3c(-c4ccc(N)nc4F)c[nH]c3c2)n1

>  <Name>  (994) 
nan

>  <Pocket>  (994) 
nan

>  <ATP_Site>  (994) 
nan

>  <Peripheral>  (994) 
nan

>  <Num_H_Atoms_ProtBoundConf>  (994) 
nan

>  <Num_Resolved_Atoms>  (994) 
nan

>  <Num_Not_Resolved_Atoms>  (994) 
nan

$$$$
CHEMBL4850143
     RDKit          3D

  0  0  0  0  0  0  0  0  0  0999 V3000
M  V30 BEGIN CTAB
M  V30 COUNTS 56 59 0 0 0
M  V30 BEGIN ATOM
M  V30 1 C 3.806273 0.528296 3.679052 0
M  V30 2 C 4.432870 -0.788242 3.278126 0
M  V30 3 O 4.075204 -1.187235 1.977185 0
M  V30 4 C 4.357789 -0.433275 0.871896 0
M  V30 5 O 4.958195 0.657275 1.009404 0
M  V30 6 N 3.945271 -0.939583 -0.403626 0
M  V30 7 S 4.199291 -0.155181 -1.915068 0
M  V30 8 O 4.312399 -1.195747 -3.009595 0
M  V30 9 O 5.502510 0.587467 -1.899337 0
M  V30 10 N 2.921794 0.895952 -2.366159 0
M  V30 11 C 2.802126 1.940217 -1.381570 0
M  V30 12 C 1.938681 1.438574 -0.276999 0
M  V30 13 C 0.765601 0.913555 -0.610247 0
M  V30 14 C -0.210960 0.372215 0.334031 0
M  V30 15 C -1.438078 -0.182904 0.052785 0
M  V30 16 C -1.942865 -0.526725 1.291108 0
M  V30 17 C -3.123729 -1.118721 1.697927 0
M  V30 18 C -4.106487 -1.495523 0.678410 0
M  V30 19 C -5.104573 -0.624143 0.253895 0
M  V30 20 C -6.001808 -1.044634 -0.714156 0
M  V30 21 F -6.922531 -0.121030 -1.047436 0
M  V30 22 C -5.942880 -2.290772 -1.271069 0
M  V30 23 C -4.941004 -3.162739 -0.843614 0
M  V30 24 C -4.031989 -2.759630 0.125986 0
M  V30 25 O -3.048142 -3.608730 0.549226 0
M  V30 26 C -2.914799 -4.916961 0.025369 0
M  V30 27 C -3.394036 -1.358897 3.018262 0
M  V30 28 C -2.452455 -0.994093 3.951263 0
M  V30 29 N -1.291169 -0.415874 3.597695 0
M  V30 30 C -1.048441 -0.189773 2.289628 0
M  V30 31 N 0.025954 0.370949 1.660045 0
M  V30 32 C 0.510460 0.919450 -2.089120 0
M  V30 33 C 1.710916 0.216422 -2.690542 0
M  V30 34 H 2.813128 0.325447 4.175250 0
M  V30 35 H 4.406845 1.059706 4.439468 0
M  V30 36 H 3.632328 1.214735 2.851399 0
M  V30 37 H 4.136372 -1.563552 4.017316 0
M  V30 38 H 5.530951 -0.661097 3.391037 0
M  V30 39 H 3.439278 -1.874627 -0.441891 0
M  V30 40 H 3.836670 2.148729 -1.009866 0
M  V30 41 H 2.410597 2.885081 -1.810475 0
M  V30 42 H 2.151242 1.446754 0.802605 0
M  V30 43 H -1.893076 -0.315067 -0.915565 0
M  V30 44 H -5.096096 0.347786 0.734582 0
M  V30 45 H -6.677872 -2.546377 -2.020796 0
M  V30 46 H -4.917687 -4.137308 -1.298515 0
M  V30 47 H -3.842220 -5.515129 0.223559 0
M  V30 48 H -2.806406 -4.869097 -1.078152 0
M  V30 49 H -2.076691 -5.451745 0.495237 0
M  V30 50 H -4.287550 -1.811702 3.383025 0
M  V30 51 H -2.568398 -1.140015 5.020450 0
M  V30 52 H 0.858716 0.717706 2.202275 0
M  V30 53 H -0.423359 0.402947 -2.301510 0
M  V30 54 H 0.422416 1.954790 -2.476900 0
M  V30 55 H 1.555609 0.085814 -3.787361 0
M  V30 56 H 1.669324 -0.839604 -2.295084 0
M  V30 END ATOM
M  V30 BEGIN BOND
M  V30 1 1 1 2
M  V30 2 1 2 3
M  V30 3 1 3 4
M  V30 4 2 4 5
M  V30 5 1 4 6
M  V30 6 1 6 7
M  V30 7 2 7 8
M  V30 8 2 7 9
M  V30 9 1 7 10
M  V30 10 1 10 11
M  V30 11 1 11 12
M  V30 12 2 12 13
M  V30 13 1 13 14
M  V30 14 2 14 15
M  V30 15 1 15 16
M  V30 16 2 16 17
M  V30 17 1 17 18
M  V30 18 2 18 19
M  V30 19 1 19 20
M  V30 20 1 20 21
M  V30 21 2 20 22
M  V30 22 1 22 23
M  V30 23 2 23 24
M  V30 24 1 24 25
M  V30 25 1 25 26
M  V30 26 1 17 27
M  V30 27 2 27 28
M  V30 28 1 28 29
M  V30 29 2 29 30
M  V30 30 1 30 31
M  V30 31 1 13 32
M  V30 32 1 32 33
M  V30 33 1 33 10
M  V30 34 1 31 14
M  V30 35 1 30 16
M  V30 36 1 24 18
M  V30 37 1 1 34
M  V30 38 1 1 35
M  V30 39 1 1 36
M  V30 40 1 2 37
M  V30 41 1 2 38
M  V30 42 1 6 39
M  V30 43 1 11 40
M  V30 44 1 11 41
M  V30 45 1 12 42
M  V30 46 1 15 43
M  V30 47 1 19 44
M  V30 48 1 22 45
M  V30 49 1 23 46
M  V30 50 1 26 47
M  V30 51 1 26 48
M  V30 52 1 26 49
M  V30 53 1 27 50
M  V30 54 1 28 51
M  V30 55 1 31 52
M  V30 56 1 32 53
M  V30 57 1 32 54
M  V30 58 1 33 55
M  V30 59 1 33 56
M  V30 END BOND
M  V30 END CTAB
M  END
>  <Dataset>  (995) 
ChEMBL_Kinases

>  <Ligand_Instance>  (995) 
nan

>  <PDB_ID>  (995) 
nan

>  <Standardized_SMILES>  (995) 
CCOC(=O)NS(=O)(=O)N1CC=C(c2cc3c(-c4cc(F)ccc4OC)ccnc3[nH]2)CC1

>  <Name>  (995) 
nan

>  <Pocket>  (995) 
nan

>  <ATP_Site>  (995) 
nan

>  <Peripheral>  (995) 
nan

>  <Num_H_Atoms_ProtBoundConf>  (995) 
nan

>  <Num_Resolved_Atoms>  (995) 
nan

>  <Num_Not_Resolved_Atoms>  (995) 
nan

$$$$
CHEMBL485015
     RDKit          3D

  0  0  0  0  0  0  0  0  0  0999 V3000
M  V30 BEGIN CTAB
M  V30 COUNTS 53 56 0 0 0
M  V30 BEGIN ATOM
M  V30 1 C -0.867168 -3.750695 4.869060 0
M  V30 2 C 0.504361 -3.921021 4.297086 0
M  V30 3 O 1.299524 -4.877266 4.455362 0
M  V30 4 N 0.971892 -2.865859 3.466125 0
M  V30 5 C 2.286430 -2.914616 2.852495 0
M  V30 6 C 2.291917 -2.154666 1.543917 0
M  V30 7 C 1.911757 -0.701074 1.702557 0
M  V30 8 O 0.963665 -0.326639 0.731263 0
M  V30 9 C 1.156560 0.762396 -0.097060 0
M  V30 10 C 2.172700 1.685608 -0.222254 0
M  V30 11 C 2.084395 2.684091 -1.161153 0
M  V30 12 C 3.169710 3.539280 -1.179648 0
M  V30 13 N 3.149288 4.556347 -2.088981 0
M  V30 14 C 2.099846 4.702650 -2.928001 0
M  V30 15 C 1.002463 3.856815 -2.925907 0
M  V30 16 C 0.997442 2.819890 -2.016313 0
M  V30 17 C -0.041220 1.889167 -1.899749 0
M  V30 18 C 0.046360 0.874379 -0.946982 0
M  V30 19 C -1.132397 0.021499 -0.993731 0
M  V30 20 C -2.455068 0.429749 -1.077988 0
M  V30 21 C -3.472161 -0.506289 -1.113644 0
M  V30 22 C -3.214493 -1.862810 -1.067465 0
M  V30 23 S -4.558353 -2.993215 -1.117040 0
M  V30 24 N -5.135144 -3.366129 0.452464 0
M  V30 25 O -5.671613 -2.450026 -1.931027 0
M  V30 26 O -4.131228 -4.304527 -1.747552 0
M  V30 27 C -1.882925 -2.276531 -0.982579 0
M  V30 28 C -0.858463 -1.336333 -0.946604 0
M  V30 29 C 1.216182 -0.546329 3.059485 0
M  V30 30 C 0.206206 -1.673087 3.158344 0
M  V30 31 H -1.639423 -3.579820 4.099273 0
M  V30 32 H -0.805862 -2.805443 5.479502 0
M  V30 33 H -1.125541 -4.607066 5.520166 0
M  V30 34 H 3.015707 -2.459864 3.547186 0
M  V30 35 H 2.546219 -3.961817 2.591975 0
M  V30 36 H 1.639351 -2.611273 0.801051 0
M  V30 37 H 3.341609 -2.170872 1.163373 0
M  V30 38 H 2.805574 -0.054789 1.738569 0
M  V30 39 H 2.955119 1.502765 0.468242 0
M  V30 40 H 4.016427 3.441193 -0.520268 0
M  V30 41 H 2.107035 5.519097 -3.642010 0
M  V30 42 H 0.160017 3.946800 -3.575265 0
M  V30 43 H -0.831582 2.060150 -2.585166 0
M  V30 44 H -2.595735 1.504532 -1.110987 0
M  V30 45 H -4.497441 -0.120732 -1.180564 0
M  V30 46 H -4.883393 -4.307434 0.784231 0
M  V30 47 H -5.059729 -2.598398 1.127998 0
M  V30 48 H -1.776033 -3.343771 -0.951661 0
M  V30 49 H 0.106083 -1.821463 -0.880786 0
M  V30 50 H 0.765697 0.453751 3.165256 0
M  V30 51 H 2.028462 -0.694294 3.814413 0
M  V30 52 H -0.226393 -1.832212 2.147924 0
M  V30 53 H -0.570565 -1.467782 3.920672 0
M  V30 END ATOM
M  V30 BEGIN BOND
M  V30 1 1 1 2
M  V30 2 2 2 3
M  V30 3 1 2 4
M  V30 4 1 4 5
M  V30 5 1 5 6
M  V30 6 1 6 7
M  V30 7 1 7 8
M  V30 8 1 8 9
M  V30 9 2 9 10
M  V30 10 1 10 11
M  V30 11 2 11 12
M  V30 12 1 12 13
M  V30 13 2 13 14
M  V30 14 1 14 15
M  V30 15 2 15 16
M  V30 16 1 16 17
M  V30 17 2 17 18
M  V30 18 1 18 19
M  V30 19 2 19 20
M  V30 20 1 20 21
M  V30 21 2 21 22
M  V30 22 1 22 23
M  V30 23 1 23 24
M  V30 24 2 23 25
M  V30 25 2 23 26
M  V30 26 1 22 27
M  V30 27 2 27 28
M  V30 28 1 7 29
M  V30 29 1 29 30
M  V30 30 1 30 4
M  V30 31 1 18 9
M  V30 32 1 28 19
M  V30 33 1 16 11
M  V30 34 1 1 31
M  V30 35 1 1 32
M  V30 36 1 1 33
M  V30 37 1 5 34
M  V30 38 1 5 35
M  V30 39 1 6 36
M  V30 40 1 6 37
M  V30 41 1 7 38
M  V30 42 1 10 39
M  V30 43 1 12 40
M  V30 44 1 14 41
M  V30 45 1 15 42
M  V30 46 1 17 43
M  V30 47 1 20 44
M  V30 48 1 21 45
M  V30 49 1 24 46
M  V30 50 1 24 47
M  V30 51 1 27 48
M  V30 52 1 28 49
M  V30 53 1 29 50
M  V30 54 1 29 51
M  V30 55 1 30 52
M  V30 56 1 30 53
M  V30 END BOND
M  V30 END CTAB
M  END
>  <Dataset>  (996) 
ChEMBL_Kinases

>  <Ligand_Instance>  (996) 
nan

>  <PDB_ID>  (996) 
nan

>  <Standardized_SMILES>  (996) 
CC(=O)N1CCC(Oc2cc3cnccc3cc2-c2ccc(S(N)(=O)=O)cc2)CC1

>  <Name>  (996) 
nan

>  <Pocket>  (996) 
nan

>  <ATP_Site>  (996) 
nan

>  <Peripheral>  (996) 
nan

>  <Num_H_Atoms_ProtBoundConf>  (996) 
nan

>  <Num_Resolved_Atoms>  (996) 
nan

>  <Num_Not_Resolved_Atoms>  (996) 
nan

$$$$
CHEMBL4850174
     RDKit          3D

  0  0  0  0  0  0  0  0  0  0999 V3000
M  V30 BEGIN CTAB
M  V30 COUNTS 42 45 0 0 0
M  V30 BEGIN ATOM
M  V30 1 C 1.630503 -5.267902 2.939833 0
M  V30 2 N 2.069380 -4.888487 1.607401 0
M  V30 3 C 1.621828 -3.823200 0.923512 0
M  V30 4 C 2.258272 -3.761525 -0.319582 0
M  V30 5 C 1.935872 -2.671151 -1.262566 0
M  V30 6 C 2.002178 -2.884070 -2.642061 0
M  V30 7 C 1.688219 -1.827988 -3.470193 0
M  V30 8 C 1.322355 -0.607527 -2.941728 0
M  V30 9 N 0.968491 0.575845 -3.456263 0
M  V30 10 C 0.698918 1.469327 -2.457716 0
M  V30 11 C 0.895432 0.806842 -1.256994 0
M  V30 12 C 0.666171 1.560033 -0.056423 0
M  V30 13 O 0.287129 2.776933 -0.193526 0
M  V30 14 N 0.738296 1.348193 1.315495 0
M  V30 15 C 0.460330 2.245193 2.397240 0
M  V30 16 C -0.993707 2.436362 2.651934 0
M  V30 17 C -1.522751 1.492003 3.534168 0
M  V30 18 C -2.861062 1.466377 3.928389 0
M  V30 19 C -3.676323 2.458644 3.385175 0
M  V30 20 C -3.177591 3.396552 2.516727 0
M  V30 21 C -1.866879 3.380970 2.162428 0
M  V30 22 N 1.264450 -0.421803 -1.634148 0
M  V30 23 C 1.567415 -1.441534 -0.821276 0
M  V30 24 C 3.107083 -4.846635 -0.336567 0
M  V30 25 N 2.962362 -5.502041 0.847488 0
M  V30 26 H 0.662599 -4.750071 3.166263 0
M  V30 27 H 1.416279 -6.354782 2.990995 0
M  V30 28 H 2.409211 -5.070160 3.704722 0
M  V30 29 H 0.874306 -3.134767 1.313888 0
M  V30 30 H 2.295136 -3.859983 -3.047054 0
M  V30 31 H 1.718691 -1.922555 -4.550500 0
M  V30 32 H 0.407113 2.445386 -2.859434 0
M  V30 33 H 1.040783 0.386907 1.568810 0
M  V30 34 H 0.868628 3.279671 2.189739 0
M  V30 35 H 0.997720 1.924197 3.308737 0
M  V30 36 H -0.931815 0.691879 3.990687 0
M  V30 37 H -3.247667 0.726780 4.611121 0
M  V30 38 H -4.736858 2.474347 3.669361 0
M  V30 39 H -3.805126 4.175029 2.087243 0
M  V30 40 H -1.403041 4.083308 1.491768 0
M  V30 41 H 1.533467 -1.338928 0.241659 0
M  V30 42 H 3.719095 -5.018217 -1.207040 0
M  V30 END ATOM
M  V30 BEGIN BOND
M  V30 1 1 1 2
M  V30 2 1 2 3
M  V30 3 2 3 4
M  V30 4 1 4 5
M  V30 5 1 5 6
M  V30 6 2 6 7
M  V30 7 1 7 8
M  V30 8 2 8 9
M  V30 9 1 9 10
M  V30 10 2 10 11
M  V30 11 1 11 12
M  V30 12 2 12 13
M  V30 13 1 12 14
M  V30 14 1 14 15
M  V30 15 1 15 16
M  V30 16 2 16 17
M  V30 17 1 17 18
M  V30 18 2 18 19
M  V30 19 1 19 20
M  V30 20 2 20 21
M  V30 21 1 11 22
M  V30 22 1 22 23
M  V30 23 1 4 24
M  V30 24 2 24 25
M  V30 25 1 25 2
M  V30 26 2 23 5
M  V30 27 1 22 8
M  V30 28 1 21 16
M  V30 29 1 1 26
M  V30 30 1 1 27
M  V30 31 1 1 28
M  V30 32 1 3 29
M  V30 33 1 6 30
M  V30 34 1 7 31
M  V30 35 1 10 32
M  V30 36 1 14 33
M  V30 37 1 15 34
M  V30 38 1 15 35
M  V30 39 1 17 36
M  V30 40 1 18 37
M  V30 41 1 19 38
M  V30 42 1 20 39
M  V30 43 1 21 40
M  V30 44 1 23 41
M  V30 45 1 24 42
M  V30 END BOND
M  V30 END CTAB
M  END
>  <Dataset>  (997) 
ChEMBL_Kinases

>  <Ligand_Instance>  (997) 
nan

>  <PDB_ID>  (997) 
nan

>  <Standardized_SMILES>  (997) 
Cn1cc(-c2ccc3ncc(C(=O)NCc4ccccc4)n3c2)cn1

>  <Name>  (997) 
nan

>  <Pocket>  (997) 
nan

>  <ATP_Site>  (997) 
nan

>  <Peripheral>  (997) 
nan

>  <Num_H_Atoms_ProtBoundConf>  (997) 
nan

>  <Num_Resolved_Atoms>  (997) 
nan

>  <Num_Not_Resolved_Atoms>  (997) 
nan

$$$$
CHEMBL4850184
     RDKit          3D

  0  0  0  0  0  0  0  0  0  0999 V3000
M  V30 BEGIN CTAB
M  V30 COUNTS 55 58 0 0 0
M  V30 BEGIN ATOM
M  V30 1 C 5.007232 -2.293875 4.436981 0
M  V30 2 N 4.881376 -1.436094 3.253181 0
M  V30 3 C 3.543474 -1.050088 3.007098 0
M  V30 4 O 2.722264 -1.516052 3.849180 0
M  V30 5 C 3.205110 -0.188358 1.865209 0
M  V30 6 C 4.094765 0.325275 0.941174 0
M  V30 7 C 3.616056 1.121355 -0.077303 0
M  V30 8 C 2.295385 1.432900 -0.223507 0
M  V30 9 C 1.421272 0.921755 0.693580 0
M  V30 10 N 0.025600 1.190485 0.623807 0
M  V30 11 C -0.582138 2.301747 1.266929 0
M  V30 12 O 0.171795 3.076600 1.927318 0
M  V30 13 O -1.922009 2.633958 1.250727 0
M  V30 14 C -2.827048 1.840026 0.544315 0
M  V30 15 C -3.712038 2.624571 -0.381724 0
M  V30 16 C -2.952710 3.388575 -1.432157 0
M  V30 17 C -4.503149 3.603484 0.472289 0
M  V30 18 C -2.146187 0.719073 -0.086966 0
M  V30 19 C -3.013275 -0.093345 -0.789974 0
M  V30 20 N -2.573993 -1.195152 -1.453770 0
M  V30 21 C -1.252004 -1.535217 -1.445912 0
M  V30 22 N -0.719968 -2.670503 -2.115339 0
M  V30 23 C -0.676882 -3.868449 -1.342257 0
M  V30 24 C -1.141253 -3.857419 -0.026880 0
M  V30 25 C -1.096333 -5.035887 0.727472 0
M  V30 26 F -1.524476 -5.114790 2.006545 0
M  V30 27 C -0.598570 -6.217772 0.193647 0
M  V30 28 O -0.539407 -7.400081 0.910294 0
M  V30 29 C -0.133394 -6.237445 -1.117547 0
M  V30 30 F 0.373076 -7.330102 -1.742997 0
M  V30 31 C -0.190459 -5.060503 -1.836197 0
M  V30 32 N -0.398243 -0.751798 -0.764775 0
M  V30 33 C -0.825988 0.323179 -0.116938 0
M  V30 34 C 1.845198 0.107264 1.750290 0
M  V30 35 H 6.041196 -2.692943 4.444106 0
M  V30 36 H 4.245387 -3.105944 4.340954 0
M  V30 37 H 4.756793 -1.694086 5.331105 0
M  V30 38 H 5.666376 -1.140959 2.660631 0
M  V30 39 H 5.136723 0.053635 1.093060 0
M  V30 40 H 4.377305 1.483310 -0.758306 0
M  V30 41 H 1.945985 2.065075 -1.039116 0
M  V30 42 H -3.527381 1.416290 1.323512 0
M  V30 43 H -4.454209 1.936188 -0.808533 0
M  V30 44 H -1.938719 2.990767 -1.624044 0
M  V30 45 H -2.864175 4.474481 -1.214577 0
M  V30 46 H -3.595450 3.342367 -2.359110 0
M  V30 47 H -4.191644 3.572585 1.540360 0
M  V30 48 H -5.593703 3.414637 0.454251 0
M  V30 49 H -4.294658 4.656039 0.132106 0
M  V30 50 H -4.101390 -0.062619 -0.963932 0
M  V30 51 H -0.367708 -2.706873 -3.093828 0
M  V30 52 H -1.539363 -2.964533 0.439510 0
M  V30 53 H -0.903781 -7.417743 1.850763 0
M  V30 54 H 0.165466 -5.039782 -2.866380 0
M  V30 55 H 1.108953 -0.278144 2.458921 0
M  V30 END ATOM
M  V30 BEGIN BOND
M  V30 1 1 1 2
M  V30 2 1 2 3
M  V30 3 2 3 4
M  V30 4 1 3 5
M  V30 5 2 5 6
M  V30 6 1 6 7
M  V30 7 2 7 8
M  V30 8 1 8 9
M  V30 9 1 9 10
M  V30 10 1 10 11
M  V30 11 2 11 12
M  V30 12 1 11 13
M  V30 13 1 13 14
M  V30 14 1 14 15
M  V30 15 1 15 16
M  V30 16 1 15 17
M  V30 17 1 14 18
M  V30 18 2 18 19
M  V30 19 1 19 20
M  V30 20 2 20 21
M  V30 21 1 21 22
M  V30 22 1 22 23
M  V30 23 2 23 24
M  V30 24 1 24 25
M  V30 25 1 25 26
M  V30 26 2 25 27
M  V30 27 1 27 28
M  V30 28 1 27 29
M  V30 29 1 29 30
M  V30 30 2 29 31
M  V30 31 1 21 32
M  V30 32 2 32 33
M  V30 33 2 9 34
M  V30 34 1 34 5
M  V30 35 1 33 10
M  V30 36 1 33 18
M  V30 37 1 31 23
M  V30 38 1 1 35
M  V30 39 1 1 36
M  V30 40 1 1 37
M  V30 41 1 2 38
M  V30 42 1 6 39
M  V30 43 1 7 40
M  V30 44 1 8 41
M  V30 45 1 14 42
M  V30 46 1 15 43
M  V30 47 1 16 44
M  V30 48 1 16 45
M  V30 49 1 16 46
M  V30 50 1 17 47
M  V30 51 1 17 48
M  V30 52 1 17 49
M  V30 53 1 19 50
M  V30 54 1 22 51
M  V30 55 1 24 52
M  V30 56 1 28 53
M  V30 57 1 31 54
M  V30 58 1 34 55
M  V30 END BOND
M  V30 END CTAB
M  END
>  <Dataset>  (998) 
ChEMBL_Kinases

>  <Ligand_Instance>  (998) 
nan

>  <PDB_ID>  (998) 
nan

>  <Standardized_SMILES>  (998) 
CNC(=O)c1cccc(N2C(=O)OC(C(C)C)c3cnc(Nc4cc(F)c(O)c(F)c4)nc32)c1

>  <Name>  (998) 
nan

>  <Pocket>  (998) 
nan

>  <ATP_Site>  (998) 
nan

>  <Peripheral>  (998) 
nan

>  <Num_H_Atoms_ProtBoundConf>  (998) 
nan

>  <Num_Resolved_Atoms>  (998) 
nan

>  <Num_Not_Resolved_Atoms>  (998) 
nan

$$$$
CHEMBL4850219
     RDKit          3D

  0  0  0  0  0  0  0  0  0  0999 V3000
M  V30 BEGIN CTAB
M  V30 COUNTS 62 66 0 0 0
M  V30 BEGIN ATOM
M  V30 1 C 3.982807 -0.493760 6.463506 0
M  V30 2 C 4.193020 -1.866711 5.881497 0
M  V30 3 C 3.615590 -3.040713 6.645688 0
M  V30 4 C 5.459366 -2.068737 5.097109 0
M  V30 5 C 4.189530 -2.036602 4.383447 0 CFG=2
M  V30 6 C 3.749110 -0.891275 3.568992 0
M  V30 7 O 3.099401 -1.827114 2.985672 0
M  V30 8 N 3.873325 0.483320 3.398720 0
M  V30 9 C 3.123178 1.112049 2.329693 0
M  V30 10 N 3.417871 1.315718 1.199570 0
M  V30 11 C 2.688364 1.895450 0.273799 0
M  V30 12 C 3.011293 2.142009 -1.045038 0
M  V30 13 C 2.122683 2.763356 -1.882363 0
M  V30 14 C 0.866348 3.187692 -1.505215 0
M  V30 15 O -0.114569 3.821292 -2.249797 0
M  V30 16 C -1.077985 3.075724 -2.941709 0
M  V30 17 C -2.022306 3.780475 -3.642743 0
M  V30 18 C -3.031322 3.146406 -4.369579 0
M  V30 19 C -3.045748 1.757518 -4.357850 0
M  V30 20 F -4.024112 1.113845 -5.062548 0
M  V30 21 C -2.102595 1.020826 -3.657218 0
M  V30 22 N -2.117395 -0.407955 -3.642716 0
M  V30 23 C -2.791743 -1.195578 -2.698893 0
M  V30 24 O -3.516872 -1.209781 -1.679639 0
M  V30 25 C -2.748673 -2.689712 -2.767172 0
M  V30 26 C -3.511701 -3.312711 -1.682832 0
M  V30 27 C -2.789515 -3.570193 -0.525755 0
M  V30 28 C -3.328443 -4.151306 0.603111 0
M  V30 29 C -4.659598 -4.491951 0.570722 0
M  V30 30 C -5.420797 -4.248668 -0.576470 0
M  V30 31 C -6.855677 -4.629072 -0.574502 0
M  V30 32 F -7.328653 -5.020086 -1.799525 0
M  V30 33 F -7.644752 -3.546642 -0.163845 0
M  V30 34 F -7.032290 -5.629893 0.361372 0
M  V30 35 C -4.844632 -3.668044 -1.678510 0
M  V30 36 C -1.124533 1.692689 -2.953651 0
M  V30 37 C 0.506347 2.959123 -0.193951 0
M  V30 38 C 1.440609 2.320363 0.635968 0
M  V30 39 S 1.395016 1.827319 2.395982 0
M  V30 40 H 4.899850 0.109251 6.374020 0
M  V30 41 H 3.720977 -0.570505 7.544982 0
M  V30 42 H 3.149874 -0.018667 5.889680 0
M  V30 43 H 2.547471 -3.128302 6.328657 0
M  V30 44 H 4.102997 -3.998055 6.369472 0
M  V30 45 H 3.580154 -2.854051 7.734680 0
M  V30 46 H 6.204911 -1.272575 5.074702 0
M  V30 47 H 5.907585 -3.089725 5.240599 0
M  V30 48 H 3.757333 -3.010149 3.985544 0
M  V30 49 H 4.526536 0.767347 4.125555 0
M  V30 50 H 3.956779 1.878687 -1.521038 0
M  V30 51 H 2.344400 2.977627 -2.941551 0
M  V30 52 H -2.033255 4.872353 -3.668294 0
M  V30 53 H -3.766666 3.739412 -4.916381 0
M  V30 54 H -1.597122 -0.927891 -4.376160 0
M  V30 55 H -3.227525 -2.948879 -3.737733 0
M  V30 56 H -1.733190 -3.099692 -2.798327 0
M  V30 57 H -1.729514 -3.324562 -0.433785 0
M  V30 58 H -2.726081 -4.338949 1.497361 0
M  V30 59 H -5.085263 -4.948466 1.456044 0
M  V30 60 H -5.381244 -3.460284 -2.579835 0
M  V30 61 H -0.373528 1.181928 -2.397139 0
M  V30 62 H -0.446607 3.223237 0.289326 0
M  V30 END ATOM
M  V30 BEGIN BOND
M  V30 1 1 1 2
M  V30 2 1 2 3
M  V30 3 1 2 4
M  V30 4 1 4 5
M  V30 5 1 5 6
M  V30 6 2 6 7
M  V30 7 1 6 8
M  V30 8 1 8 9
M  V30 9 2 9 10
M  V30 10 1 10 11
M  V30 11 2 11 12
M  V30 12 1 12 13
M  V30 13 2 13 14
M  V30 14 1 14 15
M  V30 15 1 15 16
M  V30 16 2 16 17
M  V30 17 1 17 18
M  V30 18 2 18 19
M  V30 19 1 19 20
M  V30 20 1 19 21
M  V30 21 1 21 22
M  V30 22 1 22 23
M  V30 23 2 23 24
M  V30 24 1 23 25
M  V30 25 1 25 26
M  V30 26 2 26 27
M  V30 27 1 27 28
M  V30 28 2 28 29
M  V30 29 1 29 30
M  V30 30 1 30 31
M  V30 31 1 31 32
M  V30 32 1 31 33
M  V30 33 1 31 34
M  V30 34 2 30 35
M  V30 35 2 21 36
M  V30 36 1 14 37
M  V30 37 2 37 38
M  V30 38 1 38 39
M  V30 39 1 5 2
M  V30 40 1 39 9
M  V30 41 1 38 11
M  V30 42 1 36 16
M  V30 43 1 35 26
M  V30 44 1 1 40
M  V30 45 1 1 41
M  V30 46 1 1 42
M  V30 47 1 3 43
M  V30 48 1 3 44
M  V30 49 1 3 45
M  V30 50 1 4 46
M  V30 51 1 4 47
M  V30 52 1 5 48 CFG=1
M  V30 53 1 8 49
M  V30 54 1 12 50
M  V30 55 1 13 51
M  V30 56 1 17 52
M  V30 57 1 18 53
M  V30 58 1 22 54
M  V30 59 1 25 55
M  V30 60 1 25 56
M  V30 61 1 27 57
M  V30 62 1 28 58
M  V30 63 1 29 59
M  V30 64 1 35 60
M  V30 65 1 36 61
M  V30 66 1 37 62
M  V30 END BOND
M  V30 END CTAB
M  END
>  <Dataset>  (999) 
ChEMBL_Kinases

>  <Ligand_Instance>  (999) 
nan

>  <PDB_ID>  (999) 
nan

>  <Standardized_SMILES>  (999) 
CC1(C)C[C@@H]1C(=O)Nc1nc2ccc(Oc3ccc(F)c(NC(=O)Cc4cccc(C(F)(F)F)c4)c3)cc2s1

>  <Name>  (999) 
nan

>  <Pocket>  (999) 
nan

>  <ATP_Site>  (999) 
nan

>  <Peripheral>  (999) 
nan

>  <Num_H_Atoms_ProtBoundConf>  (999) 
nan

>  <Num_Resolved_Atoms>  (999) 
nan

>  <Num_Not_Resolved_Atoms>  (999) 
nan

$$$$
